
 OpenBabel11021811413D
libRbt.so/2013.1/901 2013/11/27
 42 45  0  0  0  0  0  0  0  0999 V2000
   11.1581   -2.9650   -2.7236 O   0  0  0  0  0  0  0  0  0  0  0  0
   10.9403   -2.4470   -1.4190 C   0  0  0  0  0  0  0  0  0  0  0  0
    9.8162   -3.2253   -0.7341 C   0  0  1  0  0  0  0  0  0  0  0  0
    9.1779   -2.4330    0.2909 O   0  0  0  0  0  0  0  0  0  0  0  0
    8.7061   -3.6435   -1.6840 C   0  0  2  0  0  0  0  0  0  0  0  0
    7.5813   -3.9068   -0.6969 C   0  0  1  0  0  0  0  0  0  0  0  0
    7.7859   -5.1622   -0.0582 O   0  0  0  0  0  0  0  0  0  0  0  0
    7.7664   -2.7640    0.3222 C   0  0  2  0  0  0  0  0  0  0  0  0
    8.4140   -5.8754   -5.8711 C   0  0  2  0  0  0  0  0  0  0  0  0
    9.0459   -5.8144   -4.5833 O   0  0  0  0  0  0  0  0  0  0  0  0
    8.3734   -4.9014   -3.6972 C   0  0  2  0  0  0  0  0  0  0  0  0
    9.0664   -4.8200   -2.4344 O   0  0  0  0  0  0  0  0  0  0  0  0
    6.9133   -5.3336   -3.4785 C   0  0  2  0  0  0  0  0  0  0  0  0
    6.8409   -6.4586   -2.5644 N   0  3  0  0  0  0  0  0  0  0  0  0
    6.1810   -5.6560   -4.7863 C   0  0  1  0  0  0  0  0  0  0  0  0
    5.8118   -4.4466   -5.4297 O   0  0  0  0  0  0  0  0  0  0  0  0
    7.0312   -6.4994   -5.7325 C   0  0  2  0  0  0  0  0  0  0  0  0
    7.1408   -7.8274   -5.2336 O   0  0  0  0  0  0  0  0  0  0  0  0
    9.2714   -6.6676   -6.8540 C   0  0  0  0  0  0  0  0  0  0  0  0
   10.5630   -6.0299   -7.0278 N   0  3  0  0  0  0  0  0  0  0  0  0
    8.1711    3.2888    3.0276 C   0  0  1  0  0  0  0  0  0  0  0  0
    9.0903    2.1778    2.9738 O   0  0  0  0  0  0  0  0  0  0  0  0
    8.4331    0.8966    2.8391 C   0  0  2  0  0  0  0  0  0  0  0  0
    7.7456    0.7693    1.5699 O   0  0  0  0  0  0  0  0  0  0  0  0
    7.4764    0.6540    4.0128 C   0  0  2  0  0  0  0  0  0  0  0  0
    6.6724   -0.5274    3.7605 N   0  3  0  0  0  0  0  0  0  0  0  0
    6.5553    1.8462    4.2468 C   0  0  1  0  0  0  0  0  0  0  0  0
    5.8596    1.6794    5.4726 O   0  0  0  0  0  0  0  0  0  0  0  0
    7.2896    3.1782    4.2609 C   0  0  2  0  0  0  0  0  0  0  0  0
    6.3619    4.2528    4.2934 O   0  0  0  0  0  0  0  0  0  0  0  0
    8.9434    4.6012    3.1265 C   0  0  0  0  0  0  0  0  0  0  0  0
    9.3961    5.0314    1.8163 N   0  3  0  0  0  0  0  0  0  0  0  0
    9.3048    0.2777   -2.3579 C   0  0  2  0  0  0  0  0  0  0  0  0
   10.2709    0.6465   -1.2494 C   0  0  0  0  0  0  0  0  0  0  0  0
    9.5178    1.1683   -0.0397 C   0  0  1  0  0  0  0  0  0  0  0  0
    8.5597    0.1326    0.5504 C   0  0  2  0  0  0  0  0  0  0  0  0
    7.6530   -0.4709   -0.5471 C   0  0  1  0  0  0  0  0  0  0  0  0
    8.3275   -0.7912   -1.8876 C   0  0  1  0  0  0  0  0  0  0  0  0
   10.0489   -0.2120   -3.5026 N   0  3  0  0  0  0  0  0  0  0  0  0
   10.4744    1.6048    0.9587 N   0  3  0  0  0  0  0  0  0  0  0  0
    6.9345   -1.6324   -0.0636 O   0  0  0  0  0  0  0  0  0  0  0  0
    7.3361   -1.0081   -2.8862 O   0  0  0  0  0  0  0  0  0  0  0  0
  1  2  1  0  0  0  0
  3  2  1  6  0  0  0
  3  4  1  0  0  0  0
  3  5  1  0  0  0  0
  4  8  1  0  0  0  0
  5  6  1  0  0  0  0
  5 12  1  1  0  0  0
  6  7  1  1  0  0  0
  6  8  1  0  0  0  0
  8 41  1  6  0  0  0
  9 10  1  0  0  0  0
  9 17  1  0  0  0  0
  9 19  1  6  0  0  0
 10 11  1  0  0  0  0
 11 12  1  1  0  0  0
 11 13  1  0  0  0  0
 13 14  1  1  0  0  0
 13 15  1  0  0  0  0
 15 16  1  6  0  0  0
 15 17  1  0  0  0  0
 17 18  1  1  0  0  0
 19 20  1  0  0  0  0
 21 22  1  0  0  0  0
 21 29  1  0  0  0  0
 21 31  1  1  0  0  0
 22 23  1  0  0  0  0
 23 24  1  6  0  0  0
 23 25  1  0  0  0  0
 25 26  1  6  0  0  0
 25 27  1  0  0  0  0
 27 28  1  1  0  0  0
 27 29  1  0  0  0  0
 29 30  1  6  0  0  0
 31 32  1  0  0  0  0
 33 34  1  0  0  0  0
 33 38  1  0  0  0  0
 33 39  1  6  0  0  0
 34 35  1  0  0  0  0
 35 36  1  0  0  0  0
 35 40  1  1  0  0  0
 36 24  1  1  0  0  0
 36 37  1  0  0  0  0
 37 38  1  0  0  0  0
 37 41  1  1  0  0  0
 38 42  1  6  0  0  0
M  CHG  6  14   1  20   1  26   1  32   1  39   1  40   1
M  END
>  <CHROM.1>
-57.83528210,-155.33642949,-154.08884238,64.33461594,6.91495199,-60.92586780
161.63007817,-43.69301100,177.41631019,-174.96439231,-176.22268479,81.79429702
93.60382779,-80.43315348,-40.04808013,177.30744784,-64.92716374,-171.72236507
-49.85388992,64.79146937,-63.37864843,54.31976456,8.29369520,-1.66018020
-0.82308327,-1.53052939,0.81669182,0.73562632

>  <Name>


>  <RI>
0

>  <Rbt.Current_Directory>
/home/itssahil/PROJECTS/Mol_Feturizer/New_Systems/rnas/1qd3

>  <Rbt.Executable>
rbdock ($Id: //depot/dev/client3/rdock/2013.1/src/exe/rbdock.cxx#4 $)

>  <Rbt.Library>
libRbt.so (2013.1, Build901 2013/11/27)

>  <Rbt.Parameter_File>
/export/apps/rDock/src/rDock_2013.1_src/data/scripts/dock_solv.prm

>  <Rbt.Receptor>
prm/pocket_docking_2.prm

>  <SCORE>
-65.0686

>  <SCORE.INTER>
-43.1481

>  <SCORE.INTER.CONST>
1

>  <SCORE.INTER.POLAR>
-5.76681

>  <SCORE.INTER.ROT>
9

>  <SCORE.INTER.SOLV>
40.4531

>  <SCORE.INTER.VDW>
-32.627

>  <SCORE.INTER.norm>
-1.02733

>  <SCORE.INTRA>
-22.0209

>  <SCORE.INTRA.DIHEDRAL>
-15.6193

>  <SCORE.INTRA.DIHEDRAL.0>
40.6252

>  <SCORE.INTRA.POLAR>
-2.16975

>  <SCORE.INTRA.POLAR.0>
-1.20161

>  <SCORE.INTRA.REPUL>
-0.115675

>  <SCORE.INTRA.REPUL.0>
0.115675

>  <SCORE.INTRA.SOLV>
-1.16424

>  <SCORE.INTRA.SOLV.lig_0>
-154.895

>  <SCORE.INTRA.VDW>
-5.67359

>  <SCORE.INTRA.VDW.0>
2.2925

>  <SCORE.INTRA.norm>
-0.524307

>  <SCORE.RESTR>
0.100338

>  <SCORE.RESTR.CAVITY>
0.100338

>  <SCORE.RESTR.norm>
0.00238899

>  <SCORE.SYSTEM>
0

>  <SCORE.SYSTEM.CONST>
0

>  <SCORE.SYSTEM.DIHEDRAL>
0

>  <SCORE.SYSTEM.SOLV>
0

>  <SCORE.SYSTEM.norm>
0

>  <SCORE.heavy>
42

>  <SCORE.norm>
-1.54925

>  <RMSD>
0.583

$$$$

 OpenBabel11021811413D
libRbt.so/2013.1/901 2013/11/27
 42 45  0  0  0  0  0  0  0  0999 V2000
   12.1900   -2.8032   -0.7499 O   0  0  0  0  0  0  0  0  0  0  0  0
   11.0333   -2.7095   -1.5689 C   0  0  0  0  0  0  0  0  0  0  0  0
    9.8655   -3.4362   -0.9005 C   0  0  1  0  0  0  0  0  0  0  0  0
    9.2231   -2.6006    0.0868 O   0  0  0  0  0  0  0  0  0  0  0  0
    8.7710   -3.8421   -1.8735 C   0  0  2  0  0  0  0  0  0  0  0  0
    7.6101   -4.0470   -0.9147 C   0  0  1  0  0  0  0  0  0  0  0  0
    7.7561   -5.2928   -0.2420 O   0  0  0  0  0  0  0  0  0  0  0  0
    7.8015   -2.8869    0.0833 C   0  0  2  0  0  0  0  0  0  0  0  0
    8.5096   -6.1467   -6.0171 C   0  0  2  0  0  0  0  0  0  0  0  0
    9.1277   -6.0646   -4.7238 O   0  0  0  0  0  0  0  0  0  0  0  0
    8.4365   -5.1493   -3.8548 C   0  0  2  0  0  0  0  0  0  0  0  0
    9.1156   -5.0465   -2.5859 O   0  0  0  0  0  0  0  0  0  0  0  0
    6.9789   -5.5946   -3.6460 C   0  0  2  0  0  0  0  0  0  0  0  0
    6.9090   -6.7102   -2.7203 N   0  3  0  0  0  0  0  0  0  0  0  0
    6.2634   -5.9393   -4.9575 C   0  0  1  0  0  0  0  0  0  0  0  0
    5.8881   -4.7411   -5.6180 O   0  0  0  0  0  0  0  0  0  0  0  0
    7.1322   -6.7839   -5.8856 C   0  0  2  0  0  0  0  0  0  0  0  0
    7.2508   -8.1050   -5.3708 O   0  0  0  0  0  0  0  0  0  0  0  0
    9.3855   -6.9404   -6.9824 C   0  0  0  0  0  0  0  0  0  0  0  0
    8.7788   -6.9819   -8.2996 N   0  3  0  0  0  0  0  0  0  0  0  0
    8.4989    2.9952    2.9337 C   0  0  1  0  0  0  0  0  0  0  0  0
    9.2960    1.7937    2.8775 O   0  0  0  0  0  0  0  0  0  0  0  0
    8.5131    0.5963    2.6657 C   0  0  2  0  0  0  0  0  0  0  0  0
    7.8766    0.5863    1.3640 O   0  0  0  0  0  0  0  0  0  0  0  0
    7.4817    0.4197    3.7868 C   0  0  2  0  0  0  0  0  0  0  0  0
    6.5692   -0.6587    3.4551 N   0  3  0  0  0  0  0  0  0  0  0  0
    6.6830    1.6962    4.0260 C   0  0  1  0  0  0  0  0  0  0  0  0
    5.9165    1.5650    5.2132 O   0  0  0  0  0  0  0  0  0  0  0  0
    7.5535    2.9397    4.1226 C   0  0  2  0  0  0  0  0  0  0  0  0
    6.7451    4.1067    4.1558 O   0  0  0  0  0  0  0  0  0  0  0  0
    9.4011    4.2124    3.1159 C   0  0  0  0  0  0  0  0  0  0  0  0
    8.6761    5.4370    2.8305 N   0  3  0  0  0  0  0  0  0  0  0  0
    9.5043    0.1456   -2.5419 C   0  0  2  0  0  0  0  0  0  0  0  0
   10.4580    0.4492   -1.4032 C   0  0  0  0  0  0  0  0  0  0  0  0
    9.6971    0.9648   -0.1957 C   0  0  1  0  0  0  0  0  0  0  0  0
    8.6901   -0.0514    0.3447 C   0  0  2  0  0  0  0  0  0  0  0  0
    7.7871   -0.5919   -0.7882 C   0  0  1  0  0  0  0  0  0  0  0  0
    8.4796   -0.8997   -2.1224 C   0  0  1  0  0  0  0  0  0  0  0  0
   10.2559   -0.3393   -3.6837 N   0  3  0  0  0  0  0  0  0  0  0  0
   10.6461    1.3393    0.8345 N   0  3  0  0  0  0  0  0  0  0  0  0
    7.0174   -1.7394   -0.3527 O   0  0  0  0  0  0  0  0  0  0  0  0
    7.5036   -1.0537   -3.1476 O   0  0  0  0  0  0  0  0  0  0  0  0
  1  2  1  0  0  0  0
  3  2  1  6  0  0  0
  3  4  1  0  0  0  0
  3  5  1  0  0  0  0
  4  8  1  0  0  0  0
  5  6  1  0  0  0  0
  5 12  1  1  0  0  0
  6  7  1  1  0  0  0
  6  8  1  0  0  0  0
  8 41  1  6  0  0  0
  9 10  1  0  0  0  0
  9 17  1  0  0  0  0
  9 19  1  6  0  0  0
 10 11  1  0  0  0  0
 11 12  1  1  0  0  0
 11 13  1  0  0  0  0
 13 14  1  1  0  0  0
 13 15  1  0  0  0  0
 15 16  1  6  0  0  0
 15 17  1  0  0  0  0
 17 18  1  1  0  0  0
 19 20  1  0  0  0  0
 21 22  1  0  0  0  0
 21 29  1  0  0  0  0
 21 31  1  1  0  0  0
 22 23  1  0  0  0  0
 23 24  1  6  0  0  0
 23 25  1  0  0  0  0
 25 26  1  6  0  0  0
 25 27  1  0  0  0  0
 27 28  1  1  0  0  0
 27 29  1  0  0  0  0
 29 30  1  6  0  0  0
 31 32  1  0  0  0  0
 33 34  1  0  0  0  0
 33 38  1  0  0  0  0
 33 39  1  6  0  0  0
 34 35  1  0  0  0  0
 35 36  1  0  0  0  0
 35 40  1  1  0  0  0
 36 24  1  1  0  0  0
 36 37  1  0  0  0  0
 37 38  1  0  0  0  0
 37 41  1  1  0  0  0
 38 42  1  6  0  0  0
M  CHG  6  14   1  20   1  26   1  32   1  39   1  40   1
M  END
>  <CHROM.1>
-177.01984011,82.34277959,-155.27366634,169.70200283,4.45018598,-178.06284160
159.57131055,-175.33041266,-173.03361839,44.31881683,166.34204214,165.20467563
91.18894083,-83.24897302,-169.07637141,178.36305173,-82.09949428,-145.28208028
-53.69504810,-65.96665754,-60.39814436,-179.97989515,8.35725238,-1.86068876
-0.93699563,-1.57194814,0.78015349,0.76642018

>  <Name>


>  <RI>
0

>  <Rbt.Current_Directory>
/home/itssahil/PROJECTS/Mol_Feturizer/New_Systems/rnas/1qd3

>  <Rbt.Executable>
rbdock ($Id: //depot/dev/client3/rdock/2013.1/src/exe/rbdock.cxx#4 $)

>  <Rbt.Library>
libRbt.so (2013.1, Build901 2013/11/27)

>  <Rbt.Parameter_File>
/export/apps/rDock/src/rDock_2013.1_src/data/scripts/dock_solv.prm

>  <Rbt.Receptor>
prm/pocket_docking_2.prm

>  <SCORE>
-54.5104

>  <SCORE.INTER>
-38.9111

>  <SCORE.INTER.CONST>
1

>  <SCORE.INTER.POLAR>
-5.74367

>  <SCORE.INTER.ROT>
9

>  <SCORE.INTER.SOLV>
44.0917

>  <SCORE.INTER.VDW>
-31.0924

>  <SCORE.INTER.norm>
-0.926454

>  <SCORE.INTRA>
-15.9433

>  <SCORE.INTRA.DIHEDRAL>
-12.0874

>  <SCORE.INTRA.DIHEDRAL.0>
40.6252

>  <SCORE.INTRA.POLAR>
-0.683059

>  <SCORE.INTRA.POLAR.0>
-1.20161

>  <SCORE.INTRA.REPUL>
-0.115675

>  <SCORE.INTRA.REPUL.0>
0.115675

>  <SCORE.INTRA.SOLV>
-3.67681

>  <SCORE.INTRA.SOLV.lig_0>
-154.895

>  <SCORE.INTRA.VDW>
-5.16041

>  <SCORE.INTRA.VDW.0>
2.2925

>  <SCORE.INTRA.norm>
-0.379602

>  <SCORE.RESTR>
0.343946

>  <SCORE.RESTR.CAVITY>
0.343946

>  <SCORE.RESTR.norm>
0.00818918

>  <SCORE.SYSTEM>
0

>  <SCORE.SYSTEM.CONST>
0

>  <SCORE.SYSTEM.DIHEDRAL>
0

>  <SCORE.SYSTEM.SOLV>
0

>  <SCORE.SYSTEM.norm>
0

>  <SCORE.heavy>
42

>  <SCORE.norm>
-1.29787

>  <RMSD>
0.757

$$$$

 OpenBabel11021811413D
libRbt.so/2013.1/901 2013/11/27
 42 45  0  0  0  0  0  0  0  0999 V2000
   11.8874   -2.5900   -1.7307 O   0  0  0  0  0  0  0  0  0  0  0  0
   10.5899   -2.9101   -2.2121 C   0  0  0  0  0  0  0  0  0  0  0  0
    9.7898   -3.6139   -1.1152 C   0  0  1  0  0  0  0  0  0  0  0  0
    9.4215   -2.6959   -0.0629 O   0  0  0  0  0  0  0  0  0  0  0  0
    8.4865   -4.2174   -1.6118 C   0  0  2  0  0  0  0  0  0  0  0  0
    7.7326   -4.3656   -0.3009 C   0  0  1  0  0  0  0  0  0  0  0  0
    8.2224   -5.4971    0.4102 O   0  0  0  0  0  0  0  0  0  0  0  0
    8.1162   -3.0714    0.4451 C   0  0  2  0  0  0  0  0  0  0  0  0
    7.9139   -6.8245   -5.5726 C   0  0  2  0  0  0  0  0  0  0  0  0
    8.4404   -6.7684   -4.2380 O   0  0  0  0  0  0  0  0  0  0  0  0
    8.1124   -5.5301   -3.5823 C   0  0  2  0  0  0  0  0  0  0  0  0
    8.7044   -5.4821   -2.2675 O   0  0  0  0  0  0  0  0  0  0  0  0
    6.5872   -5.3531   -3.4882 C   0  0  2  0  0  0  0  0  0  0  0  0
    6.0354   -6.1907   -2.4392 N   0  3  0  0  0  0  0  0  0  0  0  0
    5.8698   -5.6149   -4.8177 C   0  0  1  0  0  0  0  0  0  0  0  0
    6.0294   -4.4907   -5.6682 O   0  0  0  0  0  0  0  0  0  0  0  0
    6.3920   -6.8653   -5.5201 C   0  0  2  0  0  0  0  0  0  0  0  0
    5.9568   -8.0292   -4.8270 O   0  0  0  0  0  0  0  0  0  0  0  0
    8.4646   -8.0373   -6.3174 C   0  0  0  0  0  0  0  0  0  0  0  0
    8.2943   -7.8730   -7.7488 N   0  3  0  0  0  0  0  0  0  0  0  0
    8.4611    3.0143    3.0203 C   0  0  1  0  0  0  0  0  0  0  0  0
    9.2896    1.8362    2.9312 O   0  0  0  0  0  0  0  0  0  0  0  0
    8.5313    0.6099    2.8185 C   0  0  2  0  0  0  0  0  0  0  0  0
    7.7905    0.5413    1.5750 O   0  0  0  0  0  0  0  0  0  0  0  0
    7.6020    0.4363    4.0259 C   0  0  2  0  0  0  0  0  0  0  0  0
    6.7009   -0.6788    3.8013 N   0  3  0  0  0  0  0  0  0  0  0  0
    6.7845    1.6947    4.2954 C   0  0  1  0  0  0  0  0  0  0  0  0
    6.1229    1.5764    5.5454 O   0  0  0  0  0  0  0  0  0  0  0  0
    7.6190    2.9662    4.2847 C   0  0  2  0  0  0  0  0  0  0  0  0
    6.7785    4.1088    4.3528 O   0  0  0  0  0  0  0  0  0  0  0  0
    9.3351    4.2631    3.0931 C   0  0  0  0  0  0  0  0  0  0  0  0
    9.4143    4.9114    1.7969 N   0  3  0  0  0  0  0  0  0  0  0  0
    8.9301   -0.0161   -2.4858 C   0  0  2  0  0  0  0  0  0  0  0  0
    9.9626    0.5430   -1.5269 C   0  0  0  0  0  0  0  0  0  0  0  0
    9.2945    1.0477   -0.2613 C   0  0  1  0  0  0  0  0  0  0  0  0
    8.5560   -0.0567    0.4962 C   0  0  2  0  0  0  0  0  0  0  0  0
    7.6140   -0.8401   -0.4470 C   0  0  1  0  0  0  0  0  0  0  0  0
    8.1631   -1.1637   -1.8428 C   0  0  1  0  0  0  0  0  0  0  0  0
    9.5929   -0.4856   -3.6876 N   0  3  0  0  0  0  0  0  0  0  0  0
   10.2959    1.6651    0.5861 N   0  3  0  0  0  0  0  0  0  0  0  0
    7.1154   -2.0465    0.1815 O   0  0  0  0  0  0  0  0  0  0  0  0
    7.0987   -1.5682   -2.6975 O   0  0  0  0  0  0  0  0  0  0  0  0
  1  2  1  0  0  0  0
  3  2  1  6  0  0  0
  3  4  1  0  0  0  0
  3  5  1  0  0  0  0
  4  8  1  0  0  0  0
  5  6  1  0  0  0  0
  5 12  1  1  0  0  0
  6  7  1  1  0  0  0
  6  8  1  0  0  0  0
  8 41  1  6  0  0  0
  9 10  1  0  0  0  0
  9 17  1  0  0  0  0
  9 19  1  1  0  0  0
 10 11  1  0  0  0  0
 11 12  1  1  0  0  0
 11 13  1  0  0  0  0
 13 14  1  1  0  0  0
 13 15  1  0  0  0  0
 15 16  1  6  0  0  0
 15 17  1  0  0  0  0
 17 18  1  1  0  0  0
 19 20  1  0  0  0  0
 21 22  1  0  0  0  0
 21 29  1  0  0  0  0
 21 31  1  1  0  0  0
 22 23  1  0  0  0  0
 23 24  1  6  0  0  0
 23 25  1  0  0  0  0
 25 26  1  6  0  0  0
 25 27  1  0  0  0  0
 27 28  1  1  0  0  0
 27 29  1  0  0  0  0
 29 30  1  6  0  0  0
 31 32  1  0  0  0  0
 33 34  1  0  0  0  0
 33 38  1  0  0  0  0
 33 39  1  6  0  0  0
 34 35  1  0  0  0  0
 35 36  1  0  0  0  0
 35 40  1  1  0  0  0
 36 24  1  1  0  0  0
 36 37  1  0  0  0  0
 37 38  1  0  0  0  0
 37 41  1  1  0  0  0
 38 42  1  6  0  0  0
M  CHG  6  14   1  20   1  26   1  32   1  39   1  40   1
M  END
>  <CHROM.1>
70.13472597,71.34933234,-127.44539306,70.87874801,-3.60730046,-161.70825441
175.62539254,74.64545244,-80.40456036,49.39223832,-171.30342173,100.29306715
89.01866709,-91.17983702,139.05808544,-174.84138904,-53.70349813,-168.70728767
-83.01337549,-38.79564336,-66.92540508,-50.37315234,8.14383763,-1.99427257
-0.78861563,-1.64877450,0.89737002,0.79383520

>  <Name>


>  <RI>
0

>  <Rbt.Current_Directory>
/home/itssahil/PROJECTS/Mol_Feturizer/New_Systems/rnas/1qd3

>  <Rbt.Executable>
rbdock ($Id: //depot/dev/client3/rdock/2013.1/src/exe/rbdock.cxx#4 $)

>  <Rbt.Library>
libRbt.so (2013.1, Build901 2013/11/27)

>  <Rbt.Parameter_File>
/export/apps/rDock/src/rDock_2013.1_src/data/scripts/dock_solv.prm

>  <Rbt.Receptor>
prm/pocket_docking_2.prm

>  <SCORE>
-54.4486

>  <SCORE.INTER>
-47.0945

>  <SCORE.INTER.CONST>
1

>  <SCORE.INTER.POLAR>
-6.91082

>  <SCORE.INTER.ROT>
9

>  <SCORE.INTER.SOLV>
43.177

>  <SCORE.INTER.VDW>
-32.3526

>  <SCORE.INTER.norm>
-1.1213

>  <SCORE.INTRA>
-7.61912

>  <SCORE.INTRA.DIHEDRAL>
-2.71575

>  <SCORE.INTRA.DIHEDRAL.0>
40.6252

>  <SCORE.INTRA.POLAR>
0.151027

>  <SCORE.INTRA.POLAR.0>
-1.20161

>  <SCORE.INTRA.REPUL>
-0.115675

>  <SCORE.INTRA.REPUL.0>
0.115675

>  <SCORE.INTRA.SOLV>
-3.89955

>  <SCORE.INTRA.SOLV.lig_0>
-154.895

>  <SCORE.INTRA.VDW>
-4.24659

>  <SCORE.INTRA.VDW.0>
2.2925

>  <SCORE.INTRA.norm>
-0.181408

>  <SCORE.RESTR>
0.264999

>  <SCORE.RESTR.CAVITY>
0.264999

>  <SCORE.RESTR.norm>
0.0063095

>  <SCORE.SYSTEM>
0

>  <SCORE.SYSTEM.CONST>
0

>  <SCORE.SYSTEM.DIHEDRAL>
0

>  <SCORE.SYSTEM.SOLV>
0

>  <SCORE.SYSTEM.norm>
0

>  <SCORE.heavy>
42

>  <SCORE.norm>
-1.2964

>  <RMSD>
0.797

$$$$

 OpenBabel11021811413D
libRbt.so/2013.1/901 2013/11/27
 42 45  0  0  0  0  0  0  0  0999 V2000
   12.0659   -2.4981   -1.0376 O   0  0  0  0  0  0  0  0  0  0  0  0
   10.9160   -2.6890   -1.8495 C   0  0  0  0  0  0  0  0  0  0  0  0
    9.8398   -3.4313   -1.0563 C   0  0  1  0  0  0  0  0  0  0  0  0
    9.3051   -2.6069    0.0020 O   0  0  0  0  0  0  0  0  0  0  0  0
    8.6459   -3.8454   -1.9006 C   0  0  2  0  0  0  0  0  0  0  0  0
    7.6039   -4.0671   -0.8170 C   0  0  1  0  0  0  0  0  0  0  0  0
    7.8388   -5.3139   -0.1719 O   0  0  0  0  0  0  0  0  0  0  0  0
    7.8955   -2.9090    0.1588 C   0  0  2  0  0  0  0  0  0  0  0  0
    7.5842   -6.4273   -5.7604 C   0  0  2  0  0  0  0  0  0  0  0  0
    8.4668   -6.2460   -4.6426 O   0  0  0  0  0  0  0  0  0  0  0  0
    7.9828   -5.2415   -3.7329 C   0  0  2  0  0  0  0  0  0  0  0  0
    8.9199   -5.0431   -2.6539 O   0  0  0  0  0  0  0  0  0  0  0  0
    6.6028   -5.6323   -3.1768 C   0  0  2  0  0  0  0  0  0  0  0  0
    6.7298   -6.6599   -2.1598 N   0  3  0  0  0  0  0  0  0  0  0  0
    5.6201   -6.0745   -4.2674 C   0  0  1  0  0  0  0  0  0  0  0  0
    5.1158   -4.9308   -4.9387 O   0  0  0  0  0  0  0  0  0  0  0  0
    6.2650   -7.0179   -5.2792 C   0  0  2  0  0  0  0  0  0  0  0  0
    6.4866   -8.2909   -4.6834 O   0  0  0  0  0  0  0  0  0  0  0  0
    8.2282   -7.3235   -6.8144 C   0  0  0  0  0  0  0  0  0  0  0  0
    8.1458   -6.7050   -8.1242 N   0  3  0  0  0  0  0  0  0  0  0  0
    8.3023    3.0596    3.0516 C   0  0  1  0  0  0  0  0  0  0  0  0
    9.2258    1.9554    2.9523 O   0  0  0  0  0  0  0  0  0  0  0  0
    8.5731    0.6763    2.7818 C   0  0  2  0  0  0  0  0  0  0  0  0
    7.8737    0.5875    1.5159 O   0  0  0  0  0  0  0  0  0  0  0  0
    7.6291    0.3905    3.9562 C   0  0  2  0  0  0  0  0  0  0  0  0
    6.8280   -0.7858    3.6729 N   0  3  0  0  0  0  0  0  0  0  0  0
    6.7052    1.5700    4.2384 C   0  0  1  0  0  0  0  0  0  0  0  0
    6.0224    1.3596    5.4647 O   0  0  0  0  0  0  0  0  0  0  0  0
    7.4335    2.9042    4.2891 C   0  0  2  0  0  0  0  0  0  0  0  0
    6.5014    3.9728    4.3661 O   0  0  0  0  0  0  0  0  0  0  0  0
    9.0696    4.3718    3.1862 C   0  0  0  0  0  0  0  0  0  0  0  0
    9.2384    5.0039    1.8906 N   0  3  0  0  0  0  0  0  0  0  0  0
    9.3911    0.2196   -2.4416 C   0  0  2  0  0  0  0  0  0  0  0  0
   10.3679    0.5599   -1.3334 C   0  0  0  0  0  0  0  0  0  0  0  0
    9.6261    1.0422   -0.1005 C   0  0  1  0  0  0  0  0  0  0  0  0
    8.6791   -0.0150    0.4690 C   0  0  2  0  0  0  0  0  0  0  0  0
    7.7628   -0.5900   -0.6358 C   0  0  1  0  0  0  0  0  0  0  0  0
    8.4237   -0.8673   -1.9925 C   0  0  1  0  0  0  0  0  0  0  0  0
   10.1245   -0.2325   -3.6085 N   0  3  0  0  0  0  0  0  0  0  0  0
   10.5918    1.4533    0.8998 N   0  3  0  0  0  0  0  0  0  0  0  0
    7.0547   -1.7686   -0.1791 O   0  0  0  0  0  0  0  0  0  0  0  0
    7.4222   -1.0591   -2.9862 O   0  0  0  0  0  0  0  0  0  0  0  0
  1  2  1  0  0  0  0
  3  2  1  6  0  0  0
  3  4  1  0  0  0  0
  3  5  1  0  0  0  0
  4  8  1  0  0  0  0
  5  6  1  0  0  0  0
  5 12  1  1  0  0  0
  6  7  1  1  0  0  0
  6  8  1  0  0  0  0
  8 41  1  6  0  0  0
  9 10  1  0  0  0  0
  9 17  1  0  0  0  0
  9 19  1  6  0  0  0
 10 11  1  0  0  0  0
 11 12  1  1  0  0  0
 11 13  1  0  0  0  0
 13 14  1  1  0  0  0
 13 15  1  0  0  0  0
 15 16  1  6  0  0  0
 15 17  1  0  0  0  0
 17 18  1  1  0  0  0
 19 20  1  0  0  0  0
 21 22  1  0  0  0  0
 21 29  1  0  0  0  0
 21 31  1  1  0  0  0
 22 23  1  0  0  0  0
 23 24  1  6  0  0  0
 23 25  1  0  0  0  0
 25 26  1  6  0  0  0
 25 27  1  0  0  0  0
 27 28  1  1  0  0  0
 27 29  1  0  0  0  0
 29 30  1  6  0  0  0
 31 32  1  0  0  0  0
 33 34  1  0  0  0  0
 33 38  1  0  0  0  0
 33 39  1  6  0  0  0
 34 35  1  0  0  0  0
 35 36  1  0  0  0  0
 35 40  1  1  0  0  0
 36 24  1  1  0  0  0
 36 37  1  0  0  0  0
 37 38  1  0  0  0  0
 37 41  1  1  0  0  0
 38 42  1  6  0  0  0
M  CHG  6  14   1  20   1  26   1  32   1  39   1  40   1
M  END
>  <CHROM.1>
-170.54110116,68.66449810,-163.18496481,174.86745802,1.76386849,-129.75760370
166.21156878,178.35677421,68.99016097,-171.13554245,-177.32835733,94.96863314
93.77407122,-80.62788411,138.03557009,-53.57364752,-178.15592086,-34.32571250
-155.45956919,-63.37505071,-63.60905133,-56.59836708,8.16619619,-1.89269679
-0.80324889,-1.65191960,0.80342951,0.80262560

>  <Name>


>  <RI>
0

>  <Rbt.Current_Directory>
/home/itssahil/PROJECTS/Mol_Feturizer/New_Systems/rnas/1qd3

>  <Rbt.Executable>
rbdock ($Id: //depot/dev/client3/rdock/2013.1/src/exe/rbdock.cxx#4 $)

>  <Rbt.Library>
libRbt.so (2013.1, Build901 2013/11/27)

>  <Rbt.Parameter_File>
/export/apps/rDock/src/rDock_2013.1_src/data/scripts/dock_solv.prm

>  <Rbt.Receptor>
prm/pocket_docking_2.prm

>  <SCORE>
-62.8791

>  <SCORE.INTER>
-49.1657

>  <SCORE.INTER.CONST>
1

>  <SCORE.INTER.POLAR>
-7.20902

>  <SCORE.INTER.ROT>
9

>  <SCORE.INTER.SOLV>
44.5914

>  <SCORE.INTER.VDW>
-33.2109

>  <SCORE.INTER.norm>
-1.17061

>  <SCORE.INTRA>
-13.8403

>  <SCORE.INTRA.DIHEDRAL>
-6.87486

>  <SCORE.INTRA.DIHEDRAL.0>
40.6252

>  <SCORE.INTRA.POLAR>
-0.750771

>  <SCORE.INTRA.POLAR.0>
-1.20161

>  <SCORE.INTRA.REPUL>
-0.115675

>  <SCORE.INTRA.REPUL.0>
0.115675

>  <SCORE.INTRA.SOLV>
-3.41959

>  <SCORE.INTRA.SOLV.lig_0>
-154.895

>  <SCORE.INTRA.VDW>
-5.56207

>  <SCORE.INTRA.VDW.0>
2.2925

>  <SCORE.INTRA.norm>
-0.329531

>  <SCORE.RESTR>
0.126868

>  <SCORE.RESTR.CAVITY>
0.126868

>  <SCORE.RESTR.norm>
0.00302068

>  <SCORE.SYSTEM>
0

>  <SCORE.SYSTEM.CONST>
0

>  <SCORE.SYSTEM.DIHEDRAL>
0

>  <SCORE.SYSTEM.SOLV>
0

>  <SCORE.SYSTEM.norm>
0

>  <SCORE.heavy>
42

>  <SCORE.norm>
-1.49712

>  <RMSD>
0.832

$$$$

 OpenBabel11021811413D
libRbt.so/2013.1/901 2013/11/27
 42 45  0  0  0  0  0  0  0  0999 V2000
   11.5244   -3.5249   -2.4619 O   0  0  0  0  0  0  0  0  0  0  0  0
   10.8484   -2.6401   -1.5800 C   0  0  0  0  0  0  0  0  0  0  0  0
    9.7188   -3.3836   -0.8661 C   0  0  1  0  0  0  0  0  0  0  0  0
    9.1399   -2.5771    0.1827 O   0  0  0  0  0  0  0  0  0  0  0  0
    8.5667   -3.7560   -1.7845 C   0  0  2  0  0  0  0  0  0  0  0  0
    7.4636   -3.9871   -0.7654 C   0  0  1  0  0  0  0  0  0  0  0  0
    7.6432   -5.2535   -0.1411 O   0  0  0  0  0  0  0  0  0  0  0  0
    7.7192   -2.8589    0.2547 C   0  0  2  0  0  0  0  0  0  0  0  0
    7.7768   -6.0783   -5.8502 C   0  0  2  0  0  0  0  0  0  0  0  0
    8.5903   -5.9566   -4.6734 O   0  0  0  0  0  0  0  0  0  0  0  0
    7.9944   -5.0850   -3.6956 C   0  0  2  0  0  0  0  0  0  0  0  0
    8.8628   -4.9388   -2.5528 O   0  0  0  0  0  0  0  0  0  0  0  0
    6.6202   -5.6199   -3.2574 C   0  0  2  0  0  0  0  0  0  0  0  0
    6.7703   -6.7367   -2.3427 N   0  3  0  0  0  0  0  0  0  0  0  0
    5.7239   -6.0098   -4.4387 C   0  0  1  0  0  0  0  0  0  0  0  0
    5.1733   -4.8380   -5.0188 O   0  0  0  0  0  0  0  0  0  0  0  0
    6.4808   -6.7997   -5.5029 C   0  0  2  0  0  0  0  0  0  0  0  0
    6.7624   -8.1104   -5.0261 O   0  0  0  0  0  0  0  0  0  0  0  0
    8.5315   -6.8170   -6.9518 C   0  0  0  0  0  0  0  0  0  0  0  0
    9.6335   -6.0095   -7.4401 N   0  3  0  0  0  0  0  0  0  0  0  0
    8.2051    3.5113    2.4159 C   0  0  1  0  0  0  0  0  0  0  0  0
    9.1781    2.4459    2.4290 O   0  0  0  0  0  0  0  0  0  0  0  0
    8.5846    1.1288    2.4951 C   0  0  2  0  0  0  0  0  0  0  0  0
    7.8235    0.8152    1.3026 O   0  0  0  0  0  0  0  0  0  0  0  0
    7.7215    0.9877    3.7548 C   0  0  2  0  0  0  0  0  0  0  0  0
    6.9685   -0.2517    3.7032 N   0  3  0  0  0  0  0  0  0  0  0  0
    6.7539    2.1556    3.9107 C   0  0  1  0  0  0  0  0  0  0  0  0
    6.1502    2.1081    5.1942 O   0  0  0  0  0  0  0  0  0  0  0  0
    7.4136    3.5118    3.7135 C   0  0  2  0  0  0  0  0  0  0  0  0
    6.4326    4.5382    3.6842 O   0  0  0  0  0  0  0  0  0  0  0  0
    8.9092    4.8604    2.3024 C   0  0  0  0  0  0  0  0  0  0  0  0
   10.1953    4.8272    2.9744 N   0  3  0  0  0  0  0  0  0  0  0  0
    9.2635   -0.0447   -2.6072 C   0  0  2  0  0  0  0  0  0  0  0  0
   10.2674    0.3936   -1.5592 C   0  0  0  0  0  0  0  0  0  0  0  0
    9.5592    1.0340   -0.3797 C   0  0  1  0  0  0  0  0  0  0  0  0
    8.5954    0.0751    0.3208 C   0  0  2  0  0  0  0  0  0  0  0  0
    7.6461   -0.5975   -0.6977 C   0  0  1  0  0  0  0  0  0  0  0  0
    8.2766   -1.0462   -2.0226 C   0  0  1  0  0  0  0  0  0  0  0  0
    9.9653   -0.6473   -3.7245 N   0  3  0  0  0  0  0  0  0  0  0  0
   10.5519    1.5305    0.5531 N   0  3  0  0  0  0  0  0  0  0  0  0
    6.9162   -1.6963   -0.0987 O   0  0  0  0  0  0  0  0  0  0  0  0
    7.2538   -1.3233   -2.9736 O   0  0  0  0  0  0  0  0  0  0  0  0
  1  2  1  0  0  0  0
  3  2  1  6  0  0  0
  3  4  1  0  0  0  0
  3  5  1  0  0  0  0
  4  8  1  0  0  0  0
  5  6  1  0  0  0  0
  5 12  1  1  0  0  0
  6  7  1  1  0  0  0
  6  8  1  0  0  0  0
  8 41  1  6  0  0  0
  9 10  1  0  0  0  0
  9 17  1  0  0  0  0
  9 19  1  6  0  0  0
 10 11  1  0  0  0  0
 11 12  1  1  0  0  0
 11 13  1  0  0  0  0
 13 14  1  1  0  0  0
 13 15  1  0  0  0  0
 15 16  1  6  0  0  0
 15 17  1  0  0  0  0
 17 18  1  1  0  0  0
 19 20  1  0  0  0  0
 21 22  1  0  0  0  0
 21 29  1  0  0  0  0
 21 31  1  1  0  0  0
 22 23  1  0  0  0  0
 23 24  1  6  0  0  0
 23 25  1  0  0  0  0
 25 26  1  6  0  0  0
 25 27  1  0  0  0  0
 27 28  1  1  0  0  0
 27 29  1  0  0  0  0
 29 30  1  6  0  0  0
 31 32  1  0  0  0  0
 33 34  1  0  0  0  0
 33 38  1  0  0  0  0
 33 39  1  6  0  0  0
 34 35  1  0  0  0  0
 35 36  1  0  0  0  0
 35 40  1  1  0  0  0
 36 24  1  1  0  0  0
 36 37  1  0  0  0  0
 37 38  1  0  0  0  0
 37 41  1  1  0  0  0
 38 42  1  6  0  0  0
M  CHG  6  14   1  20   1  26   1  32   1  39   1  40   1
M  END
>  <CHROM.1>
50.97711610,171.30214473,-162.44154211,63.29382398,11.72464958,-68.26552701
159.45787833,-46.66599655,59.37430632,-174.08267504,63.99562531,-32.65028629
94.68174498,-75.66812282,117.66253582,62.71995512,60.59745768,68.09745417
-74.51288802,-70.31107789,-68.50514629,41.30869262,8.20828840,-1.74429198
-0.93609232,-1.61421942,0.75043093,0.74859024

>  <Name>


>  <RI>
0

>  <Rbt.Current_Directory>
/home/itssahil/PROJECTS/Mol_Feturizer/New_Systems/rnas/1qd3

>  <Rbt.Executable>
rbdock ($Id: //depot/dev/client3/rdock/2013.1/src/exe/rbdock.cxx#4 $)

>  <Rbt.Library>
libRbt.so (2013.1, Build901 2013/11/27)

>  <Rbt.Parameter_File>
/export/apps/rDock/src/rDock_2013.1_src/data/scripts/dock_solv.prm

>  <Rbt.Receptor>
prm/pocket_docking_2.prm

>  <SCORE>
-59.144

>  <SCORE.INTER>
-46.4661

>  <SCORE.INTER.CONST>
1

>  <SCORE.INTER.POLAR>
-6.74883

>  <SCORE.INTER.ROT>
9

>  <SCORE.INTER.SOLV>
39.409

>  <SCORE.INTER.VDW>
-31.2177

>  <SCORE.INTER.norm>
-1.10634

>  <SCORE.INTRA>
-12.7912

>  <SCORE.INTRA.DIHEDRAL>
-13.5182

>  <SCORE.INTRA.DIHEDRAL.0>
40.6252

>  <SCORE.INTRA.POLAR>
-0.884923

>  <SCORE.INTRA.POLAR.0>
-1.20161

>  <SCORE.INTRA.REPUL>
-0.0480539

>  <SCORE.INTRA.REPUL.0>
0.115675

>  <SCORE.INTRA.SOLV>
-0.738801

>  <SCORE.INTRA.SOLV.lig_0>
-154.895

>  <SCORE.INTRA.VDW>
-2.41372

>  <SCORE.INTRA.VDW.0>
2.2925

>  <SCORE.INTRA.norm>
-0.304553

>  <SCORE.RESTR>
0.113341

>  <SCORE.RESTR.CAVITY>
0.113341

>  <SCORE.RESTR.norm>
0.00269859

>  <SCORE.SYSTEM>
0

>  <SCORE.SYSTEM.CONST>
0

>  <SCORE.SYSTEM.DIHEDRAL>
0

>  <SCORE.SYSTEM.SOLV>
0

>  <SCORE.SYSTEM.norm>
0

>  <SCORE.heavy>
42

>  <SCORE.norm>
-1.40819

>  <RMSD>
0.835

$$$$

 OpenBabel11021811413D
libRbt.so/2013.1/901 2013/11/27
 42 45  0  0  0  0  0  0  0  0999 V2000
   12.0514   -2.9413   -0.9272 O   0  0  0  0  0  0  0  0  0  0  0  0
   10.9059   -2.8840   -1.7653 C   0  0  0  0  0  0  0  0  0  0  0  0
    9.7208   -3.5539   -1.0687 C   0  0  1  0  0  0  0  0  0  0  0  0
    9.1122   -2.6704   -0.1020 O   0  0  0  0  0  0  0  0  0  0  0  0
    8.6070   -3.9526   -2.0226 C   0  0  2  0  0  0  0  0  0  0  0  0
    7.4472   -4.0932   -1.0510 C   0  0  1  0  0  0  0  0  0  0  0  0
    7.5589   -5.3231   -0.3435 O   0  0  0  0  0  0  0  0  0  0  0  0
    7.6823   -2.9115   -0.0881 C   0  0  2  0  0  0  0  0  0  0  0  0
    9.1191   -5.7096   -6.3124 C   0  0  2  0  0  0  0  0  0  0  0  0
    9.4893   -5.7571   -4.9259 O   0  0  0  0  0  0  0  0  0  0  0  0
    8.4804   -5.1763   -4.0800 C   0  0  2  0  0  0  0  0  0  0  0  0
    8.9083   -5.1873   -2.7022 O   0  0  0  0  0  0  0  0  0  0  0  0
    7.1467   -5.9280   -4.2310 C   0  0  2  0  0  0  0  0  0  0  0  0
    7.1842   -7.1915   -3.5179 N   0  3  0  0  0  0  0  0  0  0  0  0
    6.7450   -6.1487   -5.6941 C   0  0  1  0  0  0  0  0  0  0  0  0
    6.2188   -4.9428   -6.2250 O   0  0  0  0  0  0  0  0  0  0  0  0
    7.9181   -6.6156   -6.5518 C   0  0  2  0  0  0  0  0  0  0  0  0
    8.2484   -7.9619   -6.2312 O   0  0  0  0  0  0  0  0  0  0  0  0
   10.2934   -6.1191   -7.1968 C   0  0  0  0  0  0  0  0  0  0  0  0
   11.0724   -7.1609   -6.5544 N   0  3  0  0  0  0  0  0  0  0  0  0
    8.2724    3.3357    2.1551 C   0  0  1  0  0  0  0  0  0  0  0  0
    9.2056    2.2363    2.2032 O   0  0  0  0  0  0  0  0  0  0  0  0
    8.5635    0.9409    2.2358 C   0  0  2  0  0  0  0  0  0  0  0  0
    7.8437    0.6602    1.0100 O   0  0  0  0  0  0  0  0  0  0  0  0
    7.6427    0.8247    3.4566 C   0  0  2  0  0  0  0  0  0  0  0  0
    6.8492   -0.3868    3.3652 N   0  3  0  0  0  0  0  0  0  0  0  0
    6.7113    2.0257    3.5782 C   0  0  1  0  0  0  0  0  0  0  0  0
    6.0517    1.9938    4.8345 O   0  0  0  0  0  0  0  0  0  0  0  0
    7.4265    3.3584    3.4178 C   0  0  2  0  0  0  0  0  0  0  0  0
    6.4846    4.4192    3.3530 O   0  0  0  0  0  0  0  0  0  0  0  0
    9.0281    4.6594    2.0802 C   0  0  0  0  0  0  0  0  0  0  0  0
   10.1752    4.6475    2.9693 N   0  3  0  0  0  0  0  0  0  0  0  0
    9.4759   -0.0836   -2.8478 C   0  0  2  0  0  0  0  0  0  0  0  0
   10.4323    0.2712   -1.7264 C   0  0  0  0  0  0  0  0  0  0  0  0
    9.6801    0.8861   -0.5608 C   0  0  1  0  0  0  0  0  0  0  0  0
    8.6446   -0.0653    0.0405 C   0  0  2  0  0  0  0  0  0  0  0  0
    7.7327   -0.6573   -1.0589 C   0  0  1  0  0  0  0  0  0  0  0  0
    8.4226   -1.0717   -2.3654 C   0  0  1  0  0  0  0  0  0  0  0  0
   10.2195   -0.6632   -3.9500 N   0  3  0  0  0  0  0  0  0  0  0  0
   10.6341    1.3045    0.4478 N   0  3  0  0  0  0  0  0  0  0  0  0
    6.9316   -1.7528   -0.5521 O   0  0  0  0  0  0  0  0  0  0  0  0
    7.4473   -1.2691   -3.3837 O   0  0  0  0  0  0  0  0  0  0  0  0
  1  2  1  0  0  0  0
  3  2  1  6  0  0  0
  3  4  1  0  0  0  0
  3  5  1  0  0  0  0
  4  8  1  0  0  0  0
  5  6  1  0  0  0  0
  5 12  1  1  0  0  0
  6  7  1  1  0  0  0
  6  8  1  0  0  0  0
  8 41  1  6  0  0  0
  9 10  1  0  0  0  0
  9 17  1  0  0  0  0
  9 19  1  6  0  0  0
 10 11  1  0  0  0  0
 11 12  1  1  0  0  0
 11 13  1  0  0  0  0
 13 14  1  6  0  0  0
 13 15  1  0  0  0  0
 15 16  1  6  0  0  0
 15 17  1  0  0  0  0
 17 18  1  1  0  0  0
 19 20  1  0  0  0  0
 21 22  1  0  0  0  0
 21 29  1  0  0  0  0
 21 31  1  1  0  0  0
 22 23  1  0  0  0  0
 23 24  1  6  0  0  0
 23 25  1  0  0  0  0
 25 26  1  6  0  0  0
 25 27  1  0  0  0  0
 27 28  1  1  0  0  0
 27 29  1  0  0  0  0
 29 30  1  6  0  0  0
 31 32  1  0  0  0  0
 33 34  1  0  0  0  0
 33 38  1  0  0  0  0
 33 39  1  6  0  0  0
 34 35  1  0  0  0  0
 35 36  1  0  0  0  0
 35 40  1  1  0  0  0
 36 24  1  1  0  0  0
 36 37  1  0  0  0  0
 37 38  1  0  0  0  0
 37 41  1  1  0  0  0
 38 42  1  6  0  0  0
M  CHG  6  14   1  20   1  26   1  32   1  39   1  40   1
M  END
>  <CHROM.1>
-56.29365241,79.91297566,-141.69345953,68.27124259,6.04169432,35.62669761
137.25991290,-71.81745639,72.19858225,-61.38129130,-173.24856922,-41.40714059
92.83002897,-73.31224957,-22.43031292,-47.20779826,-37.23925126,42.08500764
43.16205337,-66.67766930,-62.90728241,-175.71184764,8.53611530,-1.84439167
-1.24869976,-1.51144315,0.70668968,0.70280799

>  <Name>


>  <RI>
0

>  <Rbt.Current_Directory>
/home/itssahil/PROJECTS/Mol_Feturizer/New_Systems/rnas/1qd3

>  <Rbt.Executable>
rbdock ($Id: //depot/dev/client3/rdock/2013.1/src/exe/rbdock.cxx#4 $)

>  <Rbt.Library>
libRbt.so (2013.1, Build901 2013/11/27)

>  <Rbt.Parameter_File>
/export/apps/rDock/src/rDock_2013.1_src/data/scripts/dock_solv.prm

>  <Rbt.Receptor>
prm/pocket_docking_2.prm

>  <SCORE>
-45.9371

>  <SCORE.INTER>
-41.7036

>  <SCORE.INTER.CONST>
1

>  <SCORE.INTER.POLAR>
-6.26371

>  <SCORE.INTER.ROT>
9

>  <SCORE.INTER.SOLV>
36.462

>  <SCORE.INTER.VDW>
-28.6774

>  <SCORE.INTER.norm>
-0.992944

>  <SCORE.INTRA>
-4.3534

>  <SCORE.INTRA.DIHEDRAL>
-2.61418

>  <SCORE.INTRA.DIHEDRAL.0>
40.6252

>  <SCORE.INTRA.POLAR>
-0.358217

>  <SCORE.INTRA.POLAR.0>
-1.20161

>  <SCORE.INTRA.REPUL>
-0.0557954

>  <SCORE.INTRA.REPUL.0>
0.115675

>  <SCORE.INTRA.SOLV>
-1.66778

>  <SCORE.INTRA.SOLV.lig_0>
-154.895

>  <SCORE.INTRA.VDW>
-0.715509

>  <SCORE.INTRA.VDW.0>
2.2925

>  <SCORE.INTRA.norm>
-0.103652

>  <SCORE.RESTR>
0.119938

>  <SCORE.RESTR.CAVITY>
0.119938

>  <SCORE.RESTR.norm>
0.00285566

>  <SCORE.SYSTEM>
0

>  <SCORE.SYSTEM.CONST>
0

>  <SCORE.SYSTEM.DIHEDRAL>
0

>  <SCORE.SYSTEM.SOLV>
0

>  <SCORE.SYSTEM.norm>
0

>  <SCORE.heavy>
42

>  <SCORE.norm>
-1.09374

>  <RMSD>
0.909

$$$$

 OpenBabel11021811413D
libRbt.so/2013.1/901 2013/11/27
 42 45  0  0  0  0  0  0  0  0999 V2000
   11.5808   -2.9715   -2.6046 O   0  0  0  0  0  0  0  0  0  0  0  0
   10.2553   -3.3417   -2.9564 C   0  0  0  0  0  0  0  0  0  0  0  0
    9.5082   -3.8321   -1.7156 C   0  0  1  0  0  0  0  0  0  0  0  0
    9.4010   -2.7903   -0.7213 O   0  0  0  0  0  0  0  0  0  0  0  0
    8.0836   -4.2751   -2.0049 C   0  0  2  0  0  0  0  0  0  0  0  0
    7.4839   -4.2078   -0.6104 C   0  0  1  0  0  0  0  0  0  0  0  0
    7.8988   -5.3394    0.1467 O   0  0  0  0  0  0  0  0  0  0  0  0
    8.1294   -2.9292   -0.0383 C   0  0  2  0  0  0  0  0  0  0  0  0
    7.6073   -6.3078   -6.1161 C   0  0  2  0  0  0  0  0  0  0  0  0
    8.2154   -6.2966   -4.8156 O   0  0  0  0  0  0  0  0  0  0  0  0
    7.3803   -5.6516   -3.8371 C   0  0  2  0  0  0  0  0  0  0  0  0
    8.0445   -5.6057   -2.5571 O   0  0  0  0  0  0  0  0  0  0  0  0
    6.0300   -6.3778   -3.7125 C   0  0  2  0  0  0  0  0  0  0  0  0
    6.1740   -7.6057   -2.9523 N   0  3  0  0  0  0  0  0  0  0  0  0
    5.3732   -6.6597   -5.0690 C   0  0  1  0  0  0  0  0  0  0  0  0
    4.7795   -5.4689   -5.5613 O   0  0  0  0  0  0  0  0  0  0  0  0
    6.3695   -7.1955   -6.0937 C   0  0  2  0  0  0  0  0  0  0  0  0
    6.7312   -8.5321   -5.7664 O   0  0  0  0  0  0  0  0  0  0  0  0
    8.6009   -6.7875   -7.1704 C   0  0  0  0  0  0  0  0  0  0  0  0
    9.7574   -5.9126   -7.2118 N   0  3  0  0  0  0  0  0  0  0  0  0
    8.2234    3.3951    2.3604 C   0  0  1  0  0  0  0  0  0  0  0  0
    9.1975    2.3360    2.4678 O   0  0  0  0  0  0  0  0  0  0  0  0
    8.6046    1.0214    2.5762 C   0  0  2  0  0  0  0  0  0  0  0  0
    7.8943    0.6444    1.3708 O   0  0  0  0  0  0  0  0  0  0  0  0
    7.6905    0.9405    3.8048 C   0  0  2  0  0  0  0  0  0  0  0  0
    6.9431   -0.3032    3.7852 N   0  3  0  0  0  0  0  0  0  0  0  0
    6.7147    2.1106    3.8611 C   0  0  1  0  0  0  0  0  0  0  0  0
    6.0584    2.1256    5.1194 O   0  0  0  0  0  0  0  0  0  0  0  0
    7.3789    3.4579    3.6226 C   0  0  2  0  0  0  0  0  0  0  0  0
    6.3976    4.4772    3.5008 O   0  0  0  0  0  0  0  0  0  0  0  0
    8.9286    4.7397    2.2076 C   0  0  0  0  0  0  0  0  0  0  0  0
   10.1248    4.7891    3.0282 N   0  3  0  0  0  0  0  0  0  0  0  0
    9.5547    0.2588   -2.5272 C   0  0  2  0  0  0  0  0  0  0  0  0
   10.4766    0.6772   -1.3989 C   0  0  0  0  0  0  0  0  0  0  0  0
    9.6718    1.1503   -0.2025 C   0  0  1  0  0  0  0  0  0  0  0  0
    8.7629    0.0593    0.3654 C   0  0  2  0  0  0  0  0  0  0  0  0
    7.9133   -0.5901   -0.7514 C   0  0  1  0  0  0  0  0  0  0  0  0
    8.6308   -0.8659   -2.0794 C   0  0  1  0  0  0  0  0  0  0  0  0
   10.3475   -0.1830   -3.6586 N   0  3  0  0  0  0  0  0  0  0  0  0
   10.5825    1.6361    0.8158 N   0  3  0  0  0  0  0  0  0  0  0  0
    7.2529   -1.7926   -0.2858 O   0  0  0  0  0  0  0  0  0  0  0  0
    7.6730   -1.1346   -3.0980 O   0  0  0  0  0  0  0  0  0  0  0  0
  1  2  1  0  0  0  0
  3  2  1  6  0  0  0
  3  4  1  0  0  0  0
  3  5  1  0  0  0  0
  4  8  1  0  0  0  0
  5  6  1  0  0  0  0
  5 12  1  1  0  0  0
  6  7  1  1  0  0  0
  6  8  1  0  0  0  0
  8 41  1  6  0  0  0
  9 10  1  0  0  0  0
  9 17  1  0  0  0  0
  9 19  1  6  0  0  0
 10 11  1  0  0  0  0
 11 12  1  1  0  0  0
 11 13  1  0  0  0  0
 13 14  1  6  0  0  0
 13 15  1  0  0  0  0
 15 16  1  6  0  0  0
 15 17  1  0  0  0  0
 17 18  1  1  0  0  0
 19 20  1  0  0  0  0
 21 22  1  0  0  0  0
 21 29  1  0  0  0  0
 21 31  1  1  0  0  0
 22 23  1  0  0  0  0
 23 24  1  6  0  0  0
 23 25  1  0  0  0  0
 25 26  1  6  0  0  0
 25 27  1  0  0  0  0
 27 28  1  1  0  0  0
 27 29  1  0  0  0  0
 29 30  1  6  0  0  0
 31 32  1  0  0  0  0
 33 34  1  0  0  0  0
 33 38  1  0  0  0  0
 33 39  1  6  0  0  0
 34 35  1  0  0  0  0
 35 36  1  0  0  0  0
 35 40  1  1  0  0  0
 36 24  1  1  0  0  0
 36 37  1  0  0  0  0
 37 38  1  0  0  0  0
 37 41  1  1  0  0  0
 38 42  1  6  0  0  0
M  CHG  6  14   1  20   1  26   1  32   1  39   1  40   1
M  END
>  <CHROM.1>
-176.91112322,61.93867160,-123.09604618,60.16011485,-19.54344375,-59.91716774
127.32332566,177.79415891,-69.58384296,-50.17160056,-167.50891059,-37.75950215
84.88329945,-70.28449369,136.41344774,177.05861589,58.12695297,37.70131985
-160.12127616,146.65753927,-70.35795695,48.95792773,8.16665038,-1.89146160
-1.10717358,-1.65452138,0.74088454,0.76739874

>  <Name>


>  <RI>
0

>  <Rbt.Current_Directory>
/home/itssahil/PROJECTS/Mol_Feturizer/New_Systems/rnas/1qd3

>  <Rbt.Executable>
rbdock ($Id: //depot/dev/client3/rdock/2013.1/src/exe/rbdock.cxx#4 $)

>  <Rbt.Library>
libRbt.so (2013.1, Build901 2013/11/27)

>  <Rbt.Parameter_File>
/export/apps/rDock/src/rDock_2013.1_src/data/scripts/dock_solv.prm

>  <Rbt.Receptor>
prm/pocket_docking_2.prm

>  <SCORE>
-54.6625

>  <SCORE.INTER>
-53.0315

>  <SCORE.INTER.CONST>
1

>  <SCORE.INTER.POLAR>
-8.6985

>  <SCORE.INTER.ROT>
9

>  <SCORE.INTER.SOLV>
40.433

>  <SCORE.INTER.VDW>
-29.437

>  <SCORE.INTER.norm>
-1.26266

>  <SCORE.INTRA>
-1.80257

>  <SCORE.INTRA.DIHEDRAL>
-3.52013

>  <SCORE.INTRA.DIHEDRAL.0>
40.6252

>  <SCORE.INTRA.POLAR>
0.438317

>  <SCORE.INTRA.POLAR.0>
-1.20161

>  <SCORE.INTRA.REPUL>
-0.112494

>  <SCORE.INTRA.REPUL.0>
0.115675

>  <SCORE.INTRA.SOLV>
-2.65938

>  <SCORE.INTRA.SOLV.lig_0>
-154.895

>  <SCORE.INTRA.VDW>
0.359377

>  <SCORE.INTRA.VDW.0>
2.2925

>  <SCORE.INTRA.norm>
-0.0429183

>  <SCORE.RESTR>
0.171616

>  <SCORE.RESTR.CAVITY>
0.171616

>  <SCORE.RESTR.norm>
0.00408611

>  <SCORE.SYSTEM>
0

>  <SCORE.SYSTEM.CONST>
0

>  <SCORE.SYSTEM.DIHEDRAL>
0

>  <SCORE.SYSTEM.SOLV>
0

>  <SCORE.SYSTEM.norm>
0

>  <SCORE.heavy>
42

>  <SCORE.norm>
-1.30149

>  <RMSD>
0.959

$$$$

 OpenBabel11021811413D
libRbt.so/2013.1/901 2013/11/27
 42 45  0  0  0  0  0  0  0  0999 V2000
   10.9334   -3.1477   -3.4098 O   0  0  0  0  0  0  0  0  0  0  0  0
    9.5926   -3.5400   -3.6670 C   0  0  0  0  0  0  0  0  0  0  0  0
    8.9483   -4.0564   -2.3800 C   0  0  1  0  0  0  0  0  0  0  0  0
    9.0648   -3.0923   -1.3110 O   0  0  0  0  0  0  0  0  0  0  0  0
    7.4619   -4.3395   -2.5208 C   0  0  2  0  0  0  0  0  0  0  0  0
    7.0383   -4.3286   -1.0616 C   0  0  1  0  0  0  0  0  0  0  0  0
    7.4201   -5.5511   -0.4408 O   0  0  0  0  0  0  0  0  0  0  0  0
    7.8735   -3.1661   -0.4874 C   0  0  2  0  0  0  0  0  0  0  0  0
    7.9409   -5.8860   -6.7258 C   0  0  2  0  0  0  0  0  0  0  0  0
    8.1044   -6.0452   -5.3083 O   0  0  0  0  0  0  0  0  0  0  0  0
    6.9997   -5.4876   -4.5737 C   0  0  2  0  0  0  0  0  0  0  0  0
    7.2227   -5.6120   -3.1537 O   0  0  0  0  0  0  0  0  0  0  0  0
    5.6820   -6.1755   -4.9698 C   0  0  2  0  0  0  0  0  0  0  0  0
    5.5809   -7.4867   -4.3558 N   0  3  0  0  0  0  0  0  0  0  0  0
    5.4911   -6.2770   -6.4877 C   0  0  1  0  0  0  0  0  0  0  0  0
    5.0808   -5.0175   -6.9959 O   0  0  0  0  0  0  0  0  0  0  0  0
    6.7629   -6.7265   -7.2018 C   0  0  2  0  0  0  0  0  0  0  0  0
    7.0061   -8.1036   -6.9396 O   0  0  0  0  0  0  0  0  0  0  0  0
    9.2194   -6.2764   -7.4619 C   0  0  0  0  0  0  0  0  0  0  0  0
    9.6811   -7.5787   -7.0195 N   0  3  0  0  0  0  0  0  0  0  0  0
    8.3666    2.7152    2.9341 C   0  0  1  0  0  0  0  0  0  0  0  0
    9.2306    1.5639    2.8350 O   0  0  0  0  0  0  0  0  0  0  0  0
    8.5165    0.3318    2.5831 C   0  0  2  0  0  0  0  0  0  0  0  0
    7.8771    0.3304    1.2827 O   0  0  0  0  0  0  0  0  0  0  0  0
    7.5008    0.0580    3.6989 C   0  0  2  0  0  0  0  0  0  0  0  0
    6.6501   -1.0587    3.3314 N   0  3  0  0  0  0  0  0  0  0  0  0
    6.6314    1.2777    3.9835 C   0  0  1  0  0  0  0  0  0  0  0  0
    5.8778    1.0620    5.1666 O   0  0  0  0  0  0  0  0  0  0  0  0
    7.4300    2.5648    4.1218 C   0  0  2  0  0  0  0  0  0  0  0  0
    6.5565    3.6819    4.1967 O   0  0  0  0  0  0  0  0  0  0  0  0
    9.1985    3.9749    3.1571 C   0  0  0  0  0  0  0  0  0  0  0  0
    8.3470    5.1486    3.2221 N   0  3  0  0  0  0  0  0  0  0  0  0
    9.5499    0.1117   -2.6228 C   0  0  2  0  0  0  0  0  0  0  0  0
   10.4852    0.3879   -1.4622 C   0  0  0  0  0  0  0  0  0  0  0  0
    9.7004    0.8276   -0.2401 C   0  0  1  0  0  0  0  0  0  0  0  0
    8.7162   -0.2384    0.2436 C   0  0  2  0  0  0  0  0  0  0  0  0
    7.8379   -0.7501   -0.9216 C   0  0  1  0  0  0  0  0  0  0  0  0
    8.5499   -0.9783   -2.2615 C   0  0  1  0  0  0  0  0  0  0  0  0
   10.3242   -0.3006   -3.7780 N   0  3  0  0  0  0  0  0  0  0  0  0
   10.6300    1.1794    0.8155 N   0  3  0  0  0  0  0  0  0  0  0  0
    7.0954   -1.9362   -0.5464 O   0  0  0  0  0  0  0  0  0  0  0  0
    7.5874   -1.1109   -3.3022 O   0  0  0  0  0  0  0  0  0  0  0  0
  1  2  1  0  0  0  0
  3  2  1  6  0  0  0
  3  4  1  0  0  0  0
  3  5  1  0  0  0  0
  4  8  1  0  0  0  0
  5  6  1  0  0  0  0
  5 12  1  1  0  0  0
  6  7  1  1  0  0  0
  6  8  1  0  0  0  0
  8 41  1  6  0  0  0
  9 10  1  0  0  0  0
  9 17  1  0  0  0  0
  9 19  1  6  0  0  0
 10 11  1  0  0  0  0
 11 12  1  1  0  0  0
 11 13  1  0  0  0  0
 13 14  1  1  0  0  0
 13 15  1  0  0  0  0
 15 16  1  6  0  0  0
 15 17  1  0  0  0  0
 17 18  1  1  0  0  0
 19 20  1  0  0  0  0
 21 22  1  0  0  0  0
 21 29  1  0  0  0  0
 21 31  1  1  0  0  0
 22 23  1  0  0  0  0
 23 24  1  6  0  0  0
 23 25  1  0  0  0  0
 25 26  1  6  0  0  0
 25 27  1  0  0  0  0
 27 28  1  1  0  0  0
 27 29  1  0  0  0  0
 29 30  1  6  0  0  0
 31 32  1  0  0  0  0
 33 34  1  0  0  0  0
 33 38  1  0  0  0  0
 33 39  1  6  0  0  0
 34 35  1  0  0  0  0
 35 36  1  0  0  0  0
 35 40  1  1  0  0  0
 36 24  1  1  0  0  0
 36 37  1  0  0  0  0
 37 38  1  0  0  0  0
 37 41  1  1  0  0  0
 38 42  1  6  0  0  0
M  CHG  6  14   1  20   1  26   1  32   1  39   1  40   1
M  END
>  <CHROM.1>
51.87768523,53.80979562,-95.74285913,-176.93230765,-23.44811029,50.32379145
110.63980176,-48.58522182,169.45896139,42.60383657,166.12667714,178.41772424
91.85997958,-81.62813957,-158.24796967,43.73769608,68.56140281,-61.27664276
-49.72544583,-58.27933667,-75.42896272,-51.04981694,7.99516419,-2.13450615
-1.42841137,-1.63461130,0.75290333,0.85650579

>  <Name>


>  <RI>
0

>  <Rbt.Current_Directory>
/home/itssahil/PROJECTS/Mol_Feturizer/New_Systems/rnas/1qd3

>  <Rbt.Executable>
rbdock ($Id: //depot/dev/client3/rdock/2013.1/src/exe/rbdock.cxx#4 $)

>  <Rbt.Library>
libRbt.so (2013.1, Build901 2013/11/27)

>  <Rbt.Parameter_File>
/export/apps/rDock/src/rDock_2013.1_src/data/scripts/dock_solv.prm

>  <Rbt.Receptor>
prm/pocket_docking_2.prm

>  <SCORE>
-59.2004

>  <SCORE.INTER>
-49.9028

>  <SCORE.INTER.CONST>
1

>  <SCORE.INTER.POLAR>
-8.47089

>  <SCORE.INTER.ROT>
9

>  <SCORE.INTER.SOLV>
45.7267

>  <SCORE.INTER.VDW>
-29.8744

>  <SCORE.INTER.norm>
-1.18816

>  <SCORE.INTRA>
-10.6937

>  <SCORE.INTRA.DIHEDRAL>
-9.34928

>  <SCORE.INTRA.DIHEDRAL.0>
40.6252

>  <SCORE.INTRA.POLAR>
-1.47607

>  <SCORE.INTRA.POLAR.0>
-1.20161

>  <SCORE.INTRA.REPUL>
-0.075244

>  <SCORE.INTRA.REPUL.0>
0.115675

>  <SCORE.INTRA.SOLV>
-0.0275327

>  <SCORE.INTRA.SOLV.lig_0>
-154.895

>  <SCORE.INTRA.VDW>
-0.610427

>  <SCORE.INTRA.VDW.0>
2.2925

>  <SCORE.INTRA.norm>
-0.254612

>  <SCORE.RESTR>
1.3961

>  <SCORE.RESTR.CAVITY>
1.3961

>  <SCORE.RESTR.norm>
0.0332405

>  <SCORE.SYSTEM>
0

>  <SCORE.SYSTEM.CONST>
0

>  <SCORE.SYSTEM.DIHEDRAL>
0

>  <SCORE.SYSTEM.SOLV>
0

>  <SCORE.SYSTEM.norm>
0

>  <SCORE.heavy>
42

>  <SCORE.norm>
-1.40953

>  <RMSD>
1.170

$$$$

 OpenBabel11021811413D
libRbt.so/2013.1/901 2013/11/27
 42 45  0  0  0  0  0  0  0  0999 V2000
    9.4702   -3.9790   -4.2777 O   0  0  0  0  0  0  0  0  0  0  0  0
   10.1872   -3.5689   -3.1222 C   0  0  0  0  0  0  0  0  0  0  0  0
    9.4357   -4.0063   -1.8643 C   0  0  1  0  0  0  0  0  0  0  0  0
    9.3689   -2.9383   -0.8945 O   0  0  0  0  0  0  0  0  0  0  0  0
    7.9958   -4.4117   -2.1321 C   0  0  2  0  0  0  0  0  0  0  0  0
    7.4100   -4.2927   -0.7350 C   0  0  1  0  0  0  0  0  0  0  0  0
    7.7962   -5.4183    0.0458 O   0  0  0  0  0  0  0  0  0  0  0  0
    8.0993   -3.0215   -0.1987 C   0  0  2  0  0  0  0  0  0  0  0  0
    7.3709   -6.4068   -6.2059 C   0  0  2  0  0  0  0  0  0  0  0  0
    8.0309   -6.3840   -4.9311 O   0  0  0  0  0  0  0  0  0  0  0  0
    7.1983   -5.8146   -3.9047 C   0  0  2  0  0  0  0  0  0  0  0  0
    7.9111   -5.7532   -2.6518 O   0  0  0  0  0  0  0  0  0  0  0  0
    5.9028   -6.6282   -3.7430 C   0  0  2  0  0  0  0  0  0  0  0  0
    6.1557   -7.8601   -3.0185 N   0  3  0  0  0  0  0  0  0  0  0  0
    5.2092   -6.9230   -5.0782 C   0  0  1  0  0  0  0  0  0  0  0  0
    4.5215   -5.7625   -5.5179 O   0  0  0  0  0  0  0  0  0  0  0  0
    6.1936   -7.3722   -6.1546 C   0  0  2  0  0  0  0  0  0  0  0  0
    6.6523   -8.6895   -5.8739 O   0  0  0  0  0  0  0  0  0  0  0  0
    8.3479   -6.7996   -7.3104 C   0  0  0  0  0  0  0  0  0  0  0  0
    9.5266   -5.9547   -7.2683 N   0  3  0  0  0  0  0  0  0  0  0  0
    8.2767    3.3267    2.1182 C   0  0  1  0  0  0  0  0  0  0  0  0
    9.2272    2.2531    2.2793 O   0  0  0  0  0  0  0  0  0  0  0  0
    8.6062    0.9548    2.4215 C   0  0  2  0  0  0  0  0  0  0  0  0
    7.9098    0.5506    1.2168 O   0  0  0  0  0  0  0  0  0  0  0  0
    7.6691    0.9341    3.6352 C   0  0  2  0  0  0  0  0  0  0  0  0
    6.8973   -0.2947    3.6442 N   0  3  0  0  0  0  0  0  0  0  0  0
    6.7162    2.1243    3.6338 C   0  0  1  0  0  0  0  0  0  0  0  0
    6.0383    2.1953    4.8786 O   0  0  0  0  0  0  0  0  0  0  0  0
    7.4115    3.4494    3.3618 C   0  0  2  0  0  0  0  0  0  0  0  0
    6.4533    4.4828    3.1875 O   0  0  0  0  0  0  0  0  0  0  0  0
    9.0114    4.6513    1.9327 C   0  0  0  0  0  0  0  0  0  0  0  0
    9.1434    5.3477    3.1993 N   0  3  0  0  0  0  0  0  0  0  0  0
    9.6641    0.1408   -2.6373 C   0  0  2  0  0  0  0  0  0  0  0  0
   10.5651    0.5333   -1.4831 C   0  0  0  0  0  0  0  0  0  0  0  0
    9.7399    1.0206   -0.3065 C   0  0  1  0  0  0  0  0  0  0  0  0
    8.7910   -0.0509    0.2323 C   0  0  2  0  0  0  0  0  0  0  0  0
    7.9566   -0.6761   -0.9095 C   0  0  1  0  0  0  0  0  0  0  0  0
    8.7027   -0.9635   -2.2192 C   0  0  1  0  0  0  0  0  0  0  0  0
   10.4763   -0.3151   -3.7492 N   0  3  0  0  0  0  0  0  0  0  0  0
   10.6342    1.4812    0.7378 N   0  3  0  0  0  0  0  0  0  0  0  0
    7.2562   -1.8644   -0.4668 O   0  0  0  0  0  0  0  0  0  0  0  0
    7.7663   -1.2059   -3.2639 O   0  0  0  0  0  0  0  0  0  0  0  0
  1  2  1  0  0  0  0
  3  2  1  6  0  0  0
  3  4  1  0  0  0  0
  3  5  1  0  0  0  0
  4  8  1  0  0  0  0
  5  6  1  0  0  0  0
  5 12  1  1  0  0  0
  6  7  1  1  0  0  0
  6  8  1  0  0  0  0
  8 41  1  6  0  0  0
  9 10  1  0  0  0  0
  9 17  1  0  0  0  0
  9 19  1  6  0  0  0
 10 11  1  0  0  0  0
 11 12  1  1  0  0  0
 11 13  1  0  0  0  0
 13 14  1  6  0  0  0
 13 15  1  0  0  0  0
 15 16  1  6  0  0  0
 15 17  1  0  0  0  0
 17 18  1  1  0  0  0
 19 20  1  0  0  0  0
 21 22  1  0  0  0  0
 21 29  1  0  0  0  0
 21 31  1  1  0  0  0
 22 23  1  0  0  0  0
 23 24  1  6  0  0  0
 23 25  1  0  0  0  0
 25 26  1  6  0  0  0
 25 27  1  0  0  0  0
 27 28  1  1  0  0  0
 27 29  1  0  0  0  0
 29 30  1  6  0  0  0
 31 32  1  0  0  0  0
 33 34  1  0  0  0  0
 33 38  1  0  0  0  0
 33 39  1  6  0  0  0
 34 35  1  0  0  0  0
 35 36  1  0  0  0  0
 35 40  1  1  0  0  0
 36 24  1  1  0  0  0
 36 37  1  0  0  0  0
 37 38  1  0  0  0  0
 37 41  1  1  0  0  0
 38 42  1  6  0  0  0
M  CHG  6  14   1  20   1  26   1  32   1  39   1  40   1
M  END
>  <CHROM.1>
-179.57516417,-134.41380435,-124.92823221,-64.49005518,-22.17149042,-52.69022992
121.93241484,29.31263583,-73.46251015,-169.55893755,-69.65917631,-95.11876027
83.22835999,-67.98142309,102.25264562,64.00579241,58.96113738,66.00714630
-160.31333934,-86.23202832,-70.24987227,36.56064643,8.04068707,-2.00650576
-1.27281858,-1.67405040,0.81219575,0.77111151

>  <Name>


>  <RI>
0

>  <Rbt.Current_Directory>
/home/itssahil/PROJECTS/Mol_Feturizer/New_Systems/rnas/1qd3

>  <Rbt.Executable>
rbdock ($Id: //depot/dev/client3/rdock/2013.1/src/exe/rbdock.cxx#4 $)

>  <Rbt.Library>
libRbt.so (2013.1, Build901 2013/11/27)

>  <Rbt.Parameter_File>
/export/apps/rDock/src/rDock_2013.1_src/data/scripts/dock_solv.prm

>  <Rbt.Receptor>
prm/pocket_docking_2.prm

>  <SCORE>
-45.1101

>  <SCORE.INTER>
-50.4167

>  <SCORE.INTER.CONST>
1

>  <SCORE.INTER.POLAR>
-8.8613

>  <SCORE.INTER.ROT>
9

>  <SCORE.INTER.SOLV>
43.5722

>  <SCORE.INTER.VDW>
-28.1976

>  <SCORE.INTER.norm>
-1.2004

>  <SCORE.INTRA>
4.99511

>  <SCORE.INTRA.DIHEDRAL>
2.9183

>  <SCORE.INTRA.DIHEDRAL.0>
40.6252

>  <SCORE.INTRA.POLAR>
0.417435

>  <SCORE.INTRA.POLAR.0>
-1.20161

>  <SCORE.INTRA.REPUL>
-0.0466238

>  <SCORE.INTRA.REPUL.0>
0.115675

>  <SCORE.INTRA.SOLV>
-0.598991

>  <SCORE.INTRA.SOLV.lig_0>
-154.895

>  <SCORE.INTRA.VDW>
2.6493

>  <SCORE.INTRA.VDW.0>
2.2925

>  <SCORE.INTRA.norm>
0.118931

>  <SCORE.RESTR>
0.311541

>  <SCORE.RESTR.CAVITY>
0.311541

>  <SCORE.RESTR.norm>
0.00741764

>  <SCORE.SYSTEM>
0

>  <SCORE.SYSTEM.CONST>
0

>  <SCORE.SYSTEM.DIHEDRAL>
0

>  <SCORE.SYSTEM.SOLV>
0

>  <SCORE.SYSTEM.norm>
0

>  <SCORE.heavy>
42

>  <SCORE.norm>
-1.07405

>  <RMSD>
1.263

$$$$

 OpenBabel11021811413D
libRbt.so/2013.1/901 2013/11/27
 42 45  0  0  0  0  0  0  0  0999 V2000
    9.3657   -3.6707   -4.0008 O   0  0  0  0  0  0  0  0  0  0  0  0
   10.3156   -3.7442   -2.9472 C   0  0  0  0  0  0  0  0  0  0  0  0
    9.6099   -4.1000   -1.6381 C   0  0  1  0  0  0  0  0  0  0  0  0
    9.5283   -2.9577   -0.7583 O   0  0  0  0  0  0  0  0  0  0  0  0
    8.1793   -4.5741   -1.8332 C   0  0  2  0  0  0  0  0  0  0  0  0
    7.6229   -4.3586   -0.4358 C   0  0  1  0  0  0  0  0  0  0  0  0
    8.0670   -5.4016    0.4248 O   0  0  0  0  0  0  0  0  0  0  0  0
    8.2793   -3.0248   -0.0246 C   0  0  2  0  0  0  0  0  0  0  0  0
    8.1682   -6.6449   -5.8263 C   0  0  2  0  0  0  0  0  0  0  0  0
    8.6460   -6.5273   -4.4774 O   0  0  0  0  0  0  0  0  0  0  0  0
    7.6043   -6.1213   -3.5715 C   0  0  2  0  0  0  0  0  0  0  0  0
    8.1299   -5.9564   -2.2381 O   0  0  0  0  0  0  0  0  0  0  0  0
    6.4564   -7.1454   -3.5703 C   0  0  2  0  0  0  0  0  0  0  0  0
    6.8205   -8.3259   -2.8085 N   0  3  0  0  0  0  0  0  0  0  0  0
    5.9997   -7.5361   -4.9808 C   0  0  1  0  0  0  0  0  0  0  0  0
    5.1864   -6.5037   -5.5153 O   0  0  0  0  0  0  0  0  0  0  0  0
    7.1758   -7.7970   -5.9180 C   0  0  2  0  0  0  0  0  0  0  0  0
    7.8123   -9.0208   -5.5692 O   0  0  0  0  0  0  0  0  0  0  0  0
    9.3310   -6.8513   -6.7927 C   0  0  0  0  0  0  0  0  0  0  0  0
    9.1329   -6.0685   -7.9981 N   0  3  0  0  0  0  0  0  0  0  0  0
    8.5013    3.2982    2.2588 C   0  0  1  0  0  0  0  0  0  0  0  0
    9.3574    2.1437    2.3863 O   0  0  0  0  0  0  0  0  0  0  0  0
    8.6347    0.8911    2.3798 C   0  0  2  0  0  0  0  0  0  0  0  0
    7.9934    0.6403    1.1049 O   0  0  0  0  0  0  0  0  0  0  0  0
    7.6188    0.8473    3.5278 C   0  0  2  0  0  0  0  0  0  0  0  0
    6.7601   -0.3137    3.3854 N   0  3  0  0  0  0  0  0  0  0  0  0
    6.7580    2.1051    3.5688 C   0  0  1  0  0  0  0  0  0  0  0  0
    6.0047    2.1297    4.7714 O   0  0  0  0  0  0  0  0  0  0  0  0
    7.5654    3.3889    3.4531 C   0  0  2  0  0  0  0  0  0  0  0  0
    6.6995    4.5051    3.3086 O   0  0  0  0  0  0  0  0  0  0  0  0
    9.3420    4.5714    2.2315 C   0  0  0  0  0  0  0  0  0  0  0  0
   10.5592    4.4004    3.0033 N   0  3  0  0  0  0  0  0  0  0  0  0
    9.6768   -0.0183   -2.7464 C   0  0  2  0  0  0  0  0  0  0  0  0
   10.5882    0.4958   -1.6495 C   0  0  0  0  0  0  0  0  0  0  0  0
    9.7720    1.0479   -0.4955 C   0  0  1  0  0  0  0  0  0  0  0  0
    8.8738   -0.0083    0.1500 C   0  0  2  0  0  0  0  0  0  0  0  0
    8.0375   -0.7509   -0.9177 C   0  0  1  0  0  0  0  0  0  0  0  0
    8.7646   -1.1173   -2.2183 C   0  0  1  0  0  0  0  0  0  0  0  0
   10.4803   -0.5344   -3.8381 N   0  3  0  0  0  0  0  0  0  0  0  0
   10.6718    1.6208    0.4866 N   0  3  0  0  0  0  0  0  0  0  0  0
    7.3896   -1.9229   -0.3648 O   0  0  0  0  0  0  0  0  0  0  0  0
    7.8150   -1.4743   -3.2172 O   0  0  0  0  0  0  0  0  0  0  0  0
  1  2  1  0  0  0  0
  3  2  1  6  0  0  0
  3  4  1  0  0  0  0
  3  5  1  0  0  0  0
  4  8  1  0  0  0  0
  5  6  1  0  0  0  0
  5 12  1  1  0  0  0
  6  7  1  1  0  0  0
  6  8  1  0  0  0  0
  8 41  1  6  0  0  0
  9 10  1  0  0  0  0
  9 17  1  0  0  0  0
  9 19  1  6  0  0  0
 10 11  1  0  0  0  0
 11 12  1  1  0  0  0
 11 13  1  0  0  0  0
 13 14  1  6  0  0  0
 13 15  1  0  0  0  0
 15 16  1  6  0  0  0
 15 17  1  0  0  0  0
 17 18  1  1  0  0  0
 19 20  1  0  0  0  0
 21 22  1  0  0  0  0
 21 29  1  0  0  0  0
 21 31  1  1  0  0  0
 22 23  1  0  0  0  0
 23 24  1  6  0  0  0
 23 25  1  0  0  0  0
 25 26  1  6  0  0  0
 25 27  1  0  0  0  0
 27 28  1  1  0  0  0
 27 29  1  0  0  0  0
 29 30  1  6  0  0  0
 31 32  1  0  0  0  0
 33 34  1  0  0  0  0
 33 38  1  0  0  0  0
 33 39  1  6  0  0  0
 34 35  1  0  0  0  0
 35 36  1  0  0  0  0
 35 40  1  1  0  0  0
 36 24  1  1  0  0  0
 36 37  1  0  0  0  0
 37 38  1  0  0  0  0
 37 41  1  1  0  0  0
 38 42  1  6  0  0  0
M  CHG  6  14   1  20   1  26   1  32   1  39   1  40   1
M  END
>  <CHROM.1>
66.44252606,-106.57724891,-114.54151274,-47.61537081,-22.40032225,-138.68541247
109.49390895,83.03427011,-60.23832826,56.47964060,-83.84209290,-30.11317259
86.07066462,-81.14523867,84.43938285,60.34876201,59.30396405,-69.16217729
-66.14310610,-74.27089005,-70.16618823,-55.40872727,8.31530842,-2.16109766
-1.19337036,-1.64267706,0.89930158,0.73183824

>  <Name>


>  <RI>
0

>  <Rbt.Current_Directory>
/home/itssahil/PROJECTS/Mol_Feturizer/New_Systems/rnas/1qd3

>  <Rbt.Executable>
rbdock ($Id: //depot/dev/client3/rdock/2013.1/src/exe/rbdock.cxx#4 $)

>  <Rbt.Library>
libRbt.so (2013.1, Build901 2013/11/27)

>  <Rbt.Parameter_File>
/export/apps/rDock/src/rDock_2013.1_src/data/scripts/dock_solv.prm

>  <Rbt.Receptor>
prm/pocket_docking_3.prm

>  <SCORE>
-49.4332

>  <SCORE.INTER>
-42.1258

>  <SCORE.INTER.CONST>
1

>  <SCORE.INTER.POLAR>
-6.97204

>  <SCORE.INTER.ROT>
9

>  <SCORE.INTER.SOLV>
37.6309

>  <SCORE.INTER.VDW>
-26.9873

>  <SCORE.INTER.norm>
-1.00299

>  <SCORE.INTRA>
-7.30744

>  <SCORE.INTRA.DIHEDRAL>
0.747456

>  <SCORE.INTRA.DIHEDRAL.0>
40.6252

>  <SCORE.INTRA.POLAR>
-0.543187

>  <SCORE.INTRA.POLAR.0>
-1.20161

>  <SCORE.INTRA.REPUL>
-0.115675

>  <SCORE.INTRA.REPUL.0>
0.115675

>  <SCORE.INTRA.SOLV>
-3.10807

>  <SCORE.INTRA.SOLV.lig_0>
-154.895

>  <SCORE.INTRA.VDW>
-3.70192

>  <SCORE.INTRA.VDW.0>
2.2925

>  <SCORE.INTRA.norm>
-0.173987

>  <SCORE.RESTR>
0

>  <SCORE.RESTR.CAVITY>
0

>  <SCORE.RESTR.norm>
0

>  <SCORE.SYSTEM>
0

>  <SCORE.SYSTEM.CONST>
0

>  <SCORE.SYSTEM.DIHEDRAL>
0

>  <SCORE.SYSTEM.SOLV>
0

>  <SCORE.SYSTEM.norm>
0

>  <SCORE.heavy>
42

>  <SCORE.norm>
-1.17698

>  <RMSD>
1.327

$$$$

 OpenBabel11021811413D
libRbt.so/2013.1/901 2013/11/27
 42 45  0  0  0  0  0  0  0  0999 V2000
   11.4142   -3.3376   -2.7616 O   0  0  0  0  0  0  0  0  0  0  0  0
   10.7391   -2.4739   -1.8582 C   0  0  0  0  0  0  0  0  0  0  0  0
    9.6505   -3.2500   -1.1159 C   0  0  1  0  0  0  0  0  0  0  0  0
    9.1190   -2.4840   -0.0130 O   0  0  0  0  0  0  0  0  0  0  0  0
    8.4569   -3.5998   -1.9890 C   0  0  2  0  0  0  0  0  0  0  0  0
    7.4066   -3.8739   -0.9257 C   0  0  1  0  0  0  0  0  0  0  0  0
    7.6244   -5.1593   -0.3547 O   0  0  0  0  0  0  0  0  0  0  0  0
    7.7053   -2.7791    0.1188 C   0  0  2  0  0  0  0  0  0  0  0  0
    6.2753   -6.2838   -5.0522 C   0  0  2  0  0  0  0  0  0  0  0  0
    7.4911   -5.6517   -4.6236 O   0  0  0  0  0  0  0  0  0  0  0  0
    7.5150   -5.4416   -3.2002 C   0  0  2  0  0  0  0  0  0  0  0  0
    8.7219   -4.7536   -2.8110 O   0  0  0  0  0  0  0  0  0  0  0  0
    7.3984   -6.7805   -2.4517 C   0  0  2  0  0  0  0  0  0  0  0  0
    8.6583   -7.5003   -2.4850 N   0  3  0  0  0  0  0  0  0  0  0  0
    6.2610   -7.6642   -2.9771 C   0  0  1  0  0  0  0  0  0  0  0  0
    5.0227   -7.1843   -2.4777 O   0  0  0  0  0  0  0  0  0  0  0  0
    6.2162   -7.7033   -4.5023 C   0  0  2  0  0  0  0  0  0  0  0  0
    7.3080   -8.4675   -5.0007 O   0  0  0  0  0  0  0  0  0  0  0  0
    6.1785   -6.2867   -6.5751 C   0  0  0  0  0  0  0  0  0  0  0  0
    6.0000   -4.9361   -7.0740 N   0  3  0  0  0  0  0  0  0  0  0  0
    8.0183    3.2875    2.9759 C   0  0  1  0  0  0  0  0  0  0  0  0
    9.0023    2.2348    2.9003 O   0  0  0  0  0  0  0  0  0  0  0  0
    8.4216    0.9133    2.8115 C   0  0  2  0  0  0  0  0  0  0  0  0
    7.6930    0.7220    1.5736 O   0  0  0  0  0  0  0  0  0  0  0  0
    7.5300    0.6319    4.0270 C   0  0  2  0  0  0  0  0  0  0  0  0
    6.7920   -0.6011    3.8252 N   0  3  0  0  0  0  0  0  0  0  0  0
    6.5463    1.7686    4.2815 C   0  0  1  0  0  0  0  0  0  0  0  0
    5.9123    1.5800    5.5371 O   0  0  0  0  0  0  0  0  0  0  0  0
    7.1958    3.1435    4.2459 C   0  0  2  0  0  0  0  0  0  0  0  0
    6.2047    4.1591    4.3011 O   0  0  0  0  0  0  0  0  0  0  0  0
    8.7102    4.6468    3.0239 C   0  0  0  0  0  0  0  0  0  0  0  0
   10.1507    4.4878    3.1038 N   0  3  0  0  0  0  0  0  0  0  0  0
    9.2482    0.3886   -2.3722 C   0  0  2  0  0  0  0  0  0  0  0  0
   10.2155    0.7118   -1.2507 C   0  0  0  0  0  0  0  0  0  0  0  0
    9.4639    1.1847   -0.0202 C   0  0  1  0  0  0  0  0  0  0  0  0
    8.5057    0.1266    0.5284 C   0  0  2  0  0  0  0  0  0  0  0  0
    7.5976   -0.4316   -0.5916 C   0  0  1  0  0  0  0  0  0  0  0  0
    8.2707   -0.6978   -1.9446 C   0  0  1  0  0  0  0  0  0  0  0  0
    9.9910   -0.0548   -3.5365 N   0  3  0  0  0  0  0  0  0  0  0  0
   10.4217    1.5800    0.9941 N   0  3  0  0  0  0  0  0  0  0  0  0
    6.8789   -1.6113   -0.1548 O   0  0  0  0  0  0  0  0  0  0  0  0
    7.2783   -0.8737   -2.9502 O   0  0  0  0  0  0  0  0  0  0  0  0
  1  2  1  0  0  0  0
  3  2  1  6  0  0  0
  3  4  1  0  0  0  0
  3  5  1  0  0  0  0
  4  8  1  0  0  0  0
  5  6  1  0  0  0  0
  5 12  1  1  0  0  0
  6  7  1  1  0  0  0
  6  8  1  0  0  0  0
  8 41  1  6  0  0  0
  9 10  1  0  0  0  0
  9 17  1  0  0  0  0
  9 19  1  6  0  0  0
 10 11  1  0  0  0  0
 11 12  1  6  0  0  0
 11 13  1  0  0  0  0
 13 14  1  6  0  0  0
 13 15  1  0  0  0  0
 15 16  1  6  0  0  0
 15 17  1  0  0  0  0
 17 18  1  6  0  0  0
 19 20  1  0  0  0  0
 21 22  1  0  0  0  0
 21 29  1  0  0  0  0
 21 31  1  1  0  0  0
 22 23  1  0  0  0  0
 23 24  1  6  0  0  0
 23 25  1  0  0  0  0
 25 26  1  6  0  0  0
 25 27  1  0  0  0  0
 27 28  1  1  0  0  0
 27 29  1  0  0  0  0
 29 30  1  6  0  0  0
 31 32  1  0  0  0  0
 33 34  1  0  0  0  0
 33 38  1  0  0  0  0
 33 39  1  6  0  0  0
 34 35  1  0  0  0  0
 35 36  1  0  0  0  0
 35 40  1  1  0  0  0
 36 24  1  1  0  0  0
 36 37  1  0  0  0  0
 37 38  1  0  0  0  0
 37 41  1  1  0  0  0
 38 42  1  6  0  0  0
M  CHG  6  14   1  20   1  26   1  32   1  39   1  40   1
M  END
>  <CHROM.1>
70.75263295,168.84306988,155.39264145,-174.74204475,4.25808280,-68.17100864
128.95325997,-170.08181185,69.35783189,42.56304600,66.11412350,-5.23277783
93.28003795,-74.97208561,10.12645041,177.92528118,61.35443636,-110.22974910
84.00064528,59.87167037,-66.37979951,60.66663500,7.98980227,-1.87244994,-0.64914862
-1.68652382,0.86929353,0.77790225

>  <Name>


>  <RI>
0

>  <Rbt.Current_Directory>
/home/itssahil/PROJECTS/Mol_Feturizer/New_Systems/rnas/1qd3

>  <Rbt.Executable>
rbdock ($Id: //depot/dev/client3/rdock/2013.1/src/exe/rbdock.cxx#4 $)

>  <Rbt.Library>
libRbt.so (2013.1, Build901 2013/11/27)

>  <Rbt.Parameter_File>
/export/apps/rDock/src/rDock_2013.1_src/data/scripts/dock_solv.prm

>  <Rbt.Receptor>
prm/pocket_docking_2.prm

>  <SCORE>
-63.9286

>  <SCORE.INTER>
-65.4603

>  <SCORE.INTER.CONST>
1

>  <SCORE.INTER.POLAR>
-9.9138

>  <SCORE.INTER.ROT>
9

>  <SCORE.INTER.SOLV>
49.669

>  <SCORE.INTER.VDW>
-36.7505

>  <SCORE.INTER.norm>
-1.55858

>  <SCORE.INTRA>
0.368361

>  <SCORE.INTRA.DIHEDRAL>
0.213567

>  <SCORE.INTRA.DIHEDRAL.0>
40.6252

>  <SCORE.INTRA.POLAR>
0.149939

>  <SCORE.INTRA.POLAR.0>
-1.20161

>  <SCORE.INTRA.REPUL>
-0.115675

>  <SCORE.INTRA.REPUL.0>
0.115675

>  <SCORE.INTRA.SOLV>
-0.881619

>  <SCORE.INTRA.SOLV.lig_0>
-154.895

>  <SCORE.INTRA.VDW>
0.770968

>  <SCORE.INTRA.VDW.0>
2.2925

>  <SCORE.INTRA.norm>
0.0087705

>  <SCORE.RESTR>
1.16338

>  <SCORE.RESTR.CAVITY>
1.16338

>  <SCORE.RESTR.norm>
0.0276995

>  <SCORE.SYSTEM>
0

>  <SCORE.SYSTEM.CONST>
0

>  <SCORE.SYSTEM.DIHEDRAL>
0

>  <SCORE.SYSTEM.SOLV>
0

>  <SCORE.SYSTEM.norm>
0

>  <SCORE.heavy>
42

>  <SCORE.norm>
-1.52211

>  <RMSD>
1.579

$$$$

 OpenBabel11021811413D
libRbt.so/2013.1/901 2013/11/27
 42 45  0  0  0  0  0  0  0  0999 V2000
    9.8909   -2.6761   -3.4875 O   0  0  0  0  0  0  0  0  0  0  0  0
   10.6881   -3.0421   -2.3703 C   0  0  0  0  0  0  0  0  0  0  0  0
    9.8012   -3.6290   -1.2715 C   0  0  1  0  0  0  0  0  0  0  0  0
    9.4614   -2.6326   -0.2828 O   0  0  0  0  0  0  0  0  0  0  0  0
    8.4770   -4.1669   -1.7879 C   0  0  2  0  0  0  0  0  0  0  0  0
    7.6678   -4.1921   -0.5021 C   0  0  1  0  0  0  0  0  0  0  0  0
    8.0501   -5.3148    0.2848 O   0  0  0  0  0  0  0  0  0  0  0  0
    8.1153   -2.8892    0.1915 C   0  0  2  0  0  0  0  0  0  0  0  0
    6.1728   -5.7090   -5.0651 C   0  0  2  0  0  0  0  0  0  0  0  0
    7.3755   -5.3388   -4.3739 O   0  0  0  0  0  0  0  0  0  0  0  0
    7.4376   -5.9150   -3.0567 C   0  0  2  0  0  0  0  0  0  0  0  0
    8.6279   -5.4770   -2.3690 O   0  0  0  0  0  0  0  0  0  0  0  0
    7.3998   -7.4509   -3.1337 C   0  0  2  0  0  0  0  0  0  0  0  0
    8.6860   -7.9772   -3.5525 N   0  3  0  0  0  0  0  0  0  0  0  0
    6.2823   -7.9786   -4.0412 C   0  0  1  0  0  0  0  0  0  0  0  0
    5.0428   -7.9015   -3.3553 O   0  0  0  0  0  0  0  0  0  0  0  0
    6.1891   -7.2048   -5.3535 C   0  0  2  0  0  0  0  0  0  0  0  0
    7.2939   -7.5305   -6.1888 O   0  0  0  0  0  0  0  0  0  0  0  0
    6.0263   -4.9084   -6.3560 C   0  0  0  0  0  0  0  0  0  0  0  0
    5.2209   -5.6390   -7.3166 N   0  3  0  0  0  0  0  0  0  0  0  0
    8.3744    3.0507    3.0644 C   0  0  1  0  0  0  0  0  0  0  0  0
    9.2384    1.8970    2.9955 O   0  0  0  0  0  0  0  0  0  0  0  0
    8.5220    0.6555    2.8039 C   0  0  2  0  0  0  0  0  0  0  0  0
    7.8606    0.6030    1.5157 O   0  0  0  0  0  0  0  0  0  0  0  0
    7.5257    0.4245    3.9466 C   0  0  2  0  0  0  0  0  0  0  0  0
    6.6706   -0.7064    3.6374 N   0  3  0  0  0  0  0  0  0  0  0  0
    6.6595    1.6536    4.1983 C   0  0  1  0  0  0  0  0  0  0  0  0
    5.9263    1.4835    5.4015 O   0  0  0  0  0  0  0  0  0  0  0  0
    7.4583    2.9458    4.2727 C   0  0  2  0  0  0  0  0  0  0  0  0
    6.5845    4.0642    4.3190 O   0  0  0  0  0  0  0  0  0  0  0  0
    9.2081    4.3188    3.2240 C   0  0  0  0  0  0  0  0  0  0  0  0
    8.3631    5.4982    3.1823 N   0  3  0  0  0  0  0  0  0  0  0  0
    9.3982    0.3113   -2.4404 C   0  0  2  0  0  0  0  0  0  0  0  0
   10.3504    0.7231   -1.3350 C   0  0  0  0  0  0  0  0  0  0  0  0
    9.5784    1.1629   -0.1048 C   0  0  1  0  0  0  0  0  0  0  0  0
    8.7041    0.0487    0.4722 C   0  0  2  0  0  0  0  0  0  0  0  0
    7.8278   -0.5932   -0.6283 C   0  0  1  0  0  0  0  0  0  0  0  0
    8.5054   -0.8346   -1.9836 C   0  0  1  0  0  0  0  0  0  0  0  0
   10.1598   -0.0985   -3.6048 N   0  3  0  0  0  0  0  0  0  0  0  0
   10.5149    1.6439    0.8922 N   0  3  0  0  0  0  0  0  0  0  0  0
    7.2000   -1.8133   -0.1635 O   0  0  0  0  0  0  0  0  0  0  0  0
    7.5187   -1.0992   -2.9754 O   0  0  0  0  0  0  0  0  0  0  0  0
  1  2  1  0  0  0  0
  3  2  1  6  0  0  0
  3  4  1  0  0  0  0
  3  5  1  0  0  0  0
  4  8  1  0  0  0  0
  5  6  1  0  0  0  0
  5 12  1  1  0  0  0
  6  7  1  1  0  0  0
  6  8  1  0  0  0  0
  8 41  1  6  0  0  0
  9 10  1  0  0  0  0
  9 17  1  0  0  0  0
  9 19  1  6  0  0  0
 10 11  1  0  0  0  0
 11 12  1  6  0  0  0
 11 13  1  0  0  0  0
 13 14  1  6  0  0  0
 13 15  1  0  0  0  0
 15 16  1  1  0  0  0
 15 17  1  0  0  0  0
 17 18  1  6  0  0  0
 19 20  1  0  0  0  0
 21 22  1  0  0  0  0
 21 29  1  0  0  0  0
 21 31  1  1  0  0  0
 22 23  1  0  0  0  0
 23 24  1  6  0  0  0
 23 25  1  0  0  0  0
 25 26  1  6  0  0  0
 25 27  1  0  0  0  0
 27 28  1  1  0  0  0
 27 29  1  0  0  0  0
 29 30  1  6  0  0  0
 31 32  1  0  0  0  0
 33 34  1  0  0  0  0
 33 38  1  0  0  0  0
 33 39  1  6  0  0  0
 34 35  1  0  0  0  0
 35 36  1  0  0  0  0
 35 40  1  1  0  0  0
 36 24  1  1  0  0  0
 36 37  1  0  0  0  0
 37 38  1  0  0  0  0
 37 41  1  1  0  0  0
 38 42  1  6  0  0  0
M  CHG  6  14   1  20   1  26   1  32   1  39   1  40   1
M  END
>  <CHROM.1>
-69.75311633,-96.91752564,-170.58379598,-56.01828210,-13.37829143,154.35064311
81.14632823,-68.16606754,98.69388282,-167.54301792,-79.66316423,175.21110992
89.31578810,-84.86506221,-43.56548802,173.29912864,61.98311608,60.25578754
-154.56407990,166.55221404,-63.13158244,51.01882590,7.98809408,-1.96297193
-0.80045096,-1.72087290,0.98553193,0.83701611

>  <Name>


>  <RI>
0

>  <Rbt.Current_Directory>
/home/itssahil/PROJECTS/Mol_Feturizer/New_Systems/rnas/1qd3

>  <Rbt.Executable>
rbdock ($Id: //depot/dev/client3/rdock/2013.1/src/exe/rbdock.cxx#4 $)

>  <Rbt.Library>
libRbt.so (2013.1, Build901 2013/11/27)

>  <Rbt.Parameter_File>
/export/apps/rDock/src/rDock_2013.1_src/data/scripts/dock_solv.prm

>  <Rbt.Receptor>
prm/pocket_docking_2.prm

>  <SCORE>
-61.9201

>  <SCORE.INTER>
-52.6333

>  <SCORE.INTER.CONST>
1

>  <SCORE.INTER.POLAR>
-8.19749

>  <SCORE.INTER.ROT>
9

>  <SCORE.INTER.SOLV>
47.7078

>  <SCORE.INTER.VDW>
-33.2665

>  <SCORE.INTER.norm>
-1.25317

>  <SCORE.INTRA>
-11.4651

>  <SCORE.INTRA.DIHEDRAL>
-7.26997

>  <SCORE.INTRA.DIHEDRAL.0>
40.6252

>  <SCORE.INTRA.POLAR>
-1.51514

>  <SCORE.INTRA.POLAR.0>
-1.20161

>  <SCORE.INTRA.REPUL>
-0.115675

>  <SCORE.INTRA.REPUL.0>
0.115675

>  <SCORE.INTRA.SOLV>
2.44637

>  <SCORE.INTRA.SOLV.lig_0>
-154.895

>  <SCORE.INTRA.VDW>
-3.32344

>  <SCORE.INTRA.VDW.0>
2.2925

>  <SCORE.INTRA.norm>
-0.272978

>  <SCORE.RESTR>
2.17828

>  <SCORE.RESTR.CAVITY>
2.17828

>  <SCORE.RESTR.norm>
0.0518638

>  <SCORE.SYSTEM>
0

>  <SCORE.SYSTEM.CONST>
0

>  <SCORE.SYSTEM.DIHEDRAL>
0

>  <SCORE.SYSTEM.SOLV>
0

>  <SCORE.SYSTEM.norm>
0

>  <SCORE.heavy>
42

>  <SCORE.norm>
-1.47429

>  <RMSD>
1.710

$$$$

 OpenBabel11021811413D
libRbt.so/2013.1/901 2013/11/27
 42 45  0  0  0  0  0  0  0  0999 V2000
   11.9601   -3.8588   -2.4037 O   0  0  0  0  0  0  0  0  0  0  0  0
   10.9498   -2.9416   -2.0091 C   0  0  0  0  0  0  0  0  0  0  0  0
    9.9239   -3.6507   -1.1242 C   0  0  1  0  0  0  0  0  0  0  0  0
    9.4082   -2.7661   -0.1058 O   0  0  0  0  0  0  0  0  0  0  0  0
    8.7102   -4.1513   -1.8897 C   0  0  2  0  0  0  0  0  0  0  0  0
    7.7159   -4.3199   -0.7532 C   0  0  1  0  0  0  0  0  0  0  0  0
    8.0073   -5.5120   -0.0322 O   0  0  0  0  0  0  0  0  0  0  0  0
    8.0138   -3.0890    0.1271 C   0  0  2  0  0  0  0  0  0  0  0  0
    5.8892   -5.9408   -4.4268 C   0  0  2  0  0  0  0  0  0  0  0  0
    7.1212   -5.3228   -4.0247 O   0  0  0  0  0  0  0  0  0  0  0  0
    7.7843   -6.0699   -2.9888 C   0  0  2  0  0  0  0  0  0  0  0  0
    8.9866   -5.3926   -2.5678 O   0  0  0  0  0  0  0  0  0  0  0  0
    8.1139   -7.4927   -3.4718 C   0  0  2  0  0  0  0  0  0  0  0  0
    9.2610   -7.4818   -4.3608 N   0  3  0  0  0  0  0  0  0  0  0  0
    6.9231   -8.1902   -4.1399 C   0  0  1  0  0  0  0  0  0  0  0  0
    6.0257   -8.6495   -3.1417 O   0  0  0  0  0  0  0  0  0  0  0  0
    6.1834   -7.2710   -5.1082 C   0  0  2  0  0  0  0  0  0  0  0  0
    6.9704   -7.0603   -6.2747 O   0  0  0  0  0  0  0  0  0  0  0  0
    5.1021   -5.0182   -5.3532 C   0  0  0  0  0  0  0  0  0  0  0  0
    5.9166   -4.6239   -6.4872 N   0  3  0  0  0  0  0  0  0  0  0  0
    8.2128    2.8771    2.9778 C   0  0  1  0  0  0  0  0  0  0  0  0
    9.1280    1.7629    2.9228 O   0  0  0  0  0  0  0  0  0  0  0  0
    8.4682    0.4877    2.7502 C   0  0  2  0  0  0  0  0  0  0  0  0
    7.8075    0.3873    1.4645 O   0  0  0  0  0  0  0  0  0  0  0  0
    7.4855    0.2278    3.8985 C   0  0  2  0  0  0  0  0  0  0  0  0
    6.6819   -0.9448    3.6071 N   0  3  0  0  0  0  0  0  0  0  0  0
    6.5650    1.4200    4.1352 C   0  0  1  0  0  0  0  0  0  0  0  0
    5.8425    1.2337    5.3425 O   0  0  0  0  0  0  0  0  0  0  0  0
    7.3047    2.7478    4.1897 C   0  0  2  0  0  0  0  0  0  0  0  0
    6.3813    3.8262    4.2226 O   0  0  0  0  0  0  0  0  0  0  0  0
    8.9886    4.1838    3.1177 C   0  0  0  0  0  0  0  0  0  0  0  0
    9.1178    4.8451    1.8322 N   0  3  0  0  0  0  0  0  0  0  0  0
    9.4306    0.1019   -2.4577 C   0  0  2  0  0  0  0  0  0  0  0  0
   10.3657    0.4799   -1.3260 C   0  0  0  0  0  0  0  0  0  0  0  0
    9.5753    0.9245   -0.1093 C   0  0  1  0  0  0  0  0  0  0  0  0
    8.6624   -0.1753    0.4349 C   0  0  2  0  0  0  0  0  0  0  0  0
    7.7978   -0.7852   -0.6927 C   0  0  1  0  0  0  0  0  0  0  0  0
    8.5015   -1.0279   -2.0345 C   0  0  1  0  0  0  0  0  0  0  0  0
   10.2099   -0.3131   -3.6085 N   0  3  0  0  0  0  0  0  0  0  0  0
   10.4988    1.3732    0.9145 N   0  3  0  0  0  0  0  0  0  0  0  0
    7.1316   -1.9953   -0.2562 O   0  0  0  0  0  0  0  0  0  0  0  0
    7.5326   -1.2592   -3.0518 O   0  0  0  0  0  0  0  0  0  0  0  0
  1  2  1  0  0  0  0
  3  2  1  6  0  0  0
  3  4  1  0  0  0  0
  3  5  1  0  0  0  0
  4  8  1  0  0  0  0
  5  6  1  0  0  0  0
  5 12  1  1  0  0  0
  6  7  1  1  0  0  0
  6  8  1  0  0  0  0
  8 41  1  6  0  0  0
  9 10  1  0  0  0  0
  9 17  1  0  0  0  0
  9 19  1  6  0  0  0
 10 11  1  0  0  0  0
 11 12  1  6  0  0  0
 11 13  1  0  0  0  0
 13 14  1  6  0  0  0
 13 15  1  0  0  0  0
 15 16  1  1  0  0  0
 15 17  1  0  0  0  0
 17 18  1  6  0  0  0
 19 20  1  0  0  0  0
 21 22  1  0  0  0  0
 21 29  1  0  0  0  0
 21 31  1  1  0  0  0
 22 23  1  0  0  0  0
 23 24  1  6  0  0  0
 23 25  1  0  0  0  0
 25 26  1  6  0  0  0
 25 27  1  0  0  0  0
 27 28  1  1  0  0  0
 27 29  1  0  0  0  0
 29 30  1  6  0  0  0
 31 32  1  0  0  0  0
 33 34  1  0  0  0  0
 33 38  1  0  0  0  0
 33 39  1  6  0  0  0
 34 35  1  0  0  0  0
 35 36  1  0  0  0  0
 35 40  1  1  0  0  0
 36 24  1  1  0  0  0
 36 37  1  0  0  0  0
 37 38  1  0  0  0  0
 37 41  1  1  0  0  0
 38 42  1  6  0  0  0
M  CHG  6  14   1  20   1  26   1  32   1  39   1  40   1
M  END
>  <CHROM.1>
68.61870302,145.49071894,164.13167293,-169.12832976,-4.31060449,55.00854846
67.55171155,71.58841682,-51.23273324,-82.36315323,-158.76759343,99.19690077
90.82192194,-81.26758997,-147.34559794,35.05138119,66.99242060,-162.56510926
-45.79939126,69.70837240,-62.25151767,47.81903333,8.11693065,-2.10796083
-0.79163601,-1.65461002,0.83679496,0.76114658

>  <Name>


>  <RI>
0

>  <Rbt.Current_Directory>
/home/itssahil/PROJECTS/Mol_Feturizer/New_Systems/rnas/1qd3

>  <Rbt.Executable>
rbdock ($Id: //depot/dev/client3/rdock/2013.1/src/exe/rbdock.cxx#4 $)

>  <Rbt.Library>
libRbt.so (2013.1, Build901 2013/11/27)

>  <Rbt.Parameter_File>
/export/apps/rDock/src/rDock_2013.1_src/data/scripts/dock_solv.prm

>  <Rbt.Receptor>
prm/pocket_docking_2.prm

>  <SCORE>
-65.7613

>  <SCORE.INTER>
-58.3288

>  <SCORE.INTER.CONST>
1

>  <SCORE.INTER.POLAR>
-9.49997

>  <SCORE.INTER.ROT>
9

>  <SCORE.INTER.SOLV>
47.1691

>  <SCORE.INTER.VDW>
-32.5424

>  <SCORE.INTER.norm>
-1.38878

>  <SCORE.INTRA>
-8.60462

>  <SCORE.INTRA.DIHEDRAL>
-5.9048

>  <SCORE.INTRA.DIHEDRAL.0>
40.6252

>  <SCORE.INTRA.POLAR>
0.309711

>  <SCORE.INTRA.POLAR.0>
-1.20161

>  <SCORE.INTRA.REPUL>
-0.115675

>  <SCORE.INTRA.REPUL.0>
0.115675

>  <SCORE.INTRA.SOLV>
-3.96561

>  <SCORE.INTRA.SOLV.lig_0>
-154.895

>  <SCORE.INTRA.VDW>
-4.14405

>  <SCORE.INTRA.VDW.0>
2.2925

>  <SCORE.INTRA.norm>
-0.204872

>  <SCORE.RESTR>
1.1721

>  <SCORE.RESTR.CAVITY>
1.1721

>  <SCORE.RESTR.norm>
0.0279072

>  <SCORE.SYSTEM>
0

>  <SCORE.SYSTEM.CONST>
0

>  <SCORE.SYSTEM.DIHEDRAL>
0

>  <SCORE.SYSTEM.SOLV>
0

>  <SCORE.SYSTEM.norm>
0

>  <SCORE.heavy>
42

>  <SCORE.norm>
-1.56575

>  <RMSD>
1.786

$$$$

 OpenBabel11021811413D
libRbt.so/2013.1/901 2013/11/27
 42 45  0  0  0  0  0  0  0  0999 V2000
    9.6306   -5.5067   -4.3697 O   0  0  0  0  0  0  0  0  0  0  0  0
    9.4162   -4.2621   -3.7196 C   0  0  0  0  0  0  0  0  0  0  0  0
    8.9928   -4.5016   -2.2698 C   0  0  1  0  0  0  0  0  0  0  0  0
    9.2339   -3.3354   -1.4529 O   0  0  0  0  0  0  0  0  0  0  0  0
    7.5135   -4.8142   -2.1171 C   0  0  2  0  0  0  0  0  0  0  0  0
    7.3148   -4.5011   -0.6435 C   0  0  1  0  0  0  0  0  0  0  0  0
    7.8302   -5.5657    0.1481 O   0  0  0  0  0  0  0  0  0  0  0  0
    8.1841   -3.2409   -0.4570 C   0  0  2  0  0  0  0  0  0  0  0  0
    6.7639   -8.0653   -5.5327 C   0  0  2  0  0  0  0  0  0  0  0  0
    6.7101   -7.7548   -4.1319 O   0  0  0  0  0  0  0  0  0  0  0  0
    7.2432   -6.4483   -3.8500 C   0  0  2  0  0  0  0  0  0  0  0  0
    7.2281   -6.1917   -2.4303 O   0  0  0  0  0  0  0  0  0  0  0  0
    6.4474   -5.3644   -4.5972 C   0  0  2  0  0  0  0  0  0  0  0  0
    5.1762   -5.1158   -3.9426 N   0  3  0  0  0  0  0  0  0  0  0  0
    6.2332   -5.6924   -6.0796 C   0  0  1  0  0  0  0  0  0  0  0  0
    7.4271   -5.4260   -6.7982 O   0  0  0  0  0  0  0  0  0  0  0  0
    5.8198   -7.1456   -6.2965 C   0  0  2  0  0  0  0  0  0  0  0  0
    4.4816   -7.3409   -5.8543 O   0  0  0  0  0  0  0  0  0  0  0  0
    6.4083   -9.5298   -5.7730 C   0  0  0  0  0  0  0  0  0  0  0  0
    7.2191  -10.3922   -4.9342 N   0  3  0  0  0  0  0  0  0  0  0  0
    8.2666    3.0820    2.1333 C   0  0  1  0  0  0  0  0  0  0  0  0
    9.2776    2.0544    2.1973 O   0  0  0  0  0  0  0  0  0  0  0  0
    8.7318    0.7158    2.2402 C   0  0  2  0  0  0  0  0  0  0  0  0
    8.0413    0.3709    1.0138 O   0  0  0  0  0  0  0  0  0  0  0  0
    7.8152    0.5447    3.4577 C   0  0  2  0  0  0  0  0  0  0  0  0
    7.1131   -0.7226    3.3750 N   0  3  0  0  0  0  0  0  0  0  0  0
    6.7978    1.6753    3.5623 C   0  0  1  0  0  0  0  0  0  0  0  0
    6.1353    1.6077    4.8156 O   0  0  0  0  0  0  0  0  0  0  0  0
    7.4143    3.0552    3.3915 C   0  0  2  0  0  0  0  0  0  0  0  0
    6.3977    4.0435    3.3112 O   0  0  0  0  0  0  0  0  0  0  0  0
    8.9238    4.4566    2.0483 C   0  0  0  0  0  0  0  0  0  0  0  0
   10.0212    4.5611    2.9925 N   0  3  0  0  0  0  0  0  0  0  0  0
    9.7768   -0.0870   -2.8434 C   0  0  2  0  0  0  0  0  0  0  0  0
   10.6855    0.3085   -1.6963 C   0  0  0  0  0  0  0  0  0  0  0  0
    9.8690    0.8128   -0.5208 C   0  0  1  0  0  0  0  0  0  0  0  0
    8.9137   -0.2463    0.0313 C   0  0  2  0  0  0  0  0  0  0  0  0
    8.0698   -0.8749   -1.1017 C   0  0  1  0  0  0  0  0  0  0  0  0
    8.8083   -1.1798   -2.4117 C   0  0  1  0  0  0  0  0  0  0  0  0
   10.5809   -0.5592   -3.9544 N   0  3  0  0  0  0  0  0  0  0  0  0
   10.7711    1.2754    0.5158 N   0  3  0  0  0  0  0  0  0  0  0  0
    7.3617   -2.0536   -0.6457 O   0  0  0  0  0  0  0  0  0  0  0  0
    7.8658   -1.4240   -3.4506 O   0  0  0  0  0  0  0  0  0  0  0  0
  1  2  1  0  0  0  0
  3  2  1  6  0  0  0
  3  4  1  0  0  0  0
  3  5  1  0  0  0  0
  4  8  1  0  0  0  0
  5  6  1  0  0  0  0
  5 12  1  1  0  0  0
  6  7  1  1  0  0  0
  6  8  1  0  0  0  0
  8 41  1  6  0  0  0
  9 10  1  0  0  0  0
  9 17  1  0  0  0  0
  9 19  1  1  0  0  0
 10 11  1  0  0  0  0
 11 12  1  1  0  0  0
 11 13  1  0  0  0  0
 13 14  1  1  0  0  0
 13 15  1  0  0  0  0
 15 16  1  6  0  0  0
 15 17  1  0  0  0  0
 17 18  1  1  0  0  0
 19 20  1  0  0  0  0
 21 22  1  0  0  0  0
 21 29  1  0  0  0  0
 21 31  1  1  0  0  0
 22 23  1  0  0  0  0
 23 24  1  6  0  0  0
 23 25  1  0  0  0  0
 25 26  1  6  0  0  0
 25 27  1  0  0  0  0
 27 28  1  1  0  0  0
 27 29  1  0  0  0  0
 29 30  1  6  0  0  0
 31 32  1  0  0  0  0
 33 34  1  0  0  0  0
 33 38  1  0  0  0  0
 33 39  1  6  0  0  0
 34 35  1  0  0  0  0
 35 36  1  0  0  0  0
 35 40  1  1  0  0  0
 36 24  1  1  0  0  0
 36 37  1  0  0  0  0
 37 38  1  0  0  0  0
 37 41  1  1  0  0  0
 38 42  1  6  0  0  0
M  CHG  6  14   1  20   1  26   1  32   1  39   1  40   1
M  END
>  <CHROM.1>
-176.37070942,158.97601458,-75.66216721,-58.49469957,-36.21479415,-52.18715704
-169.08012705,21.99513126,-61.68603000,55.21057022,73.15854918,-44.33471035
90.08508604,-71.05040175,-93.97855210,-53.06662839,-163.26331846,-45.58685573
-69.02360041,-74.40814234,-74.20745335,-175.85644393,7.91867718,-2.36862432
-1.33944236,-1.76402063,0.86452897,0.81237605

>  <Name>


>  <RI>
0

>  <Rbt.Current_Directory>
/home/itssahil/PROJECTS/Mol_Feturizer/New_Systems/rnas/1qd3

>  <Rbt.Executable>
rbdock ($Id: //depot/dev/client3/rdock/2013.1/src/exe/rbdock.cxx#4 $)

>  <Rbt.Library>
libRbt.so (2013.1, Build901 2013/11/27)

>  <Rbt.Parameter_File>
/export/apps/rDock/src/rDock_2013.1_src/data/scripts/dock_solv.prm

>  <Rbt.Receptor>
prm/pocket_docking_2.prm

>  <SCORE>
-32.0393

>  <SCORE.INTER>
-26.8088

>  <SCORE.INTER.CONST>
1

>  <SCORE.INTER.POLAR>
-4.91693

>  <SCORE.INTER.ROT>
9

>  <SCORE.INTER.SOLV>
42.0148

>  <SCORE.INTER.VDW>
-25.0877

>  <SCORE.INTER.norm>
-0.638306

>  <SCORE.INTRA>
-7.22951

>  <SCORE.INTRA.DIHEDRAL>
-18.2516

>  <SCORE.INTRA.DIHEDRAL.0>
40.6252

>  <SCORE.INTRA.POLAR>
0.578547

>  <SCORE.INTRA.POLAR.0>
-1.20161

>  <SCORE.INTRA.REPUL>
-0.115675

>  <SCORE.INTRA.REPUL.0>
0.115675

>  <SCORE.INTRA.SOLV>
-2.60617

>  <SCORE.INTRA.SOLV.lig_0>
-154.895

>  <SCORE.INTRA.VDW>
1.81068

>  <SCORE.INTRA.VDW.0>
2.2925

>  <SCORE.INTRA.norm>
-0.172131

>  <SCORE.RESTR>
1.999

>  <SCORE.RESTR.CAVITY>
1.999

>  <SCORE.RESTR.norm>
0.0475953

>  <SCORE.SYSTEM>
0

>  <SCORE.SYSTEM.CONST>
0

>  <SCORE.SYSTEM.DIHEDRAL>
0

>  <SCORE.SYSTEM.SOLV>
0

>  <SCORE.SYSTEM.norm>
0

>  <SCORE.heavy>
42

>  <SCORE.norm>
-0.762841

>  <RMSD>
1.861

$$$$

 OpenBabel11021811413D
libRbt.so/2013.1/901 2013/11/27
 42 45  0  0  0  0  0  0  0  0999 V2000
   10.3815   -4.6038   -3.5524 O   0  0  0  0  0  0  0  0  0  0  0  0
   10.1510   -3.4106   -2.8170 C   0  0  0  0  0  0  0  0  0  0  0  0
    9.5853   -3.7534   -1.4383 C   0  0  1  0  0  0  0  0  0  0  0  0
    9.5346   -2.5880   -0.5869 O   0  0  0  0  0  0  0  0  0  0  0  0
    8.1651   -4.2923   -1.4858 C   0  0  2  0  0  0  0  0  0  0  0  0
    7.7307   -4.0556   -0.0491 C   0  0  1  0  0  0  0  0  0  0  0  0
    8.2978   -5.0514    0.7951 O   0  0  0  0  0  0  0  0  0  0  0  0
    8.3625   -2.6834    0.2616 C   0  0  2  0  0  0  0  0  0  0  0  0
    5.5084   -6.1324   -4.3413 C   0  0  2  0  0  0  0  0  0  0  0  0
    6.7885   -5.7917   -3.7872 O   0  0  0  0  0  0  0  0  0  0  0  0
    6.8642   -6.0950   -2.3826 C   0  0  2  0  0  0  0  0  0  0  0  0
    8.1399   -5.6876   -1.8456 O   0  0  0  0  0  0  0  0  0  0  0  0
    6.6368   -7.5967   -2.1383 C   0  0  2  0  0  0  0  0  0  0  0  0
    7.8209   -8.3601   -2.4869 N   0  3  0  0  0  0  0  0  0  0  0  0
    5.4085   -8.1447   -2.8743 C   0  0  1  0  0  0  0  0  0  0  0  0
    4.2334   -7.7699   -2.1732 O   0  0  0  0  0  0  0  0  0  0  0  0
    5.3260   -7.6445   -4.3140 C   0  0  2  0  0  0  0  0  0  0  0  0
    6.3282   -8.2731   -5.1045 O   0  0  0  0  0  0  0  0  0  0  0  0
    5.3777   -5.5950   -5.7635 C   0  0  0  0  0  0  0  0  0  0  0  0
    6.6800   -5.5206   -6.3987 N   0  3  0  0  0  0  0  0  0  0  0  0
    8.2419    3.3936    3.0544 C   0  0  1  0  0  0  0  0  0  0  0  0
    9.1996    2.3161    2.9918 O   0  0  0  0  0  0  0  0  0  0  0  0
    8.5900    1.0184    2.8022 C   0  0  2  0  0  0  0  0  0  0  0  0
    7.9395    0.9068    1.5122 O   0  0  0  0  0  0  0  0  0  0  0  0
    7.6130    0.7084    3.9428 C   0  0  2  0  0  0  0  0  0  0  0  0
    6.8564   -0.4910    3.6348 N   0  3  0  0  0  0  0  0  0  0  0  0
    6.6462    1.8616    4.1878 C   0  0  1  0  0  0  0  0  0  0  0  0
    5.9260    1.6344    5.3894 O   0  0  0  0  0  0  0  0  0  0  0  0
    7.3340    3.2162    4.2603 C   0  0  2  0  0  0  0  0  0  0  0  0
    6.3696    4.2578    4.3003 O   0  0  0  0  0  0  0  0  0  0  0  0
    8.9662    4.7275    3.2122 C   0  0  0  0  0  0  0  0  0  0  0  0
    9.5210    5.1645    1.9441 N   0  3  0  0  0  0  0  0  0  0  0  0
    9.4641    0.4774   -2.4363 C   0  0  2  0  0  0  0  0  0  0  0  0
   10.4003    0.9998   -1.3645 C   0  0  0  0  0  0  0  0  0  0  0  0
    9.6142    1.4658   -0.1531 C   0  0  1  0  0  0  0  0  0  0  0  0
    8.8044    0.3408    0.4929 C   0  0  2  0  0  0  0  0  0  0  0  0
    7.9563   -0.4067   -0.5621 C   0  0  1  0  0  0  0  0  0  0  0  0
    8.6368   -0.6869   -1.9085 C   0  0  1  0  0  0  0  0  0  0  0  0
   10.2388    0.0444   -3.5836 N   0  3  0  0  0  0  0  0  0  0  0  0
   10.5303    2.0504    0.8068 N   0  3  0  0  0  0  0  0  0  0  0  0
    7.3975   -1.6306   -0.0247 O   0  0  0  0  0  0  0  0  0  0  0  0
    7.6590   -1.0581   -2.8746 O   0  0  0  0  0  0  0  0  0  0  0  0
  1  2  1  0  0  0  0
  3  2  1  6  0  0  0
  3  4  1  0  0  0  0
  3  5  1  0  0  0  0
  4  8  1  0  0  0  0
  5  6  1  0  0  0  0
  5 12  1  1  0  0  0
  6  7  1  1  0  0  0
  6  8  1  0  0  0  0
  8 41  1  6  0  0  0
  9 10  1  0  0  0  0
  9 17  1  0  0  0  0
  9 19  1  6  0  0  0
 10 11  1  0  0  0  0
 11 12  1  6  0  0  0
 11 13  1  0  0  0  0
 13 14  1  6  0  0  0
 13 15  1  0  0  0  0
 15 16  1  1  0  0  0
 15 17  1  0  0  0  0
 17 18  1  6  0  0  0
 19 20  1  0  0  0  0
 21 22  1  0  0  0  0
 21 29  1  0  0  0  0
 21 31  1  1  0  0  0
 22 23  1  0  0  0  0
 23 24  1  6  0  0  0
 23 25  1  0  0  0  0
 25 26  1  6  0  0  0
 25 27  1  0  0  0  0
 27 28  1  1  0  0  0
 27 29  1  0  0  0  0
 29 30  1  6  0  0  0
 31 32  1  0  0  0  0
 33 34  1  0  0  0  0
 33 38  1  0  0  0  0
 33 39  1  6  0  0  0
 34 35  1  0  0  0  0
 35 36  1  0  0  0  0
 35 40  1  1  0  0  0
 36 24  1  1  0  0  0
 36 37  1  0  0  0  0
 37 38  1  0  0  0  0
 37 41  1  1  0  0  0
 38 42  1  6  0  0  0
M  CHG  6  14   1  20   1  26   1  32   1  39   1  40   1
M  END
>  <CHROM.1>
-63.85473325,170.97757182,-158.12895561,63.70993241,-27.48556792,29.05959348
83.82155051,79.47710702,-165.23722927,-174.30153366,-24.62189836,77.65038336
93.04923715,-87.07782380,-120.55499862,-52.13486337,-63.09402656,85.55827388
74.54691202,172.64772046,-68.72094345,-59.06600700,7.89497645,-1.98398911
-0.56110445,-1.78296581,0.90968830,0.77616278

>  <Name>


>  <RI>
0

>  <Rbt.Current_Directory>
/home/itssahil/PROJECTS/Mol_Feturizer/New_Systems/rnas/1qd3

>  <Rbt.Executable>
rbdock ($Id: //depot/dev/client3/rdock/2013.1/src/exe/rbdock.cxx#4 $)

>  <Rbt.Library>
libRbt.so (2013.1, Build901 2013/11/27)

>  <Rbt.Parameter_File>
/export/apps/rDock/src/rDock_2013.1_src/data/scripts/dock_solv.prm

>  <Rbt.Receptor>
prm/pocket_docking_3.prm

>  <SCORE>
-57.1786

>  <SCORE.INTER>
-45.955

>  <SCORE.INTER.CONST>
1

>  <SCORE.INTER.POLAR>
-7.32569

>  <SCORE.INTER.ROT>
9

>  <SCORE.INTER.SOLV>
42.904

>  <SCORE.INTER.VDW>
-30.119

>  <SCORE.INTER.norm>
-1.09417

>  <SCORE.INTRA>
-11.4445

>  <SCORE.INTRA.DIHEDRAL>
-8.58553

>  <SCORE.INTRA.DIHEDRAL.0>
40.6252

>  <SCORE.INTRA.POLAR>
-0.197472

>  <SCORE.INTRA.POLAR.0>
-1.20161

>  <SCORE.INTRA.REPUL>
-0.115675

>  <SCORE.INTRA.REPUL.0>
0.115675

>  <SCORE.INTRA.SOLV>
-2.74784

>  <SCORE.INTRA.SOLV.lig_0>
-154.895

>  <SCORE.INTRA.VDW>
-4.52804

>  <SCORE.INTRA.VDW.0>
2.2925

>  <SCORE.INTRA.norm>
-0.272488

>  <SCORE.RESTR>
0.220919

>  <SCORE.RESTR.CAVITY>
0.220919

>  <SCORE.RESTR.norm>
0.00525997

>  <SCORE.SYSTEM>
0

>  <SCORE.SYSTEM.CONST>
0

>  <SCORE.SYSTEM.DIHEDRAL>
0

>  <SCORE.SYSTEM.SOLV>
0

>  <SCORE.SYSTEM.norm>
0

>  <SCORE.heavy>
42

>  <SCORE.norm>
-1.36139

>  <RMSD>
1.892

$$$$

 OpenBabel11021811413D
libRbt.so/2013.1/901 2013/11/27
 42 45  0  0  0  0  0  0  0  0999 V2000
   10.5121   -6.2269    0.8732 O   0  0  0  0  0  0  0  0  0  0  0  0
    9.1781   -6.6309    1.1467 C   0  0  0  0  0  0  0  0  0  0  0  0
    8.1993   -5.5986    0.5858 C   0  0  1  0  0  0  0  0  0  0  0  0
    8.3224   -4.3326    1.2696 O   0  0  0  0  0  0  0  0  0  0  0  0
    8.4200   -5.2958   -0.8870 C   0  0  2  0  0  0  0  0  0  0  0  0
    7.7042   -3.9607   -1.0056 C   0  0  1  0  0  0  0  0  0  0  0  0
    6.2973   -4.1716   -1.0502 O   0  0  0  0  0  0  0  0  0  0  0  0
    8.0883   -3.2652    0.3163 C   0  0  2  0  0  0  0  0  0  0  0  0
    8.4006   -6.6098   -5.3270 C   0  0  2  0  0  0  0  0  0  0  0  0
    8.3513   -6.9814   -3.9410 O   0  0  0  0  0  0  0  0  0  0  0  0
    7.8185   -5.9263   -3.1202 C   0  0  2  0  0  0  0  0  0  0  0  0
    7.8370   -6.3095   -1.7293 O   0  0  0  0  0  0  0  0  0  0  0  0
    6.3874   -5.5688   -3.5567 C   0  0  2  0  0  0  0  0  0  0  0  0
    5.4426   -6.5675   -3.0914 N   0  3  0  0  0  0  0  0  0  0  0  0
    6.2548   -5.3683   -5.0710 C   0  0  1  0  0  0  0  0  0  0  0  0
    6.7678   -4.0935   -5.4239 O   0  0  0  0  0  0  0  0  0  0  0  0
    6.9839   -6.4498   -5.8637 C   0  0  2  0  0  0  0  0  0  0  0  0
    6.2802   -7.6824   -5.7641 O   0  0  0  0  0  0  0  0  0  0  0  0
    9.1736   -7.6483   -6.1350 C   0  0  0  0  0  0  0  0  0  0  0  0
    9.6080   -7.0854   -7.3997 N   0  3  0  0  0  0  0  0  0  0  0  0
    8.7587    3.0025    1.9288 C   0  0  1  0  0  0  0  0  0  0  0  0
    9.6269    1.8606    2.0852 O   0  0  0  0  0  0  0  0  0  0  0  0
    8.9477    0.5961    1.9083 C   0  0  2  0  0  0  0  0  0  0  0  0
    8.4735    0.4193    0.5505 O   0  0  0  0  0  0  0  0  0  0  0  0
    7.8018    0.4524    2.9172 C   0  0  2  0  0  0  0  0  0  0  0  0
    7.0015   -0.7144    2.5950 N   0  3  0  0  0  0  0  0  0  0  0  0
    6.9056    1.6857    2.9339 C   0  0  1  0  0  0  0  0  0  0  0  0
    6.0115    1.6120    4.0336 O   0  0  0  0  0  0  0  0  0  0  0  0
    7.6826    2.9914    3.0022 C   0  0  2  0  0  0  0  0  0  0  0  0
    6.8080    4.0961    2.8253 O   0  0  0  0  0  0  0  0  0  0  0  0
    9.5584    4.2923    2.0881 C   0  0  0  0  0  0  0  0  0  0  0  0
    9.9960    4.7888    0.7963 N   0  3  0  0  0  0  0  0  0  0  0  0
   10.0470   -0.7618   -3.2216 C   0  0  2  0  0  0  0  0  0  0  0  0
   10.5896    0.5043   -2.5888 C   0  0  0  0  0  0  0  0  0  0  0  0
    9.6645    0.9865   -1.4867 C   0  0  1  0  0  0  0  0  0  0  0  0
    9.5149   -0.0313   -0.3550 C   0  0  2  0  0  0  0  0  0  0  0  0
    9.1606   -1.4297   -0.9116 C   0  0  1  0  0  0  0  0  0  0  0  0
    9.9030   -1.8650   -2.1819 C   0  0  1  0  0  0  0  0  0  0  0  0
   10.9452   -1.1979   -4.2737 N   0  3  0  0  0  0  0  0  0  0  0  0
   10.1597    2.2492   -0.9745 N   0  3  0  0  0  0  0  0  0  0  0  0
    9.2790   -2.4529    0.1072 O   0  0  0  0  0  0  0  0  0  0  0  0
    9.2482   -2.9886   -2.7616 O   0  0  0  0  0  0  0  0  0  0  0  0
  1  2  1  0  0  0  0
  3  2  1  1  0  0  0
  3  4  1  0  0  0  0
  3  5  1  0  0  0  0
  4  8  1  0  0  0  0
  5  6  1  0  0  0  0
  5 12  1  6  0  0  0
  6  7  1  1  0  0  0
  6  8  1  0  0  0  0
  8 41  1  6  0  0  0
  9 10  1  0  0  0  0
  9 17  1  0  0  0  0
  9 19  1  6  0  0  0
 10 11  1  0  0  0  0
 11 12  1  1  0  0  0
 11 13  1  0  0  0  0
 13 14  1  6  0  0  0
 13 15  1  0  0  0  0
 15 16  1  1  0  0  0
 15 17  1  0  0  0  0
 17 18  1  1  0  0  0
 19 20  1  0  0  0  0
 21 22  1  0  0  0  0
 21 29  1  0  0  0  0
 21 31  1  1  0  0  0
 22 23  1  0  0  0  0
 23 24  1  6  0  0  0
 23 25  1  0  0  0  0
 25 26  1  6  0  0  0
 25 27  1  0  0  0  0
 27 28  1  1  0  0  0
 27 29  1  0  0  0  0
 29 30  1  6  0  0  0
 31 32  1  0  0  0  0
 33 34  1  0  0  0  0
 33 38  1  0  0  0  0
 33 39  1  6  0  0  0
 34 35  1  0  0  0  0
 35 36  1  0  0  0  0
 35 40  1  1  0  0  0
 36 24  1  1  0  0  0
 36 37  1  0  0  0  0
 37 38  1  0  0  0  0
 37 41  1  1  0  0  0
 38 42  1  6  0  0  0
M  CHG  6  14   1  20   1  26   1  32   1  39   1  40   1
M  END
>  <CHROM.1>
-177.26757519,-65.65692086,169.43014504,-19.44564058,175.26815355,-160.98531309
130.79804965,112.53216753,63.74483206,-175.65252267,54.28484212,94.21219356
80.93525923,-121.39515769,107.06755594,63.45701517,-44.88323568,-70.14325732
-179.70125616,-173.38589457,125.06976494,-50.42501228,8.37561225,-2.33093321
-1.11438621,1.72768864,-1.16869972,-2.37695827

>  <Name>


>  <RI>
0

>  <Rbt.Current_Directory>
/home/itssahil/PROJECTS/Mol_Feturizer/New_Systems/rnas/1qd3

>  <Rbt.Executable>
rbdock ($Id: //depot/dev/client3/rdock/2013.1/src/exe/rbdock.cxx#4 $)

>  <Rbt.Library>
libRbt.so (2013.1, Build901 2013/11/27)

>  <Rbt.Parameter_File>
/export/apps/rDock/src/rDock_2013.1_src/data/scripts/dock_solv.prm

>  <Rbt.Receptor>
prm/pocket_docking_2.prm

>  <SCORE>
-10.1703

>  <SCORE.INTER>
-11.2495

>  <SCORE.INTER.CONST>
1

>  <SCORE.INTER.POLAR>
-3.42118

>  <SCORE.INTER.ROT>
9

>  <SCORE.INTER.SOLV>
37.5055

>  <SCORE.INTER.VDW>
-18.1975

>  <SCORE.INTER.norm>
-0.267844

>  <SCORE.INTRA>
-0.993436

>  <SCORE.INTRA.DIHEDRAL>
1.66716

>  <SCORE.INTRA.DIHEDRAL.0>
40.6252

>  <SCORE.INTRA.POLAR>
1.18307

>  <SCORE.INTRA.POLAR.0>
-1.20161

>  <SCORE.INTRA.REPUL>
-0.115675

>  <SCORE.INTRA.REPUL.0>
0.115675

>  <SCORE.INTRA.SOLV>
-1.05076

>  <SCORE.INTRA.SOLV.lig_0>
-154.895

>  <SCORE.INTRA.VDW>
-4.74569

>  <SCORE.INTRA.VDW.0>
2.2925

>  <SCORE.INTRA.norm>
-0.0236532

>  <SCORE.RESTR>
2.07264

>  <SCORE.RESTR.CAVITY>
2.07264

>  <SCORE.RESTR.norm>
0.0493486

>  <SCORE.SYSTEM>
0

>  <SCORE.SYSTEM.CONST>
0

>  <SCORE.SYSTEM.DIHEDRAL>
0

>  <SCORE.SYSTEM.SOLV>
0

>  <SCORE.SYSTEM.norm>
0

>  <SCORE.heavy>
42

>  <SCORE.norm>
-0.242149

>  <RMSD>
1.931

$$$$

 OpenBabel11021811413D
libRbt.so/2013.1/901 2013/11/27
 42 45  0  0  0  0  0  0  0  0999 V2000
    9.0733   -7.7297    0.4192 O   0  0  0  0  0  0  0  0  0  0  0  0
    9.1073   -6.5027    1.1342 C   0  0  0  0  0  0  0  0  0  0  0  0
    8.1483   -5.5012    0.4895 C   0  0  1  0  0  0  0  0  0  0  0  0
    8.1283   -4.2522    1.2141 O   0  0  0  0  0  0  0  0  0  0  0  0
    8.5204   -5.1436   -0.9399 C   0  0  2  0  0  0  0  0  0  0  0  0
    7.7565   -3.8408   -1.1074 C   0  0  1  0  0  0  0  0  0  0  0  0
    6.3764   -4.1165   -1.3197 O   0  0  0  0  0  0  0  0  0  0  0  0
    7.9513   -3.1685    0.2669 C   0  0  2  0  0  0  0  0  0  0  0  0
    9.7129   -5.7456   -5.1163 C   0  0  2  0  0  0  0  0  0  0  0  0
    9.5056   -6.1890   -3.7665 O   0  0  0  0  0  0  0  0  0  0  0  0
    8.2405   -5.7455   -3.2433 C   0  0  2  0  0  0  0  0  0  0  0  0
    8.0895   -6.1577   -1.8689 O   0  0  0  0  0  0  0  0  0  0  0  0
    7.0803   -6.2892   -4.0945 C   0  0  2  0  0  0  0  0  0  0  0  0
    6.8418   -7.6911   -3.8045 N   0  3  0  0  0  0  0  0  0  0  0  0
    7.2908   -6.0801   -5.5988 C   0  0  1  0  0  0  0  0  0  0  0  0
    7.0087   -4.7298   -5.9306 O   0  0  0  0  0  0  0  0  0  0  0  0
    8.7105   -6.4283   -6.0380 C   0  0  2  0  0  0  0  0  0  0  0  0
    8.8966   -7.8386   -6.0054 O   0  0  0  0  0  0  0  0  0  0  0  0
   11.1439   -6.0319   -5.5626 C   0  0  0  0  0  0  0  0  0  0  0  0
   11.2732   -5.8508   -6.9963 N   0  3  0  0  0  0  0  0  0  0  0  0
    8.4610    3.2125    2.2067 C   0  0  1  0  0  0  0  0  0  0  0  0
    9.4718    2.1954    2.3680 O   0  0  0  0  0  0  0  0  0  0  0  0
    8.9380    0.8513    2.3620 C   0  0  2  0  0  0  0  0  0  0  0  0
    8.3699    0.4980    1.0766 O   0  0  0  0  0  0  0  0  0  0  0  0
    7.9123    0.6722    3.4878 C   0  0  2  0  0  0  0  0  0  0  0  0
    7.2340   -0.6023    3.3418 N   0  3  0  0  0  0  0  0  0  0  0  0
    6.8781    1.7924    3.4936 C   0  0  1  0  0  0  0  0  0  0  0  0
    6.1009    1.7194    4.6788 O   0  0  0  0  0  0  0  0  0  0  0  0
    7.4940    3.1784    3.3788 C   0  0  2  0  0  0  0  0  0  0  0  0
    6.4796    4.1560    3.2008 O   0  0  0  0  0  0  0  0  0  0  0  0
    9.1093    4.5937    2.1812 C   0  0  0  0  0  0  0  0  0  0  0  0
   10.5507    4.4827    2.0507 N   0  3  0  0  0  0  0  0  0  0  0  0
    9.8224   -0.1682   -2.8662 C   0  0  2  0  0  0  0  0  0  0  0  0
   10.4026    0.9909   -2.0802 C   0  0  0  0  0  0  0  0  0  0  0  0
    9.5153    1.3272   -0.8959 C   0  0  1  0  0  0  0  0  0  0  0  0
    9.3792    0.1643    0.0879 C   0  0  2  0  0  0  0  0  0  0  0  0
    8.9870   -1.1388   -0.6464 C   0  0  1  0  0  0  0  0  0  0  0  0
    9.6879   -1.4030   -1.9855 C   0  0  1  0  0  0  0  0  0  0  0  0
   10.6849   -0.4654   -3.9939 N   0  3  0  0  0  0  0  0  0  0  0  0
   10.0449    2.5003   -0.2283 N   0  3  0  0  0  0  0  0  0  0  0  0
    9.1156   -2.2949    0.2172 O   0  0  0  0  0  0  0  0  0  0  0  0
    8.9994   -2.4269   -2.6960 O   0  0  0  0  0  0  0  0  0  0  0  0
  1  2  1  0  0  0  0
  3  2  1  1  0  0  0
  3  4  1  0  0  0  0
  3  5  1  0  0  0  0
  4  8  1  0  0  0  0
  5  6  1  0  0  0  0
  5 12  1  6  0  0  0
  6  7  1  1  0  0  0
  6  8  1  0  0  0  0
  8 41  1  6  0  0  0
  9 10  1  0  0  0  0
  9 17  1  0  0  0  0
  9 19  1  6  0  0  0
 10 11  1  0  0  0  0
 11 12  1  1  0  0  0
 11 13  1  0  0  0  0
 13 14  1  6  0  0  0
 13 15  1  0  0  0  0
 15 16  1  1  0  0  0
 15 17  1  0  0  0  0
 17 18  1  1  0  0  0
 19 20  1  0  0  0  0
 21 22  1  0  0  0  0
 21 29  1  0  0  0  0
 21 31  1  1  0  0  0
 22 23  1  0  0  0  0
 23 24  1  6  0  0  0
 23 25  1  0  0  0  0
 25 26  1  6  0  0  0
 25 27  1  0  0  0  0
 27 28  1  1  0  0  0
 27 29  1  0  0  0  0
 29 30  1  6  0  0  0
 31 32  1  0  0  0  0
 33 34  1  0  0  0  0
 33 38  1  0  0  0  0
 33 39  1  6  0  0  0
 34 35  1  0  0  0  0
 35 36  1  0  0  0  0
 35 40  1  1  0  0  0
 36 24  1  1  0  0  0
 36 37  1  0  0  0  0
 37 38  1  0  0  0  0
 37 41  1  1  0  0  0
 38 42  1  6  0  0  0
M  CHG  6  14   1  20   1  26   1  32   1  39   1  40   1
M  END
>  <CHROM.1>
-177.94297035,178.36662005,170.80173408,-66.78356850,-176.38929039,167.86234214
93.62112715,77.27205141,-72.57857832,-176.45728587,-72.08293797,11.63779849
77.45982666,-104.90625000,132.97921849,-53.30620290,55.47785436,89.76571774
-145.34631982,14.18961755,129.52226708,73.46975829,8.62670721,-2.19338034
-0.94991537,1.49022877,-1.12716950,-2.55773748

>  <Name>


>  <RI>
0

>  <Rbt.Current_Directory>
/home/itssahil/PROJECTS/Mol_Feturizer/New_Systems/rnas/1qd3

>  <Rbt.Executable>
rbdock ($Id: //depot/dev/client3/rdock/2013.1/src/exe/rbdock.cxx#4 $)

>  <Rbt.Library>
libRbt.so (2013.1, Build901 2013/11/27)

>  <Rbt.Parameter_File>
/export/apps/rDock/src/rDock_2013.1_src/data/scripts/dock_solv.prm

>  <Rbt.Receptor>
prm/pocket_docking_2.prm

>  <SCORE>
-17.5555

>  <SCORE.INTER>
-13.9816

>  <SCORE.INTER.CONST>
1

>  <SCORE.INTER.POLAR>
-3.49209

>  <SCORE.INTER.ROT>
9

>  <SCORE.INTER.SOLV>
33.3316

>  <SCORE.INTER.VDW>
-18.3913

>  <SCORE.INTER.norm>
-0.332895

>  <SCORE.INTRA>
-5.28657

>  <SCORE.INTRA.DIHEDRAL>
-2.36143

>  <SCORE.INTRA.DIHEDRAL.0>
40.6252

>  <SCORE.INTRA.POLAR>
0.727828

>  <SCORE.INTRA.POLAR.0>
-1.20161

>  <SCORE.INTRA.REPUL>
-0.0998018

>  <SCORE.INTRA.REPUL.0>
0.115675

>  <SCORE.INTRA.SOLV>
-1.51795

>  <SCORE.INTRA.SOLV.lig_0>
-154.895

>  <SCORE.INTRA.VDW>
-5.32249

>  <SCORE.INTRA.VDW.0>
2.2925

>  <SCORE.INTRA.norm>
-0.125871

>  <SCORE.RESTR>
1.71266

>  <SCORE.RESTR.CAVITY>
1.71266

>  <SCORE.RESTR.norm>
0.0407777

>  <SCORE.SYSTEM>
0

>  <SCORE.SYSTEM.CONST>
0

>  <SCORE.SYSTEM.DIHEDRAL>
0

>  <SCORE.SYSTEM.SOLV>
0

>  <SCORE.SYSTEM.norm>
0

>  <SCORE.heavy>
42

>  <SCORE.norm>
-0.417988

>  <RMSD>
1.931

$$$$

 OpenBabel11021811413D
libRbt.so/2013.1/901 2013/11/27
 42 45  0  0  0  0  0  0  0  0999 V2000
   11.0936   -2.2693   -3.2954 O   0  0  0  0  0  0  0  0  0  0  0  0
    9.8363   -2.9301   -3.2840 C   0  0  0  0  0  0  0  0  0  0  0  0
    9.2824   -2.9644   -1.8591 C   0  0  1  0  0  0  0  0  0  0  0  0
    9.7992   -1.8720   -1.0684 O   0  0  0  0  0  0  0  0  0  0  0  0
    7.7691   -2.8396   -1.7968 C   0  0  2  0  0  0  0  0  0  0  0  0
    7.5860   -2.4063   -0.3519 C   0  0  1  0  0  0  0  0  0  0  0  0
    7.7329   -3.5300    0.5093 O   0  0  0  0  0  0  0  0  0  0  0  0
    8.7659   -1.4337   -0.1502 C   0  0  2  0  0  0  0  0  0  0  0  0
    8.4094   -5.7408   -5.0786 C   0  0  2  0  0  0  0  0  0  0  0  0
    8.2626   -5.4055   -3.6903 O   0  0  0  0  0  0  0  0  0  0  0  0
    7.2042   -4.4543   -3.4760 C   0  0  2  0  0  0  0  0  0  0  0  0
    7.1219   -4.0955   -2.0810 O   0  0  0  0  0  0  0  0  0  0  0  0
    5.8590   -5.0203   -3.9622 C   0  0  2  0  0  0  0  0  0  0  0  0
    5.3372   -5.9908   -3.0176 N   0  3  0  0  0  0  0  0  0  0  0  0
    5.9366   -5.6272   -5.3681 C   0  0  1  0  0  0  0  0  0  0  0  0
    5.9389   -4.5854   -6.3312 O   0  0  0  0  0  0  0  0  0  0  0  0
    7.1762   -6.4980   -5.5545 C   0  0  2  0  0  0  0  0  0  0  0  0
    7.0327   -7.7098   -4.8227 O   0  0  0  0  0  0  0  0  0  0  0  0
    9.6734   -6.5663   -5.3018 C   0  0  0  0  0  0  0  0  0  0  0  0
   10.8532   -5.7784   -4.9977 N   0  3  0  0  0  0  0  0  0  0  0  0
    8.7795    4.7307    2.8424 C   0  0  1  0  0  0  0  0  0  0  0  0
    9.8838    3.8108    2.9706 O   0  0  0  0  0  0  0  0  0  0  0  0
    9.5219    2.4389    2.6904 C   0  0  2  0  0  0  0  0  0  0  0  0
    9.1424    2.2491    1.3049 O   0  0  0  0  0  0  0  0  0  0  0  0
    8.4110    1.9688    3.6372 C   0  0  2  0  0  0  0  0  0  0  0  0
    7.9130    0.6737    3.2124 N   0  3  0  0  0  0  0  0  0  0  0  0
    7.2531    2.9595    3.6857 C   0  0  1  0  0  0  0  0  0  0  0  0
    6.3680    2.6092    4.7384 O   0  0  0  0  0  0  0  0  0  0  0  0
    7.7038    4.4011    3.8644 C   0  0  2  0  0  0  0  0  0  0  0  0
    6.6025    5.2849    3.7133 O   0  0  0  0  0  0  0  0  0  0  0  0
    9.2532    6.1561    3.1118 C   0  0  0  0  0  0  0  0  0  0  0  0
   10.2479    6.5605    2.1352 N   0  3  0  0  0  0  0  0  0  0  0  0
   11.6028    1.1178   -1.9763 C   0  0  2  0  0  0  0  0  0  0  0  0
   12.2723    1.3810   -0.6420 C   0  0  0  0  0  0  0  0  0  0  0  0
   11.3396    2.1454    0.2792 C   0  0  1  0  0  0  0  0  0  0  0  0
   10.0536    1.3768    0.5862 C   0  0  2  0  0  0  0  0  0  0  0  0
    9.3857    0.8737   -0.7144 C   0  0  1  0  0  0  0  0  0  0  0  0
   10.3255    0.3104   -1.7885 C   0  0  1  0  0  0  0  0  0  0  0  0
   12.5158    0.3922   -2.8388 N   0  3  0  0  0  0  0  0  0  0  0  0
   12.0460    2.4670    1.5039 N   0  3  0  0  0  0  0  0  0  0  0  0
    8.3265   -0.0747   -0.4355 O   0  0  0  0  0  0  0  0  0  0  0  0
    9.6342    0.2100   -3.0291 O   0  0  0  0  0  0  0  0  0  0  0  0
  1  2  1  0  0  0  0
  3  2  1  6  0  0  0
  3  4  1  0  0  0  0
  3  5  1  0  0  0  0
  4  8  1  0  0  0  0
  5  6  1  0  0  0  0
  5 12  1  1  0  0  0
  6  7  1  1  0  0  0
  6  8  1  0  0  0  0
  8 41  1  6  0  0  0
  9 10  1  0  0  0  0
  9 17  1  0  0  0  0
  9 19  1  1  0  0  0
 10 11  1  0  0  0  0
 11 12  1  1  0  0  0
 11 13  1  0  0  0  0
 13 14  1  1  0  0  0
 13 15  1  0  0  0  0
 15 16  1  6  0  0  0
 15 17  1  0  0  0  0
 17 18  1  1  0  0  0
 19 20  1  0  0  0  0
 21 22  1  0  0  0  0
 21 29  1  0  0  0  0
 21 31  1  1  0  0  0
 22 23  1  0  0  0  0
 23 24  1  6  0  0  0
 23 25  1  0  0  0  0
 25 26  1  6  0  0  0
 25 27  1  0  0  0  0
 27 28  1  1  0  0  0
 27 29  1  0  0  0  0
 29 30  1  6  0  0  0
 31 32  1  0  0  0  0
 33 34  1  0  0  0  0
 33 38  1  0  0  0  0
 33 39  1  6  0  0  0
 34 35  1  0  0  0  0
 35 36  1  0  0  0  0
 35 40  1  1  0  0  0
 36 24  1  6  0  0  0
 36 37  1  0  0  0  0
 37 38  1  0  0  0  0
 37 41  1  1  0  0  0
 38 42  1  6  0  0  0
M  CHG  6  14   1  20   1  26   1  32   1  39   1  40   1
M  END
>  <CHROM.1>
62.46246788,26.07466209,-72.59143976,-64.94885616,-43.86517612,-65.08719227
99.39719612,76.98096453,-55.92256993,178.73472854,-175.22829426,62.31550163
115.17068900,-75.37110406,161.49305959,-60.15519017,-68.31032739,-175.92329058
104.67439963,-64.14044509,-79.83240064,74.92872050,8.79599533,-0.81585157
-0.86148337,-1.69370699,0.49624272,0.71417821

>  <Name>


>  <RI>
0

>  <Rbt.Current_Directory>
/home/itssahil/PROJECTS/Mol_Feturizer/New_Systems/rnas/1qd3

>  <Rbt.Executable>
rbdock ($Id: //depot/dev/client3/rdock/2013.1/src/exe/rbdock.cxx#4 $)

>  <Rbt.Library>
libRbt.so (2013.1, Build901 2013/11/27)

>  <Rbt.Parameter_File>
/export/apps/rDock/src/rDock_2013.1_src/data/scripts/dock_solv.prm

>  <Rbt.Receptor>
prm/pocket_docking_3.prm

>  <SCORE>
-47.1757

>  <SCORE.INTER>
-31.335

>  <SCORE.INTER.CONST>
1

>  <SCORE.INTER.POLAR>
-4.36162

>  <SCORE.INTER.ROT>
9

>  <SCORE.INTER.SOLV>
33.1729

>  <SCORE.INTER.VDW>
-27.0089

>  <SCORE.INTER.norm>
-0.746072

>  <SCORE.INTRA>
-16.7446

>  <SCORE.INTRA.DIHEDRAL>
-11.8028

>  <SCORE.INTRA.DIHEDRAL.0>
40.6252

>  <SCORE.INTRA.POLAR>
-1.77494

>  <SCORE.INTRA.POLAR.0>
-1.20161

>  <SCORE.INTRA.REPUL>
-0.115675

>  <SCORE.INTRA.REPUL.0>
0.115675

>  <SCORE.INTRA.SOLV>
-6.07675

>  <SCORE.INTRA.SOLV.lig_0>
-154.895

>  <SCORE.INTRA.VDW>
-1.19164

>  <SCORE.INTRA.VDW.0>
2.2925

>  <SCORE.INTRA.norm>
-0.398681

>  <SCORE.RESTR>
0.903934

>  <SCORE.RESTR.CAVITY>
0.903934

>  <SCORE.RESTR.norm>
0.0215222

>  <SCORE.SYSTEM>
0

>  <SCORE.SYSTEM.CONST>
0

>  <SCORE.SYSTEM.DIHEDRAL>
0

>  <SCORE.SYSTEM.SOLV>
0

>  <SCORE.SYSTEM.norm>
0

>  <SCORE.heavy>
42

>  <SCORE.norm>
-1.12323

>  <RMSD>
1.995

$$$$

 OpenBabel11021811413D
libRbt.so/2013.1/901 2013/11/27
 42 45  0  0  0  0  0  0  0  0999 V2000
   12.1071   -2.5098   -1.1323 O   0  0  0  0  0  0  0  0  0  0  0  0
   11.0489   -3.1301   -1.8485 C   0  0  0  0  0  0  0  0  0  0  0  0
   10.0690   -3.7758   -0.8680 C   0  0  1  0  0  0  0  0  0  0  0  0
    9.4948   -2.7950    0.0230 O   0  0  0  0  0  0  0  0  0  0  0  0
    8.8921   -4.4539   -1.5496 C   0  0  2  0  0  0  0  0  0  0  0  0
    7.9082   -4.5287   -0.3941 C   0  0  1  0  0  0  0  0  0  0  0  0
    8.2746   -5.5894    0.4815 O   0  0  0  0  0  0  0  0  0  0  0  0
    8.1237   -3.1721    0.3072 C   0  0  2  0  0  0  0  0  0  0  0  0
    6.0591   -6.0186   -3.8139 C   0  0  2  0  0  0  0  0  0  0  0  0
    7.1812   -5.4137   -3.1532 O   0  0  0  0  0  0  0  0  0  0  0  0
    8.1657   -6.3885   -2.7644 C   0  0  2  0  0  0  0  0  0  0  0  0
    9.2499   -5.7560   -2.0530 O   0  0  0  0  0  0  0  0  0  0  0  0
    8.7010   -7.1403   -3.9952 C   0  0  2  0  0  0  0  0  0  0  0  0
    9.6387   -6.3154   -4.7346 N   0  3  0  0  0  0  0  0  0  0  0  0
    7.5875   -7.6478   -4.9190 C   0  0  1  0  0  0  0  0  0  0  0  0
    7.0057   -8.8141   -4.3586 O   0  0  0  0  0  0  0  0  0  0  0  0
    6.5047   -6.5974   -5.1507 C   0  0  2  0  0  0  0  0  0  0  0  0
    7.0035   -5.5628   -5.9906 O   0  0  0  0  0  0  0  0  0  0  0  0
    4.9376   -5.0022   -4.0086 C   0  0  0  0  0  0  0  0  0  0  0  0
    5.4772   -3.7318   -4.4558 N   0  3  0  0  0  0  0  0  0  0  0  0
    8.2840    3.0699    2.3116 C   0  0  1  0  0  0  0  0  0  0  0  0
    9.2049    1.9601    2.3609 O   0  0  0  0  0  0  0  0  0  0  0  0
    8.5485    0.6718    2.3871 C   0  0  2  0  0  0  0  0  0  0  0  0
    7.8312    0.4022    1.1572 O   0  0  0  0  0  0  0  0  0  0  0  0
    7.6209    0.5624    3.6034 C   0  0  2  0  0  0  0  0  0  0  0  0
    6.8147   -0.6401    3.5050 N   0  3  0  0  0  0  0  0  0  0  0  0
    6.7022    1.7732    3.7241 C   0  0  1  0  0  0  0  0  0  0  0  0
    6.0366    1.7451    4.9772 O   0  0  0  0  0  0  0  0  0  0  0  0
    7.4326    3.0984    3.5705 C   0  0  2  0  0  0  0  0  0  0  0  0
    6.5027    4.1696    3.5043 O   0  0  0  0  0  0  0  0  0  0  0  0
    9.0544    4.3853    2.2437 C   0  0  0  0  0  0  0  0  0  0  0  0
   10.2839    4.3012    3.0105 N   0  3  0  0  0  0  0  0  0  0  0  0
    9.2577   -0.3092   -2.7872 C   0  0  2  0  0  0  0  0  0  0  0  0
   10.2330    0.2424   -1.7662 C   0  0  0  0  0  0  0  0  0  0  0  0
    9.4883    0.8052   -0.5697 C   0  0  1  0  0  0  0  0  0  0  0  0
    8.6553   -0.2517    0.1569 C   0  0  2  0  0  0  0  0  0  0  0  0
    7.7610   -1.0300   -0.8358 C   0  0  1  0  0  0  0  0  0  0  0  0
    8.4035   -1.4116   -2.1759 C   0  0  1  0  0  0  0  0  0  0  0  0
    9.9934   -0.8349   -3.9214 N   0  3  0  0  0  0  0  0  0  0  0  0
   10.4432    1.4130    0.3364 N   0  3  0  0  0  0  0  0  0  0  0  0
    7.1734   -2.2006   -0.2165 O   0  0  0  0  0  0  0  0  0  0  0  0
    7.3939   -1.8048   -3.0997 O   0  0  0  0  0  0  0  0  0  0  0  0
  1  2  1  0  0  0  0
  3  2  1  6  0  0  0
  3  4  1  0  0  0  0
  3  5  1  0  0  0  0
  4  8  1  0  0  0  0
  5  6  1  0  0  0  0
  5 12  1  1  0  0  0
  6  7  1  1  0  0  0
  6  8  1  0  0  0  0
  8 41  1  6  0  0  0
  9 10  1  0  0  0  0
  9 17  1  0  0  0  0
  9 19  1  6  0  0  0
 10 11  1  0  0  0  0
 11 12  1  6  0  0  0
 11 13  1  0  0  0  0
 13 14  1  6  0  0  0
 13 15  1  0  0  0  0
 15 16  1  1  0  0  0
 15 17  1  0  0  0  0
 17 18  1  6  0  0  0
 19 20  1  0  0  0  0
 21 22  1  0  0  0  0
 21 29  1  0  0  0  0
 21 31  1  1  0  0  0
 22 23  1  0  0  0  0
 23 24  1  6  0  0  0
 23 25  1  0  0  0  0
 25 26  1  6  0  0  0
 25 27  1  0  0  0  0
 27 28  1  1  0  0  0
 27 29  1  0  0  0  0
 29 30  1  6  0  0  0
 31 32  1  0  0  0  0
 33 34  1  0  0  0  0
 33 38  1  0  0  0  0
 33 39  1  6  0  0  0
 34 35  1  0  0  0  0
 35 36  1  0  0  0  0
 35 40  1  1  0  0  0
 36 24  1  1  0  0  0
 36 37  1  0  0  0  0
 37 38  1  0  0  0  0
 37 41  1  1  0  0  0
 38 42  1  6  0  0  0
M  CHG  6  14   1  20   1  26   1  32   1  39   1  40   1
M  END
>  <CHROM.1>
179.78110619,60.28536288,-177.01663164,-173.56063732,-3.48800017,43.05236185
18.42670012,-174.28054780,-59.30758001,-175.22600396,153.76964778,-34.46364567
89.04854720,-82.02095936,126.38059232,-51.40296666,67.57984342,17.52503425
-80.39527807,-71.73556761,-59.28079585,-58.27287458,8.25978694,-1.99535448
-0.78892009,-1.63000019,0.64330761,0.70737688

>  <Name>


>  <RI>
0

>  <Rbt.Current_Directory>
/home/itssahil/PROJECTS/Mol_Feturizer/New_Systems/rnas/1qd3

>  <Rbt.Executable>
rbdock ($Id: //depot/dev/client3/rdock/2013.1/src/exe/rbdock.cxx#4 $)

>  <Rbt.Library>
libRbt.so (2013.1, Build901 2013/11/27)

>  <Rbt.Parameter_File>
/export/apps/rDock/src/rDock_2013.1_src/data/scripts/dock_solv.prm

>  <Rbt.Receptor>
prm/pocket_docking_2.prm

>  <SCORE>
-55.1787

>  <SCORE.INTER>
-45.1641

>  <SCORE.INTER.CONST>
1

>  <SCORE.INTER.POLAR>
-7.23948

>  <SCORE.INTER.ROT>
9

>  <SCORE.INTER.SOLV>
43.7522

>  <SCORE.INTER.VDW>
-30.1619

>  <SCORE.INTER.norm>
-1.07534

>  <SCORE.INTRA>
-10.6988

>  <SCORE.INTRA.DIHEDRAL>
-8.00028

>  <SCORE.INTRA.DIHEDRAL.0>
40.6252

>  <SCORE.INTRA.POLAR>
-1.48058

>  <SCORE.INTRA.POLAR.0>
-1.20161

>  <SCORE.INTRA.REPUL>
0.726593

>  <SCORE.INTRA.REPUL.0>
0.115675

>  <SCORE.INTRA.SOLV>
0.66035

>  <SCORE.INTRA.SOLV.lig_0>
-154.895

>  <SCORE.INTRA.VDW>
-5.62786

>  <SCORE.INTRA.VDW.0>
2.2925

>  <SCORE.INTRA.norm>
-0.254734

>  <SCORE.RESTR>
0.684263

>  <SCORE.RESTR.CAVITY>
0.684263

>  <SCORE.RESTR.norm>
0.016292

>  <SCORE.SYSTEM>
0

>  <SCORE.SYSTEM.CONST>
0

>  <SCORE.SYSTEM.DIHEDRAL>
0

>  <SCORE.SYSTEM.SOLV>
0

>  <SCORE.SYSTEM.norm>
0

>  <SCORE.heavy>
42

>  <SCORE.norm>
-1.31378

>  <RMSD>
2.021

$$$$

 OpenBabel11021811413D
libRbt.so/2013.1/901 2013/11/27
 42 45  0  0  0  0  0  0  0  0999 V2000
   11.4620   -3.1707   -0.8426 O   0  0  0  0  0  0  0  0  0  0  0  0
   10.4399   -2.3932   -1.4495 C   0  0  0  0  0  0  0  0  0  0  0  0
    9.0805   -3.0545   -1.2188 C   0  0  1  0  0  0  0  0  0  0  0  0
    8.5038   -2.6440    0.0400 O   0  0  0  0  0  0  0  0  0  0  0  0
    8.0506   -2.7025   -2.2794 C   0  0  2  0  0  0  0  0  0  0  0  0
    6.7667   -3.0516   -1.5454 C   0  0  1  0  0  0  0  0  0  0  0  0
    6.5823   -4.4629   -1.5435 O   0  0  0  0  0  0  0  0  0  0  0  0
    7.0643   -2.5601   -0.1141 C   0  0  2  0  0  0  0  0  0  0  0  0
    7.1597   -6.9243   -4.0960 C   0  0  2  0  0  0  0  0  0  0  0  0
    7.3822   -5.5252   -4.3296 O   0  0  0  0  0  0  0  0  0  0  0  0
    8.0763   -4.9010   -3.2344 C   0  0  2  0  0  0  0  0  0  0  0  0
    8.2318   -3.4869   -3.4747 O   0  0  0  0  0  0  0  0  0  0  0  0
    9.4492   -5.5598   -3.0157 C   0  0  2  0  0  0  0  0  0  0  0  0
   10.3978   -5.1191   -4.0219 N   0  3  0  0  0  0  0  0  0  0  0  0
    9.3802   -7.0910   -2.9766 C   0  0  1  0  0  0  0  0  0  0  0  0
    8.8882   -7.5080   -1.7129 O   0  0  0  0  0  0  0  0  0  0  0  0
    8.4944   -7.6585   -4.0824 C   0  0  2  0  0  0  0  0  0  0  0  0
    9.1420   -7.5209   -5.3419 O   0  0  0  0  0  0  0  0  0  0  0  0
    6.2306   -7.5057   -5.1578 C   0  0  0  0  0  0  0  0  0  0  0  0
    5.1014   -6.6226   -5.3813 N   0  3  0  0  0  0  0  0  0  0  0  0
    8.4307    3.5209    3.0887 C   0  0  1  0  0  0  0  0  0  0  0  0
    9.3183    2.3918    2.9498 O   0  0  0  0  0  0  0  0  0  0  0  0
    8.6251    1.1255    2.8628 C   0  0  2  0  0  0  0  0  0  0  0  0
    7.8301    1.0230    1.6557 O   0  0  0  0  0  0  0  0  0  0  0  0
    7.7662    0.8927    4.1118 C   0  0  2  0  0  0  0  0  0  0  0  0
    6.9190   -0.2698    3.9208 N   0  3  0  0  0  0  0  0  0  0  0  0
    6.8938    2.1016    4.4310 C   0  0  1  0  0  0  0  0  0  0  0  0
    6.3009    1.9388    5.7102 O   0  0  0  0  0  0  0  0  0  0  0  0
    7.6546    3.4180    4.3915 C   0  0  2  0  0  0  0  0  0  0  0  0
    6.7559    4.5112    4.5097 O   0  0  0  0  0  0  0  0  0  0  0  0
    9.2361    4.8164    3.1304 C   0  0  0  0  0  0  0  0  0  0  0  0
    9.6822    5.1875    1.8000 N   0  3  0  0  0  0  0  0  0  0  0  0
    9.1595    0.3200   -2.3240 C   0  0  2  0  0  0  0  0  0  0  0  0
   10.2084    0.5127   -1.2466 C   0  0  0  0  0  0  0  0  0  0  0  0
    9.5914    1.1396   -0.0101 C   0  0  1  0  0  0  0  0  0  0  0  0
    8.4944    0.2707    0.6066 C   0  0  2  0  0  0  0  0  0  0  0  0
    7.4654   -0.1634   -0.4628 C   0  0  1  0  0  0  0  0  0  0  0  0
    8.0343   -0.5772   -1.8265 C   0  0  1  0  0  0  0  0  0  0  0  0
    9.7752   -0.2744   -3.4952 N   0  3  0  0  0  0  0  0  0  0  0  0
   10.6386    1.4017    0.9579 N   0  3  0  0  0  0  0  0  0  0  0  0
    6.5804   -1.1948    0.0389 O   0  0  0  0  0  0  0  0  0  0  0  0
    6.9892   -0.6171   -2.7925 O   0  0  0  0  0  0  0  0  0  0  0  0
  1  2  1  0  0  0  0
  3  2  1  6  0  0  0
  3  4  1  0  0  0  0
  3  5  1  0  0  0  0
  4  8  1  0  0  0  0
  5  6  1  0  0  0  0
  5 12  1  6  0  0  0
  6  7  1  1  0  0  0
  6  8  1  0  0  0  0
  8 41  1  6  0  0  0
  9 10  1  0  0  0  0
  9 17  1  0  0  0  0
  9 19  1  6  0  0  0
 10 11  1  0  0  0  0
 11 12  1  6  0  0  0
 11 13  1  0  0  0  0
 13 14  1  6  0  0  0
 13 15  1  0  0  0  0
 15 16  1  1  0  0  0
 15 17  1  0  0  0  0
 17 18  1  6  0  0  0
 19 20  1  0  0  0  0
 21 22  1  0  0  0  0
 21 29  1  0  0  0  0
 21 31  1  1  0  0  0
 22 23  1  0  0  0  0
 23 24  1  6  0  0  0
 23 25  1  0  0  0  0
 25 26  1  6  0  0  0
 25 27  1  0  0  0  0
 27 28  1  1  0  0  0
 27 29  1  0  0  0  0
 29 30  1  6  0  0  0
 31 32  1  0  0  0  0
 33 34  1  0  0  0  0
 33 38  1  0  0  0  0
 33 39  1  6  0  0  0
 34 35  1  0  0  0  0
 35 36  1  0  0  0  0
 35 40  1  1  0  0  0
 36 24  1  1  0  0  0
 36 37  1  0  0  0  0
 37 38  1  0  0  0  0
 37 41  1  1  0  0  0
 38 42  1  6  0  0  0
M  CHG  6  14   1  20   1  26   1  32   1  39   1  40   1
M  END
>  <CHROM.1>
-63.46906955,86.56544117,61.47267359,130.84298329,34.87283373,-44.94791864
141.01354549,64.88678233,-48.11830016,177.98446590,29.41521754,76.94602932
98.91511073,-75.11950275,146.27819339,-175.03115536,-178.08436956,85.87190428
-49.55699390,-67.64834492,-87.11447639,-86.54237616,8.29322444,-1.62012262
-0.57171099,-1.57735672,0.74680144,0.67987421

>  <Name>


>  <RI>
0

>  <Rbt.Current_Directory>
/home/itssahil/PROJECTS/Mol_Feturizer/New_Systems/rnas/1qd3

>  <Rbt.Executable>
rbdock ($Id: //depot/dev/client3/rdock/2013.1/src/exe/rbdock.cxx#4 $)

>  <Rbt.Library>
libRbt.so (2013.1, Build901 2013/11/27)

>  <Rbt.Parameter_File>
/export/apps/rDock/src/rDock_2013.1_src/data/scripts/dock_solv.prm

>  <Rbt.Receptor>
prm/pocket_docking_2.prm

>  <SCORE>
-26.9647

>  <SCORE.INTER>
-51.3202

>  <SCORE.INTER.CONST>
1

>  <SCORE.INTER.POLAR>
-8.13755

>  <SCORE.INTER.ROT>
9

>  <SCORE.INTER.SOLV>
42.971

>  <SCORE.INTER.VDW>
-31.012

>  <SCORE.INTER.norm>
-1.22191

>  <SCORE.INTRA>
22.0755

>  <SCORE.INTRA.DIHEDRAL>
-2.43272

>  <SCORE.INTRA.DIHEDRAL.0>
40.6252

>  <SCORE.INTRA.POLAR>
-0.227594

>  <SCORE.INTRA.POLAR.0>
-1.20161

>  <SCORE.INTRA.REPUL>
-0.115675

>  <SCORE.INTRA.REPUL.0>
0.115675

>  <SCORE.INTRA.SOLV>
-2.33896

>  <SCORE.INTRA.SOLV.lig_0>
-154.895

>  <SCORE.INTRA.VDW>
25.8135

>  <SCORE.INTRA.VDW.0>
2.2925

>  <SCORE.INTRA.norm>
0.525606

>  <SCORE.RESTR>
2.28012

>  <SCORE.RESTR.CAVITY>
2.28012

>  <SCORE.RESTR.norm>
0.0542885

>  <SCORE.SYSTEM>
0

>  <SCORE.SYSTEM.CONST>
0

>  <SCORE.SYSTEM.DIHEDRAL>
0

>  <SCORE.SYSTEM.SOLV>
0

>  <SCORE.SYSTEM.norm>
0

>  <SCORE.heavy>
42

>  <SCORE.norm>
-0.642016

>  <RMSD>
2.089

$$$$

 OpenBabel11021811413D
libRbt.so/2013.1/901 2013/11/27
 42 45  0  0  0  0  0  0  0  0999 V2000
    8.3699   -5.7128   -1.4533 O   0  0  0  0  0  0  0  0  0  0  0  0
    7.0062   -5.6015   -1.8348 C   0  0  0  0  0  0  0  0  0  0  0  0
    6.5409   -4.1535   -1.6765 C   0  0  1  0  0  0  0  0  0  0  0  0
    6.9363   -3.6118   -0.3975 O   0  0  0  0  0  0  0  0  0  0  0  0
    7.1232   -3.2150   -2.7204 C   0  0  2  0  0  0  0  0  0  0  0  0
    6.9161   -1.8750   -2.0347 C   0  0  1  0  0  0  0  0  0  0  0  0
    5.5525   -1.4829   -2.1471 O   0  0  0  0  0  0  0  0  0  0  0  0
    7.2470   -2.2052   -0.5649 C   0  0  2  0  0  0  0  0  0  0  0  0
    8.6766   -5.9288   -5.1393 C   0  0  2  0  0  0  0  0  0  0  0  0
    7.9660   -5.0784   -4.2264 O   0  0  0  0  0  0  0  0  0  0  0  0
    7.0673   -4.1871   -4.9109 C   0  0  2  0  0  0  0  0  0  0  0  0
    6.4137   -3.3086   -3.9714 O   0  0  0  0  0  0  0  0  0  0  0  0
    6.0234   -4.9808   -5.7152 C   0  0  2  0  0  0  0  0  0  0  0  0
    5.0030   -5.5252   -4.8383 N   0  3  0  0  0  0  0  0  0  0  0  0
    6.6436   -6.0909   -6.5717 C   0  0  1  0  0  0  0  0  0  0  0  0
    7.2242   -5.5203   -7.7337 O   0  0  0  0  0  0  0  0  0  0  0  0
    7.7005   -6.8866   -5.8105 C   0  0  2  0  0  0  0  0  0  0  0  0
    7.0766   -7.7134   -4.8350 O   0  0  0  0  0  0  0  0  0  0  0  0
    9.7779   -6.6961   -4.4132 C   0  0  0  0  0  0  0  0  0  0  0  0
   10.7433   -7.2168   -5.3628 N   0  3  0  0  0  0  0  0  0  0  0  0
    8.5897    3.4736    2.2006 C   0  0  1  0  0  0  0  0  0  0  0  0
    9.5902    2.4590    2.4280 O   0  0  0  0  0  0  0  0  0  0  0  0
    9.0842    1.1123    2.2808 C   0  0  2  0  0  0  0  0  0  0  0  0
    8.6840    0.8281    0.9175 O   0  0  0  0  0  0  0  0  0  0  0  0
    7.9314    0.8582    3.2598 C   0  0  2  0  0  0  0  0  0  0  0  0
    7.2979   -0.4125    2.9600 N   0  3  0  0  0  0  0  0  0  0  0  0
    6.8854    1.9658    3.2008 C   0  0  1  0  0  0  0  0  0  0  0  0
    5.9702    1.8167    4.2752 O   0  0  0  0  0  0  0  0  0  0  0  0
    7.4870    3.3622    3.2408 C   0  0  2  0  0  0  0  0  0  0  0  0
    6.4856    4.3383    2.9941 O   0  0  0  0  0  0  0  0  0  0  0  0
    9.2126    4.8604    2.3327 C   0  0  0  0  0  0  0  0  0  0  0  0
   10.0583    5.1550    1.1905 N   0  3  0  0  0  0  0  0  0  0  0  0
   10.8619    0.1032   -2.6645 C   0  0  2  0  0  0  0  0  0  0  0  0
   11.5557    0.8623   -1.5508 C   0  0  0  0  0  0  0  0  0  0  0  0
   10.5416    1.3757   -0.5454 C   0  0  1  0  0  0  0  0  0  0  0  0
    9.7544    0.2493    0.1258 C   0  0  2  0  0  0  0  0  0  0  0  0
    9.1670   -0.7189   -0.9270 C   0  0  1  0  0  0  0  0  0  0  0  0
   10.0807   -1.0785   -2.1060 C   0  0  1  0  0  0  0  0  0  0  0  0
   11.8512   -0.3712   -3.6134 N   0  3  0  0  0  0  0  0  0  0  0  0
   11.2274    2.1799    0.4471 N   0  3  0  0  0  0  0  0  0  0  0  0
    8.6538   -1.9257   -0.3113 O   0  0  0  0  0  0  0  0  0  0  0  0
    9.3140   -1.6807   -3.1436 O   0  0  0  0  0  0  0  0  0  0  0  0
  1  2  1  0  0  0  0
  3  2  1  6  0  0  0
  3  4  1  0  0  0  0
  3  5  1  0  0  0  0
  4  8  1  0  0  0  0
  5  6  1  0  0  0  0
  5 12  1  6  0  0  0
  6  7  1  1  0  0  0
  6  8  1  0  0  0  0
  8 41  1  6  0  0  0
  9 10  1  0  0  0  0
  9 17  1  0  0  0  0
  9 19  1  1  0  0  0
 10 11  1  0  0  0  0
 11 12  1  1  0  0  0
 11 13  1  0  0  0  0
 13 14  1  1  0  0  0
 13 15  1  0  0  0  0
 15 16  1  6  0  0  0
 15 17  1  0  0  0  0
 17 18  1  1  0  0  0
 19 20  1  0  0  0  0
 21 22  1  0  0  0  0
 21 29  1  0  0  0  0
 21 31  1  1  0  0  0
 22 23  1  0  0  0  0
 23 24  1  6  0  0  0
 23 25  1  0  0  0  0
 25 26  1  6  0  0  0
 25 27  1  0  0  0  0
 27 28  1  1  0  0  0
 27 29  1  0  0  0  0
 29 30  1  6  0  0  0
 31 32  1  0  0  0  0
 33 34  1  0  0  0  0
 33 38  1  0  0  0  0
 33 39  1  6  0  0  0
 34 35  1  0  0  0  0
 35 36  1  0  0  0  0
 35 40  1  1  0  0  0
 36 24  1  6  0  0  0
 36 37  1  0  0  0  0
 37 38  1  0  0  0  0
 37 41  1  1  0  0  0
 38 42  1  6  0  0  0
M  CHG  6  14   1  20   1  26   1  32   1  39   1  40   1
M  END
>  <CHROM.1>
-172.99894511,-47.30364843,-96.98927126,-68.55677019,157.24712187,-162.20940944
19.92337271,88.87209247,-59.10090787,53.12131496,176.94221895,72.89425200
91.56423689,-90.01826130,14.64077290,62.34270206,-52.30003284,-69.65787243
42.44143318,80.81271584,122.24903763,128.88395268,8.24405007,-1.63611427
-1.41985849,1.67487459,-0.54129346,-2.38841416

>  <Name>


>  <RI>
0

>  <Rbt.Current_Directory>
/home/itssahil/PROJECTS/Mol_Feturizer/New_Systems/rnas/1qd3

>  <Rbt.Executable>
rbdock ($Id: //depot/dev/client3/rdock/2013.1/src/exe/rbdock.cxx#4 $)

>  <Rbt.Library>
libRbt.so (2013.1, Build901 2013/11/27)

>  <Rbt.Parameter_File>
/export/apps/rDock/src/rDock_2013.1_src/data/scripts/dock_solv.prm

>  <Rbt.Receptor>
prm/pocket_docking_2.prm

>  <SCORE>
-20.5125

>  <SCORE.INTER>
-18.8334

>  <SCORE.INTER.CONST>
1

>  <SCORE.INTER.POLAR>
-2.33053

>  <SCORE.INTER.ROT>
9

>  <SCORE.INTER.SOLV>
35.2514

>  <SCORE.INTER.VDW>
-26.1376

>  <SCORE.INTER.norm>
-0.448414

>  <SCORE.INTRA>
-3.38999

>  <SCORE.INTRA.DIHEDRAL>
3.11322

>  <SCORE.INTRA.DIHEDRAL.0>
40.6252

>  <SCORE.INTRA.POLAR>
0.0543078

>  <SCORE.INTRA.POLAR.0>
-1.20161

>  <SCORE.INTRA.REPUL>
-0.115675

>  <SCORE.INTRA.REPUL.0>
0.115675

>  <SCORE.INTRA.SOLV>
-2.09446

>  <SCORE.INTRA.SOLV.lig_0>
-154.895

>  <SCORE.INTRA.VDW>
-3.50565

>  <SCORE.INTRA.VDW.0>
2.2925

>  <SCORE.INTRA.norm>
-0.0807141

>  <SCORE.RESTR>
1.7109

>  <SCORE.RESTR.CAVITY>
1.7109

>  <SCORE.RESTR.norm>
0.0407358

>  <SCORE.SYSTEM>
0

>  <SCORE.SYSTEM.CONST>
0

>  <SCORE.SYSTEM.DIHEDRAL>
0

>  <SCORE.SYSTEM.SOLV>
0

>  <SCORE.SYSTEM.norm>
0

>  <SCORE.heavy>
42

>  <SCORE.norm>
-0.488392

>  <RMSD>
2.242

$$$$

 OpenBabel11021811413D
libRbt.so/2013.1/901 2013/11/27
 42 45  0  0  0  0  0  0  0  0999 V2000
   11.0347   -3.8829   -3.1358 O   0  0  0  0  0  0  0  0  0  0  0  0
    9.6401   -3.6839   -2.9533 C   0  0  0  0  0  0  0  0  0  0  0  0
    9.2956   -3.7670   -1.4657 C   0  0  1  0  0  0  0  0  0  0  0  0
    9.7933   -2.6178   -0.7466 O   0  0  0  0  0  0  0  0  0  0  0  0
    7.8010   -3.8090   -1.1939 C   0  0  2  0  0  0  0  0  0  0  0  0
    7.7729   -3.3864    0.2654 C   0  0  1  0  0  0  0  0  0  0  0  0
    8.1602   -4.4798    1.0902 O   0  0  0  0  0  0  0  0  0  0  0  0
    8.8549   -2.2882    0.3088 C   0  0  2  0  0  0  0  0  0  0  0  0
    7.9686   -6.1322   -4.8370 C   0  0  2  0  0  0  0  0  0  0  0  0
    8.1842   -5.8968   -3.4371 O   0  0  0  0  0  0  0  0  0  0  0  0
    6.9968   -5.4120   -2.7844 C   0  0  2  0  0  0  0  0  0  0  0  0
    7.2631   -5.1308   -1.3946 O   0  0  0  0  0  0  0  0  0  0  0  0
    5.8519   -6.4312   -2.9134 C   0  0  2  0  0  0  0  0  0  0  0  0
    6.0444   -7.5405   -1.9974 N   0  3  0  0  0  0  0  0  0  0  0  0
    5.6640   -6.9441   -4.3460 C   0  0  1  0  0  0  0  0  0  0  0  0
    4.9848   -5.9621   -5.1124 O   0  0  0  0  0  0  0  0  0  0  0  0
    6.9916   -7.2872   -5.0162 C   0  0  2  0  0  0  0  0  0  0  0  0
    7.5292   -8.4760   -4.4485 O   0  0  0  0  0  0  0  0  0  0  0  0
    9.2897   -6.4235   -5.5431 C   0  0  0  0  0  0  0  0  0  0  0  0
    9.2354   -5.9788   -6.9230 N   0  3  0  0  0  0  0  0  0  0  0  0
    7.6057    1.4378    3.0903 C   0  0  1  0  0  0  0  0  0  0  0  0
    7.4964    1.3247    1.6559 O   0  0  0  0  0  0  0  0  0  0  0  0
    8.5841    1.9612    0.9466 C   0  0  2  0  0  0  0  0  0  0  0  0
    9.8524    1.3062    1.1959 O   0  0  0  0  0  0  0  0  0  0  0  0
    8.6552    3.4535    1.2927 C   0  0  2  0  0  0  0  0  0  0  0  0
    9.8683    4.0318    0.7454 N   0  3  0  0  0  0  0  0  0  0  0  0
    8.6246    3.6862    2.7992 C   0  0  1  0  0  0  0  0  0  0  0  0
    8.4539    5.0697    3.0657 O   0  0  0  0  0  0  0  0  0  0  0  0
    7.5328    2.8979    3.5062 C   0  0  2  0  0  0  0  0  0  0  0  0
    7.6763    3.0101    4.9146 O   0  0  0  0  0  0  0  0  0  0  0  0
    6.4468    0.7066    3.7617 C   0  0  0  0  0  0  0  0  0  0  0  0
    6.3694   -0.6674    3.3002 N   0  3  0  0  0  0  0  0  0  0  0  0
   10.2871    0.1966   -2.8882 C   0  0  2  0  0  0  0  0  0  0  0  0
   11.5456    0.4371   -2.0780 C   0  0  0  0  0  0  0  0  0  0  0  0
   11.2213    1.1974   -0.8053 C   0  0  1  0  0  0  0  0  0  0  0  0
   10.2596    0.4356    0.1078 C   0  0  2  0  0  0  0  0  0  0  0  0
    9.0164   -0.0452   -0.6758 C   0  0  1  0  0  0  0  0  0  0  0  0
    9.2718   -0.6025   -2.0824 C   0  0  1  0  0  0  0  0  0  0  0  0
   10.6248   -0.5255   -4.1000 N   0  3  0  0  0  0  0  0  0  0  0  0
   12.4566    1.4973   -0.1078 N   0  3  0  0  0  0  0  0  0  0  0  0
    8.2333   -0.9882    0.0965 O   0  0  0  0  0  0  0  0  0  0  0  0
    8.0445   -0.6812   -2.7997 O   0  0  0  0  0  0  0  0  0  0  0  0
  1  2  1  0  0  0  0
  3  2  1  6  0  0  0
  3  4  1  0  0  0  0
  3  5  1  0  0  0  0
  4  8  1  0  0  0  0
  5  6  1  0  0  0  0
  5 12  1  1  0  0  0
  6  7  1  1  0  0  0
  6  8  1  0  0  0  0
  8 41  1  6  0  0  0
  9 10  1  0  0  0  0
  9 17  1  0  0  0  0
  9 19  1  6  0  0  0
 10 11  1  0  0  0  0
 11 12  1  1  0  0  0
 11 13  1  0  0  0  0
 13 14  1  1  0  0  0
 13 15  1  0  0  0  0
 15 16  1  6  0  0  0
 15 17  1  0  0  0  0
 17 18  1  1  0  0  0
 19 20  1  0  0  0  0
 21 22  1  0  0  0  0
 21 29  1  0  0  0  0
 21 31  1  1  0  0  0
 22 23  1  0  0  0  0
 23 24  1  1  0  0  0
 23 25  1  0  0  0  0
 25 26  1  1  0  0  0
 25 27  1  0  0  0  0
 27 28  1  6  0  0  0
 27 29  1  0  0  0  0
 29 30  1  1  0  0  0
 31 32  1  0  0  0  0
 33 34  1  0  0  0  0
 33 38  1  0  0  0  0
 33 39  1  6  0  0  0
 34 35  1  0  0  0  0
 35 36  1  0  0  0  0
 35 40  1  1  0  0  0
 36 24  1  1  0  0  0
 36 37  1  0  0  0  0
 37 38  1  0  0  0  0
 37 41  1  1  0  0  0
 38 42  1  6  0  0  0
M  CHG  6  14   1  20   1  26   1  32   1  39   1  40   1
M  END
>  <CHROM.1>
179.81916966,70.96126667,-81.58848702,-41.44774726,-26.66418234,-150.01851568
85.38980548,-62.95940293,-66.01331882,-178.25409217,-75.14037130,54.07960994
101.42628302,96.35485440,69.16666054,53.07513958,-170.19437238,91.19678173
-81.45147542,78.49252685,-69.35590225,52.12010168,8.49352370,-1.83617229
-1.00438656,-1.72336042,0.77346745,0.72254066

>  <Name>


>  <RI>
0

>  <Rbt.Current_Directory>
/home/itssahil/PROJECTS/Mol_Feturizer/New_Systems/rnas/1qd3

>  <Rbt.Executable>
rbdock ($Id: //depot/dev/client3/rdock/2013.1/src/exe/rbdock.cxx#4 $)

>  <Rbt.Library>
libRbt.so (2013.1, Build901 2013/11/27)

>  <Rbt.Parameter_File>
/export/apps/rDock/src/rDock_2013.1_src/data/scripts/dock_solv.prm

>  <Rbt.Receptor>
prm/pocket_docking_2.prm

>  <SCORE>
-38.0706

>  <SCORE.INTER>
-30.0765

>  <SCORE.INTER.CONST>
1

>  <SCORE.INTER.POLAR>
-6.33576

>  <SCORE.INTER.ROT>
9

>  <SCORE.INTER.SOLV>
39.153

>  <SCORE.INTER.VDW>
-21.5828

>  <SCORE.INTER.norm>
-0.716107

>  <SCORE.INTRA>
-10.6062

>  <SCORE.INTRA.DIHEDRAL>
-10.3584

>  <SCORE.INTRA.DIHEDRAL.0>
40.6252

>  <SCORE.INTRA.POLAR>
0.93194

>  <SCORE.INTRA.POLAR.0>
-1.20161

>  <SCORE.INTRA.REPUL>
-0.115675

>  <SCORE.INTRA.REPUL.0>
0.115675

>  <SCORE.INTRA.SOLV>
-8.19305

>  <SCORE.INTRA.SOLV.lig_0>
-154.895

>  <SCORE.INTRA.VDW>
-3.92066

>  <SCORE.INTRA.VDW.0>
2.2925

>  <SCORE.INTRA.norm>
-0.252528

>  <SCORE.RESTR>
2.61207

>  <SCORE.RESTR.CAVITY>
2.61207

>  <SCORE.RESTR.norm>
0.0621922

>  <SCORE.SYSTEM>
0

>  <SCORE.SYSTEM.CONST>
0

>  <SCORE.SYSTEM.DIHEDRAL>
0

>  <SCORE.SYSTEM.SOLV>
0

>  <SCORE.SYSTEM.norm>
0

>  <SCORE.heavy>
42

>  <SCORE.norm>
-0.906443

>  <RMSD>
2.509

$$$$

 OpenBabel11021811413D
libRbt.so/2013.1/901 2013/11/27
 42 45  0  0  0  0  0  0  0  0999 V2000
    6.9273   -6.7875   -0.5624 O   0  0  0  0  0  0  0  0  0  0  0  0
    7.5933   -6.1106   -1.6188 C   0  0  0  0  0  0  0  0  0  0  0  0
    6.8635   -4.8054   -1.9386 C   0  0  1  0  0  0  0  0  0  0  0  0
    6.5263   -4.0836   -0.7340 O   0  0  0  0  0  0  0  0  0  0  0  0
    7.6870   -3.8440   -2.7794 C   0  0  2  0  0  0  0  0  0  0  0  0
    6.9586   -2.5396   -2.5021 C   0  0  1  0  0  0  0  0  0  0  0  0
    5.7541   -2.4911   -3.2590 O   0  0  0  0  0  0  0  0  0  0  0  0
    6.6292   -2.6619   -1.0004 C   0  0  2  0  0  0  0  0  0  0  0  0
    7.3491   -7.5219   -5.6727 C   0  0  2  0  0  0  0  0  0  0  0  0
    7.1395   -6.1159   -5.4709 O   0  0  0  0  0  0  0  0  0  0  0  0
    7.9369   -5.6034   -4.3882 C   0  0  2  0  0  0  0  0  0  0  0  0
    7.6597   -4.2037   -4.1747 O   0  0  0  0  0  0  0  0  0  0  0  0
    9.4345   -5.8145   -4.6697 C   0  0  2  0  0  0  0  0  0  0  0  0
    9.9175   -4.8477   -5.6385 N   0  3  0  0  0  0  0  0  0  0  0  0
    9.7640   -7.2412   -5.1244 C   0  0  1  0  0  0  0  0  0  0  0  0
    9.7709   -8.1045   -3.9985 O   0  0  0  0  0  0  0  0  0  0  0  0
    8.7720   -7.7614   -6.1611 C   0  0  2  0  0  0  0  0  0  0  0  0
    8.9801   -7.1033   -7.4053 O   0  0  0  0  0  0  0  0  0  0  0  0
    6.3328   -8.0801   -6.6649 C   0  0  0  0  0  0  0  0  0  0  0  0
    5.4830   -9.0636   -6.0203 N   0  3  0  0  0  0  0  0  0  0  0  0
    8.2547    2.9478    2.9899 C   0  0  1  0  0  0  0  0  0  0  0  0
    9.2169    1.8739    2.9347 O   0  0  0  0  0  0  0  0  0  0  0  0
    8.6168    0.5784    2.7041 C   0  0  2  0  0  0  0  0  0  0  0  0
    8.0032    0.4891    1.3945 O   0  0  0  0  0  0  0  0  0  0  0  0
    7.6089    0.2451    3.8108 C   0  0  2  0  0  0  0  0  0  0  0  0
    6.8649   -0.9502    3.4596 N   0  3  0  0  0  0  0  0  0  0  0  0
    6.6322    1.3912    4.0496 C   0  0  1  0  0  0  0  0  0  0  0  0
    5.8791    1.1402    5.2260 O   0  0  0  0  0  0  0  0  0  0  0  0
    7.3137    2.7459    4.1663 C   0  0  2  0  0  0  0  0  0  0  0  0
    6.3455    3.7843    4.1982 O   0  0  0  0  0  0  0  0  0  0  0  0
    8.9703    4.2803    3.1926 C   0  0  0  0  0  0  0  0  0  0  0  0
    9.3940    4.8350    1.9200 N   0  3  0  0  0  0  0  0  0  0  0  0
    9.6050    0.3003   -2.5423 C   0  0  2  0  0  0  0  0  0  0  0  0
   10.4824    0.8661   -1.4431 C   0  0  0  0  0  0  0  0  0  0  0  0
    9.6462    1.2310   -0.2305 C   0  0  1  0  0  0  0  0  0  0  0  0
    8.9237    0.0253    0.3722 C   0  0  2  0  0  0  0  0  0  0  0  0
    8.1525   -0.7579   -0.7153 C   0  0  1  0  0  0  0  0  0  0  0  0
    8.8697   -0.9425   -2.0591 C   0  0  1  0  0  0  0  0  0  0  0  0
   10.4262   -0.0346   -3.6901 N   0  3  0  0  0  0  0  0  0  0  0  0
   10.4998    1.8603    0.7584 N   0  3  0  0  0  0  0  0  0  0  0  0
    7.6896   -2.0385   -0.2204 O   0  0  0  0  0  0  0  0  0  0  0  0
    7.9373   -1.3640   -3.0491 O   0  0  0  0  0  0  0  0  0  0  0  0
  1  2  1  0  0  0  0
  3  2  1  1  0  0  0
  3  4  1  0  0  0  0
  3  5  1  0  0  0  0
  4  8  1  0  0  0  0
  5  6  1  0  0  0  0
  5 12  1  6  0  0  0
  6  7  1  6  0  0  0
  6  8  1  0  0  0  0
  8 41  1  1  0  0  0
  9 10  1  0  0  0  0
  9 17  1  0  0  0  0
  9 19  1  6  0  0  0
 10 11  1  0  0  0  0
 11 12  1  6  0  0  0
 11 13  1  0  0  0  0
 13 14  1  6  0  0  0
 13 15  1  0  0  0  0
 15 16  1  1  0  0  0
 15 17  1  0  0  0  0
 17 18  1  6  0  0  0
 19 20  1  0  0  0  0
 21 22  1  0  0  0  0
 21 29  1  0  0  0  0
 21 31  1  1  0  0  0
 22 23  1  0  0  0  0
 23 24  1  6  0  0  0
 23 25  1  0  0  0  0
 25 26  1  6  0  0  0
 25 27  1  0  0  0  0
 27 28  1  1  0  0  0
 27 29  1  0  0  0  0
 29 30  1  6  0  0  0
 31 32  1  0  0  0  0
 33 34  1  0  0  0  0
 33 38  1  0  0  0  0
 33 39  1  6  0  0  0
 34 35  1  0  0  0  0
 35 36  1  0  0  0  0
 35 40  1  1  0  0  0
 36 24  1  1  0  0  0
 36 37  1  0  0  0  0
 37 38  1  0  0  0  0
 37 41  1  1  0  0  0
 38 42  1  6  0  0  0
M  CHG  6  14   1  20   1  26   1  32   1  39   1  40   1
M  END
>  <CHROM.1>
-56.14382483,45.47888844,-48.63259784,-37.85413050,160.88999091,-116.60911627
143.29898250,-86.12482452,64.87311491,-65.51126322,-75.09450574,85.75767330
89.32218709,-88.77624022,-132.70781009,37.62314650,-162.41927565,100.72149161
75.38308547,-56.85270482,161.98714688,44.86529491,8.05411141,-2.20755035
-1.26261599,1.59677588,-0.89199630,-2.39329262

>  <Name>


>  <RI>
0

>  <Rbt.Current_Directory>
/home/itssahil/PROJECTS/Mol_Feturizer/New_Systems/rnas/1qd3

>  <Rbt.Executable>
rbdock ($Id: //depot/dev/client3/rdock/2013.1/src/exe/rbdock.cxx#4 $)

>  <Rbt.Library>
libRbt.so (2013.1, Build901 2013/11/27)

>  <Rbt.Parameter_File>
/export/apps/rDock/src/rDock_2013.1_src/data/scripts/dock_solv.prm

>  <Rbt.Receptor>
prm/pocket_docking_2.prm

>  <SCORE>
-25.3441

>  <SCORE.INTER>
-43.8882

>  <SCORE.INTER.CONST>
1

>  <SCORE.INTER.POLAR>
-8.2217

>  <SCORE.INTER.ROT>
9

>  <SCORE.INTER.SOLV>
40.6677

>  <SCORE.INTER.VDW>
-25.009

>  <SCORE.INTER.norm>
-1.04496

>  <SCORE.INTRA>
16.7348

>  <SCORE.INTRA.DIHEDRAL>
-0.658514

>  <SCORE.INTRA.DIHEDRAL.0>
40.6252

>  <SCORE.INTRA.POLAR>
-0.688172

>  <SCORE.INTRA.POLAR.0>
-1.20161

>  <SCORE.INTRA.REPUL>
-0.115675

>  <SCORE.INTRA.REPUL.0>
0.115675

>  <SCORE.INTRA.SOLV>
-5.67715

>  <SCORE.INTRA.SOLV.lig_0>
-154.895

>  <SCORE.INTRA.VDW>
22.8208

>  <SCORE.INTRA.VDW.0>
2.2925

>  <SCORE.INTRA.norm>
0.398448

>  <SCORE.RESTR>
1.8093

>  <SCORE.RESTR.CAVITY>
1.8093

>  <SCORE.RESTR.norm>
0.0430785

>  <SCORE.SYSTEM>
0

>  <SCORE.SYSTEM.CONST>
0

>  <SCORE.SYSTEM.DIHEDRAL>
0

>  <SCORE.SYSTEM.SOLV>
0

>  <SCORE.SYSTEM.norm>
0

>  <SCORE.heavy>
42

>  <SCORE.norm>
-0.603431

>  <RMSD>
2.586

$$$$

 OpenBabel11021811413D
libRbt.so/2013.1/901 2013/11/27
 42 45  0  0  0  0  0  0  0  0999 V2000
    9.4255   -6.4153    2.7760 O   0  0  0  0  0  0  0  0  0  0  0  0
    9.7840   -5.9889    1.4694 C   0  0  0  0  0  0  0  0  0  0  0  0
    8.5978   -5.2829    0.8115 C   0  0  1  0  0  0  0  0  0  0  0  0
    8.1352   -4.1751    1.6142 O   0  0  0  0  0  0  0  0  0  0  0  0
    8.9249   -4.6969   -0.5520 C   0  0  2  0  0  0  0  0  0  0  0  0
    7.7973   -3.6889   -0.6981 C   0  0  1  0  0  0  0  0  0  0  0  0
    6.5933   -4.3618   -1.0496 O   0  0  0  0  0  0  0  0  0  0  0  0
    7.6811   -3.1189    0.7303 C   0  0  2  0  0  0  0  0  0  0  0  0
   10.6983   -6.1260   -4.7338 C   0  0  2  0  0  0  0  0  0  0  0  0
    9.8947   -6.4618   -3.5923 O   0  0  0  0  0  0  0  0  0  0  0  0
    9.6585   -5.3215   -2.7470 C   0  0  2  0  0  0  0  0  0  0  0  0
    8.8989   -5.7048   -1.5817 O   0  0  0  0  0  0  0  0  0  0  0  0
    8.9247   -4.2137   -3.5222 C   0  0  2  0  0  0  0  0  0  0  0  0
    7.5186   -4.5382   -3.6766 N   0  3  0  0  0  0  0  0  0  0  0  0
    9.5597   -3.9141   -4.8852 C   0  0  1  0  0  0  0  0  0  0  0  0
   10.7240   -3.1250   -4.6990 O   0  0  0  0  0  0  0  0  0  0  0  0
    9.9212   -5.1864   -5.6470 C   0  0  2  0  0  0  0  0  0  0  0  0
    8.7387   -5.8247   -6.1147 O   0  0  0  0  0  0  0  0  0  0  0  0
   11.1207   -7.3862   -5.4837 C   0  0  0  0  0  0  0  0  0  0  0  0
   11.9866   -7.0467   -6.5972 N   0  3  0  0  0  0  0  0  0  0  0  0
    9.9091    2.4187    2.4226 C   0  0  1  0  0  0  0  0  0  0  0  0
    9.6489    1.0808    2.8962 O   0  0  0  0  0  0  0  0  0  0  0  0
    8.2400    0.7875    3.0391 C   0  0  2  0  0  0  0  0  0  0  0  0
    7.5533    0.7849    1.7632 O   0  0  0  0  0  0  0  0  0  0  0  0
    7.5812    1.7656    4.0195 C   0  0  2  0  0  0  0  0  0  0  0  0
    6.1401    1.5978    3.9934 N   0  3  0  0  0  0  0  0  0  0  0  0
    7.9230    3.2140    3.6881 C   0  0  1  0  0  0  0  0  0  0  0  0
    7.4951    4.0598    4.7444 O   0  0  0  0  0  0  0  0  0  0  0  0
    9.4056    3.4373    3.4322 C   0  0  2  0  0  0  0  0  0  0  0  0
    9.6302    4.7534    2.9485 O   0  0  0  0  0  0  0  0  0  0  0  0
   11.4112    2.6321    2.2593 C   0  0  0  0  0  0  0  0  0  0  0  0
   11.6789    3.8241    1.4755 N   0  3  0  0  0  0  0  0  0  0  0  0
    8.5054    0.1759   -2.3384 C   0  0  2  0  0  0  0  0  0  0  0  0
    9.0443    1.4196   -1.6595 C   0  0  0  0  0  0  0  0  0  0  0  0
    8.2986    1.6838   -0.3645 C   0  0  1  0  0  0  0  0  0  0  0  0
    8.4461    0.5437    0.6441 C   0  0  2  0  0  0  0  0  0  0  0  0
    8.1168   -0.8187   -0.0087 C   0  0  1  0  0  0  0  0  0  0  0  0
    8.6487   -1.0385   -1.4310 C   0  0  1  0  0  0  0  0  0  0  0  0
    9.2299   -0.0507   -3.5743 N   0  3  0  0  0  0  0  0  0  0  0  0
    8.7695    2.9316    0.2043 N   0  3  0  0  0  0  0  0  0  0  0  0
    8.5066   -1.9241    0.8428 O   0  0  0  0  0  0  0  0  0  0  0  0
    7.9974   -2.1585   -2.0214 O   0  0  0  0  0  0  0  0  0  0  0  0
  1  2  1  0  0  0  0
  3  2  1  1  0  0  0
  3  4  1  0  0  0  0
  3  5  1  0  0  0  0
  4  8  1  0  0  0  0
  5  6  1  0  0  0  0
  5 12  1  6  0  0  0
  6  7  1  1  0  0  0
  6  8  1  0  0  0  0
  8 41  1  6  0  0  0
  9 10  1  0  0  0  0
  9 17  1  0  0  0  0
  9 19  1  6  0  0  0
 10 11  1  0  0  0  0
 11 12  1  1  0  0  0
 11 13  1  0  0  0  0
 13 14  1  6  0  0  0
 13 15  1  0  0  0  0
 15 16  1  1  0  0  0
 15 17  1  0  0  0  0
 17 18  1  1  0  0  0
 19 20  1  0  0  0  0
 21 22  1  0  0  0  0
 21 29  1  0  0  0  0
 21 31  1  1  0  0  0
 22 23  1  0  0  0  0
 23 24  1  6  0  0  0
 23 25  1  0  0  0  0
 25 26  1  6  0  0  0
 25 27  1  0  0  0  0
 27 28  1  1  0  0  0
 27 29  1  0  0  0  0
 29 30  1  6  0  0  0
 31 32  1  0  0  0  0
 33 34  1  0  0  0  0
 33 38  1  0  0  0  0
 33 39  1  6  0  0  0
 34 35  1  0  0  0  0
 35 36  1  0  0  0  0
 35 40  1  1  0  0  0
 36 24  1  1  0  0  0
 36 37  1  0  0  0  0
 37 38  1  0  0  0  0
 37 41  1  1  0  0  0
 38 42  1  6  0  0  0
M  CHG  6  14   1  20   1  26   1  32   1  39   1  40   1
M  END
>  <CHROM.1>
-52.33594439,56.41415362,-158.55486487,62.17912059,-179.91349806,-177.17712628
165.27630308,61.42760054,52.93177898,-177.97012653,-66.77136694,165.50683758
22.92584635,-124.92273210,-49.59478903,43.85022905,-170.14795403,43.00536077
-76.66925503,75.81840817,148.79088933,26.09713110,8.96614803,-1.69277021
-0.51723176,1.26103624,-1.27124283,-2.75343600

>  <Name>


>  <RI>
0

>  <Rbt.Current_Directory>
/home/itssahil/PROJECTS/Mol_Feturizer/New_Systems/rnas/1qd3

>  <Rbt.Executable>
rbdock ($Id: //depot/dev/client3/rdock/2013.1/src/exe/rbdock.cxx#4 $)

>  <Rbt.Library>
libRbt.so (2013.1, Build901 2013/11/27)

>  <Rbt.Parameter_File>
/export/apps/rDock/src/rDock_2013.1_src/data/scripts/dock_solv.prm

>  <Rbt.Receptor>
prm/pocket_docking_2.prm

>  <SCORE>
-3.27838

>  <SCORE.INTER>
-17.5879

>  <SCORE.INTER.CONST>
1

>  <SCORE.INTER.POLAR>
-5.99893

>  <SCORE.INTER.ROT>
9

>  <SCORE.INTER.SOLV>
38.9772

>  <SCORE.INTER.VDW>
-14.3212

>  <SCORE.INTER.norm>
-0.418759

>  <SCORE.INTRA>
6.19903

>  <SCORE.INTRA.DIHEDRAL>
-11.1494

>  <SCORE.INTRA.DIHEDRAL.0>
40.6252

>  <SCORE.INTRA.POLAR>
-0.940945

>  <SCORE.INTRA.POLAR.0>
-1.20161

>  <SCORE.INTRA.REPUL>
-0.115675

>  <SCORE.INTRA.REPUL.0>
0.115675

>  <SCORE.INTRA.SOLV>
5.85162

>  <SCORE.INTRA.SOLV.lig_0>
-154.895

>  <SCORE.INTRA.VDW>
12.6255

>  <SCORE.INTRA.VDW.0>
2.2925

>  <SCORE.INTRA.norm>
0.147596

>  <SCORE.RESTR>
8.11047

>  <SCORE.RESTR.CAVITY>
8.11047

>  <SCORE.RESTR.norm>
0.193106

>  <SCORE.SYSTEM>
0

>  <SCORE.SYSTEM.CONST>
0

>  <SCORE.SYSTEM.DIHEDRAL>
0

>  <SCORE.SYSTEM.SOLV>
0

>  <SCORE.SYSTEM.norm>
0

>  <SCORE.heavy>
42

>  <SCORE.norm>
-0.0780567

>  <RMSD>
2.586

$$$$

 OpenBabel11021811413D
libRbt.so/2013.1/901 2013/11/27
 42 45  0  0  0  0  0  0  0  0999 V2000
    9.3378   -2.9651   -3.5861 O   0  0  0  0  0  0  0  0  0  0  0  0
    9.8723   -4.0275   -2.8094 C   0  0  0  0  0  0  0  0  0  0  0  0
    9.4022   -3.8966   -1.3601 C   0  0  1  0  0  0  0  0  0  0  0  0
    9.8103   -2.6350   -0.7878 O   0  0  0  0  0  0  0  0  0  0  0  0
    7.8910   -3.9493   -1.2089 C   0  0  2  0  0  0  0  0  0  0  0  0
    7.7272   -3.3120    0.1607 C   0  0  1  0  0  0  0  0  0  0  0  0
    8.0657   -4.2538    1.1729 O   0  0  0  0  0  0  0  0  0  0  0  0
    8.7769   -2.1827    0.1235 C   0  0  2  0  0  0  0  0  0  0  0  0
    8.2132   -6.8563   -4.4543 C   0  0  2  0  0  0  0  0  0  0  0  0
    8.3715   -6.4260   -3.0937 O   0  0  0  0  0  0  0  0  0  0  0  0
    7.1892   -5.7751   -2.5947 C   0  0  2  0  0  0  0  0  0  0  0  0
    7.4018   -5.3044   -1.2475 O   0  0  0  0  0  0  0  0  0  0  0  0
    5.9830   -6.7285   -2.6432 C   0  0  2  0  0  0  0  0  0  0  0  0
    6.0481   -7.6965   -1.5638 N   0  3  0  0  0  0  0  0  0  0  0  0
    5.8342   -7.4391   -3.9937 C   0  0  1  0  0  0  0  0  0  0  0  0
    5.2675   -6.5437   -4.9370 O   0  0  0  0  0  0  0  0  0  0  0  0
    7.1673   -7.9618   -4.5221 C   0  0  2  0  0  0  0  0  0  0  0  0
    7.5886   -9.0825   -3.7532 O   0  0  0  0  0  0  0  0  0  0  0  0
    9.5453   -7.3329   -5.0263 C   0  0  0  0  0  0  0  0  0  0  0  0
    9.4798   -7.4007   -6.4740 N   0  3  0  0  0  0  0  0  0  0  0  0
    7.4551    0.5268    2.9625 C   0  0  1  0  0  0  0  0  0  0  0  0
    7.3336    0.4612    1.5262 O   0  0  0  0  0  0  0  0  0  0  0  0
    8.0601    1.5077    0.8416 C   0  0  2  0  0  0  0  0  0  0  0  0
    9.4925    1.3811    1.0201 O   0  0  0  0  0  0  0  0  0  0  0  0
    7.5672    2.8893    1.2887 C   0  0  2  0  0  0  0  0  0  0  0  0
    8.4388    3.9215    0.7592 N   0  3  0  0  0  0  0  0  0  0  0  0
    7.5168    3.0068    2.8080 C   0  0  1  0  0  0  0  0  0  0  0  0
    6.8393    4.1993    3.1729 O   0  0  0  0  0  0  0  0  0  0  0  0
    6.8449    1.8192    3.4799 C   0  0  2  0  0  0  0  0  0  0  0  0
    6.9971    1.8986    4.8895 O   0  0  0  0  0  0  0  0  0  0  0  0
    6.6977   -0.6323    3.6042 C   0  0  0  0  0  0  0  0  0  0  0  0
    6.2342   -1.5656    2.5938 N   0  3  0  0  0  0  0  0  0  0  0  0
   10.6854    0.2635   -2.9077 C   0  0  2  0  0  0  0  0  0  0  0  0
   11.7703    0.5345   -1.8842 C   0  0  0  0  0  0  0  0  0  0  0  0
   11.2045    1.2932   -0.6980 C   0  0  1  0  0  0  0  0  0  0  0  0
   10.1085    0.5149    0.0313 C   0  0  2  0  0  0  0  0  0  0  0  0
    9.0386    0.0040   -0.9612 C   0  0  1  0  0  0  0  0  0  0  0  0
    9.5569   -0.5538   -2.2934 C   0  0  1  0  0  0  0  0  0  0  0  0
   11.2525   -0.4563   -4.0320 N   0  3  0  0  0  0  0  0  0  0  0  0
   12.2859    1.6226    0.2100 N   0  3  0  0  0  0  0  0  0  0  0  0
    8.1475   -0.9524   -0.3365 O   0  0  0  0  0  0  0  0  0  0  0  0
    8.4824   -0.6620   -3.2212 O   0  0  0  0  0  0  0  0  0  0  0  0
  1  2  1  0  0  0  0
  3  2  1  6  0  0  0
  3  4  1  0  0  0  0
  3  5  1  0  0  0  0
  4  8  1  0  0  0  0
  5  6  1  0  0  0  0
  5 12  1  1  0  0  0
  6  7  1  1  0  0  0
  6  8  1  0  0  0  0
  8 41  1  6  0  0  0
  9 10  1  0  0  0  0
  9 17  1  0  0  0  0
  9 19  1  1  0  0  0
 10 11  1  0  0  0  0
 11 12  1  1  0  0  0
 11 13  1  0  0  0  0
 13 14  1  1  0  0  0
 13 15  1  0  0  0  0
 15 16  1  6  0  0  0
 15 17  1  0  0  0  0
 17 18  1  1  0  0  0
 19 20  1  0  0  0  0
 21 22  1  0  0  0  0
 21 29  1  0  0  0  0
 21 31  1  1  0  0  0
 22 23  1  0  0  0  0
 23 24  1  1  0  0  0
 23 25  1  0  0  0  0
 25 26  1  1  0  0  0
 25 27  1  0  0  0  0
 27 28  1  6  0  0  0
 27 29  1  0  0  0  0
 29 30  1  1  0  0  0
 31 32  1  0  0  0  0
 33 34  1  0  0  0  0
 33 38  1  0  0  0  0
 33 39  1  6  0  0  0
 34 35  1  0  0  0  0
 35 36  1  0  0  0  0
 35 40  1  1  0  0  0
 36 24  1  1  0  0  0
 36 37  1  0  0  0  0
 37 38  1  0  0  0  0
 37 41  1  1  0  0  0
 38 42  1  6  0  0  0
M  CHG  6  14   1  20   1  26   1  32   1  39   1  40   1
M  END
>  <CHROM.1>
-170.30531445,-58.85449774,-84.97035322,-162.36968738,-37.75654639,-163.67224100
91.45533319,-161.77556982,-63.48395588,-173.15197763,-173.28112566,7.96032638
87.21127338,123.34579925,-58.07658030,-46.04413153,-62.01245682,-166.65447070
-80.92867139,-53.53474896,-63.15678354,-49.15489171,8.35138043,-2.17565693
-0.95697829,-1.65214002,0.79330768,0.63332920

>  <Name>


>  <RI>
0

>  <Rbt.Current_Directory>
/home/itssahil/PROJECTS/Mol_Feturizer/New_Systems/rnas/1qd3

>  <Rbt.Executable>
rbdock ($Id: //depot/dev/client3/rdock/2013.1/src/exe/rbdock.cxx#4 $)

>  <Rbt.Library>
libRbt.so (2013.1, Build901 2013/11/27)

>  <Rbt.Parameter_File>
/export/apps/rDock/src/rDock_2013.1_src/data/scripts/dock_solv.prm

>  <Rbt.Receptor>
prm/pocket_docking_4.prm

>  <SCORE>
-43.8407

>  <SCORE.INTER>
-38.9138

>  <SCORE.INTER.CONST>
1

>  <SCORE.INTER.POLAR>
-6.70664

>  <SCORE.INTER.ROT>
9

>  <SCORE.INTER.SOLV>
39.142

>  <SCORE.INTER.VDW>
-26.2344

>  <SCORE.INTER.norm>
-0.926518

>  <SCORE.INTRA>
-4.92699

>  <SCORE.INTRA.DIHEDRAL>
-8.8043

>  <SCORE.INTRA.DIHEDRAL.0>
40.6252

>  <SCORE.INTRA.POLAR>
1.18825

>  <SCORE.INTRA.POLAR.0>
-1.20161

>  <SCORE.INTRA.REPUL>
-0.114818

>  <SCORE.INTRA.REPUL.0>
0.115675

>  <SCORE.INTRA.SOLV>
-5.96545

>  <SCORE.INTRA.SOLV.lig_0>
-154.895

>  <SCORE.INTRA.VDW>
-1.00809

>  <SCORE.INTRA.VDW.0>
2.2925

>  <SCORE.INTRA.norm>
-0.117309

>  <SCORE.RESTR>
0

>  <SCORE.RESTR.CAVITY>
0

>  <SCORE.RESTR.norm>
0

>  <SCORE.SYSTEM>
0

>  <SCORE.SYSTEM.CONST>
0

>  <SCORE.SYSTEM.DIHEDRAL>
0

>  <SCORE.SYSTEM.SOLV>
0

>  <SCORE.SYSTEM.norm>
0

>  <SCORE.heavy>
42

>  <SCORE.norm>
-1.04383

>  <RMSD>
2.609

$$$$

 OpenBabel11021811413D
libRbt.so/2013.1/901 2013/11/27
 42 45  0  0  0  0  0  0  0  0999 V2000
    9.5709   -4.3044   -4.2594 O   0  0  0  0  0  0  0  0  0  0  0  0
    9.1667   -3.4017   -3.2399 C   0  0  0  0  0  0  0  0  0  0  0  0
    9.3770   -4.0427   -1.8676 C   0  0  1  0  0  0  0  0  0  0  0  0
    9.8136   -3.0690   -0.8945 O   0  0  0  0  0  0  0  0  0  0  0  0
    8.1153   -4.6645   -1.2924 C   0  0  2  0  0  0  0  0  0  0  0  0
    8.4893   -4.7399    0.1784 C   0  0  1  0  0  0  0  0  0  0  0  0
    9.3722   -5.8351    0.3946 O   0  0  0  0  0  0  0  0  0  0  0  0
    9.2410   -3.4104    0.3932 C   0  0  2  0  0  0  0  0  0  0  0  0
    7.6856   -6.4349   -5.4811 C   0  0  2  0  0  0  0  0  0  0  0  0
    8.1723   -6.5471   -4.1350 O   0  0  0  0  0  0  0  0  0  0  0  0
    7.3104   -5.8812   -3.1945 C   0  0  2  0  0  0  0  0  0  0  0  0
    7.8575   -5.9630   -1.8620 O   0  0  0  0  0  0  0  0  0  0  0  0
    5.8970   -6.4875   -3.2298 C   0  0  2  0  0  0  0  0  0  0  0  0
    5.8659   -7.7615   -2.5354 N   0  3  0  0  0  0  0  0  0  0  0  0
    5.3440   -6.6372   -4.6519 C   0  0  1  0  0  0  0  0  0  0  0  0
    4.9016   -5.3733   -5.1206 O   0  0  0  0  0  0  0  0  0  0  0  0
    6.3793   -7.2066   -5.6181 C   0  0  2  0  0  0  0  0  0  0  0  0
    6.5940   -8.5859   -5.3422 O   0  0  0  0  0  0  0  0  0  0  0  0
    8.7257   -6.9469   -6.4735 C   0  0  0  0  0  0  0  0  0  0  0  0
    9.6864   -5.9047   -6.7833 N   0  3  0  0  0  0  0  0  0  0  0  0
    7.7408    0.3153    2.8694 C   0  0  1  0  0  0  0  0  0  0  0  0
    7.4942    0.8496    1.5519 O   0  0  0  0  0  0  0  0  0  0  0  0
    8.6858    1.3544    0.9063 C   0  0  2  0  0  0  0  0  0  0  0  0
    9.6376    0.2997    0.6209 O   0  0  0  0  0  0  0  0  0  0  0  0
    9.3269    2.4649    1.7474 C   0  0  2  0  0  0  0  0  0  0  0  0
   10.6249    2.8139    1.2004 N   0  3  0  0  0  0  0  0  0  0  0  0
    9.4931    2.0461    3.2039 C   0  0  1  0  0  0  0  0  0  0  0  0
    9.8644    3.1712    3.9853 O   0  0  0  0  0  0  0  0  0  0  0  0
    8.2417    1.4136    3.7931 C   0  0  2  0  0  0  0  0  0  0  0  0
    8.5177    0.8789    5.0794 O   0  0  0  0  0  0  0  0  0  0  0  0
    6.4455   -0.2328    3.4615 C   0  0  0  0  0  0  0  0  0  0  0  0
    6.0537   -1.4602    2.7931 N   0  3  0  0  0  0  0  0  0  0  0  0
    6.9958   -1.0135   -2.4444 C   0  0  2  0  0  0  0  0  0  0  0  0
    8.3261   -0.4162   -2.8587 C   0  0  0  0  0  0  0  0  0  0  0  0
    8.9471    0.3498   -1.7053 C   0  0  1  0  0  0  0  0  0  0  0  0
    9.2319   -0.5381   -0.4931 C   0  0  2  0  0  0  0  0  0  0  0  0
    7.9826   -1.3623   -0.1051 C   0  0  1  0  0  0  0  0  0  0  0  0
    7.1737   -1.9593   -1.2643 C   0  0  1  0  0  0  0  0  0  0  0  0
    6.4214   -1.7343   -3.5644 N   0  3  0  0  0  0  0  0  0  0  0  0
   10.1640    0.9897   -2.1655 N   0  3  0  0  0  0  0  0  0  0  0  0
    8.3054   -2.3954    0.8579 O   0  0  0  0  0  0  0  0  0  0  0  0
    5.8992   -2.3848   -0.7937 O   0  0  0  0  0  0  0  0  0  0  0  0
  1  2  1  0  0  0  0
  3  2  1  6  0  0  0
  3  4  1  0  0  0  0
  3  5  1  0  0  0  0
  4  8  1  0  0  0  0
  5  6  1  0  0  0  0
  5 12  1  6  0  0  0
  6  7  1  6  0  0  0
  6  8  1  0  0  0  0
  8 41  1  6  0  0  0
  9 10  1  0  0  0  0
  9 17  1  0  0  0  0
  9 19  1  6  0  0  0
 10 11  1  0  0  0  0
 11 12  1  1  0  0  0
 11 13  1  0  0  0  0
 13 14  1  6  0  0  0
 13 15  1  0  0  0  0
 15 16  1  6  0  0  0
 15 17  1  0  0  0  0
 17 18  1  1  0  0  0
 19 20  1  0  0  0  0
 21 22  1  0  0  0  0
 21 29  1  0  0  0  0
 21 31  1  1  0  0  0
 22 23  1  0  0  0  0
 23 24  1  1  0  0  0
 23 25  1  0  0  0  0
 25 26  1  6  0  0  0
 25 27  1  0  0  0  0
 27 28  1  1  0  0  0
 27 29  1  0  0  0  0
 29 30  1  1  0  0  0
 31 32  1  0  0  0  0
 33 34  1  0  0  0  0
 33 38  1  0  0  0  0
 33 39  1  6  0  0  0
 34 35  1  0  0  0  0
 35 36  1  0  0  0  0
 35 40  1  6  0  0  0
 36 24  1  1  0  0  0
 36 37  1  0  0  0  0
 37 38  1  0  0  0  0
 37 41  1  1  0  0  0
 38 42  1  1  0  0  0
M  CHG  6  14   1  20   1  26   1  32   1  39   1  40   1
M  END
>  <CHROM.1>
-53.61046294,143.32299253,-76.66323543,178.92831837,8.30671150,-84.03028980
120.11788464,-172.30151197,-74.91753698,-63.95904232,49.49349853,71.77849941
74.07422461,53.79409086,-46.35470335,-57.39199109,-56.27682150,9.96246452
153.45010141,-5.68427824,-62.77375439,31.62104526,8.08356431,-2.63283275
-1.16102579,-1.84581816,1.01700483,0.96763107

>  <Name>


>  <RI>
0

>  <Rbt.Current_Directory>
/home/itssahil/PROJECTS/Mol_Feturizer/New_Systems/rnas/1qd3

>  <Rbt.Executable>
rbdock ($Id: //depot/dev/client3/rdock/2013.1/src/exe/rbdock.cxx#4 $)

>  <Rbt.Library>
libRbt.so (2013.1, Build901 2013/11/27)

>  <Rbt.Parameter_File>
/export/apps/rDock/src/rDock_2013.1_src/data/scripts/dock_solv.prm

>  <Rbt.Receptor>
prm/pocket_docking_2.prm

>  <SCORE>
-29.1119

>  <SCORE.INTER>
-20.1015

>  <SCORE.INTER.CONST>
1

>  <SCORE.INTER.POLAR>
-5.41992

>  <SCORE.INTER.ROT>
9

>  <SCORE.INTER.SOLV>
46.193

>  <SCORE.INTER.VDW>
-20.3323

>  <SCORE.INTER.norm>
-0.478607

>  <SCORE.INTRA>
-10.5339

>  <SCORE.INTRA.DIHEDRAL>
-4.17921

>  <SCORE.INTRA.DIHEDRAL.0>
40.6252

>  <SCORE.INTRA.POLAR>
-1.23474

>  <SCORE.INTRA.POLAR.0>
-1.20161

>  <SCORE.INTRA.REPUL>
-0.115675

>  <SCORE.INTRA.REPUL.0>
0.115675

>  <SCORE.INTRA.SOLV>
-1.76071

>  <SCORE.INTRA.SOLV.lig_0>
-154.895

>  <SCORE.INTRA.VDW>
-2.78746

>  <SCORE.INTRA.VDW.0>
2.2925

>  <SCORE.INTRA.norm>
-0.250807

>  <SCORE.RESTR>
1.52351

>  <SCORE.RESTR.CAVITY>
1.52351

>  <SCORE.RESTR.norm>
0.036274

>  <SCORE.SYSTEM>
0

>  <SCORE.SYSTEM.CONST>
0

>  <SCORE.SYSTEM.DIHEDRAL>
0

>  <SCORE.SYSTEM.SOLV>
0

>  <SCORE.SYSTEM.norm>
0

>  <SCORE.heavy>
42

>  <SCORE.norm>
-0.693141

>  <RMSD>
2.660

$$$$

 OpenBabel11021811413D
libRbt.so/2013.1/901 2013/11/27
 42 45  0  0  0  0  0  0  0  0999 V2000
   11.1150   -2.6851   -3.5963 O   0  0  0  0  0  0  0  0  0  0  0  0
    9.9953   -3.4002   -3.0938 C   0  0  0  0  0  0  0  0  0  0  0  0
   10.3112   -3.9436   -1.6998 C   0  0  1  0  0  0  0  0  0  0  0  0
    9.7860   -3.0801   -0.6682 O   0  0  0  0  0  0  0  0  0  0  0  0
    9.7108   -5.3145   -1.4363 C   0  0  2  0  0  0  0  0  0  0  0  0
    9.7468   -5.3455    0.0825 C   0  0  1  0  0  0  0  0  0  0  0  0
   11.0719   -5.6152    0.5267 O   0  0  0  0  0  0  0  0  0  0  0  0
    9.3557   -3.8992    0.4484 C   0  0  2  0  0  0  0  0  0  0  0  0
   11.6403   -6.9884   -5.4429 C   0  0  2  0  0  0  0  0  0  0  0  0
   11.5975   -7.0568   -4.0094 O   0  0  0  0  0  0  0  0  0  0  0  0
   10.4844   -6.3221   -3.4691 C   0  0  2  0  0  0  0  0  0  0  0  0
   10.5041   -6.3627   -2.0271 O   0  0  0  0  0  0  0  0  0  0  0  0
    9.1543   -6.8828   -4.0012 C   0  0  2  0  0  0  0  0  0  0  0  0
    8.8130   -8.1231   -3.3293 N   0  3  0  0  0  0  0  0  0  0  0  0
    9.1509   -7.0771   -5.5220 C   0  0  1  0  0  0  0  0  0  0  0  0
    8.9690   -5.8213   -6.1568 O   0  0  0  0  0  0  0  0  0  0  0  0
   10.4392   -7.7223   -6.0255 C   0  0  2  0  0  0  0  0  0  0  0  0
   10.4741   -9.0942   -5.6500 O   0  0  0  0  0  0  0  0  0  0  0  0
   12.9454   -7.5776   -5.9707 C   0  0  0  0  0  0  0  0  0  0  0  0
   13.0030   -7.4672   -7.4162 N   0  3  0  0  0  0  0  0  0  0  0  0
    8.3162    1.7002    1.0749 C   0  0  1  0  0  0  0  0  0  0  0  0
    8.9957    0.4282    1.1237 O   0  0  0  0  0  0  0  0  0  0  0  0
    8.1339   -0.6672    1.5094 C   0  0  2  0  0  0  0  0  0  0  0  0
    7.1050   -0.9230    0.5217 O   0  0  0  0  0  0  0  0  0  0  0  0
    7.5217   -0.4122    2.8921 C   0  0  2  0  0  0  0  0  0  0  0  0
    6.5036   -1.4069    3.1743 N   0  3  0  0  0  0  0  0  0  0  0  0
    6.9041    0.9784    2.9889 C   0  0  1  0  0  0  0  0  0  0  0  0
    6.5655    1.2582    4.3385 O   0  0  0  0  0  0  0  0  0  0  0  0
    7.8127    2.0769    2.4587 C   0  0  2  0  0  0  0  0  0  0  0  0
    7.1133    3.3115    2.4023 O   0  0  0  0  0  0  0  0  0  0  0  0
    9.2816    2.7911    0.6205 C   0  0  0  0  0  0  0  0  0  0  0  0
    9.9187    2.4250   -0.6312 N   0  3  0  0  0  0  0  0  0  0  0  0
    6.6619   -3.3850   -2.9195 C   0  0  2  0  0  0  0  0  0  0  0  0
    7.2918   -2.0178   -3.0986 C   0  0  0  0  0  0  0  0  0  0  0  0
    7.0084   -1.1400   -1.8937 C   0  0  1  0  0  0  0  0  0  0  0  0
    7.5838   -1.7134   -0.5979 C   0  0  2  0  0  0  0  0  0  0  0  0
    7.1692   -3.1917   -0.4149 C   0  0  1  0  0  0  0  0  0  0  0  0
    7.2054   -4.0697   -1.6727 C   0  0  1  0  0  0  0  0  0  0  0  0
    6.9422   -4.2013   -4.0853 N   0  3  0  0  0  0  0  0  0  0  0  0
    7.5370    0.1870   -2.1427 N   0  3  0  0  0  0  0  0  0  0  0  0
    7.9156   -3.8247    0.6533 O   0  0  0  0  0  0  0  0  0  0  0  0
    6.4896   -5.2779   -1.4378 O   0  0  0  0  0  0  0  0  0  0  0  0
  1  2  1  0  0  0  0
  3  2  1  6  0  0  0
  3  4  1  0  0  0  0
  3  5  1  0  0  0  0
  4  8  1  0  0  0  0
  5  6  1  0  0  0  0
  5 12  1  6  0  0  0
  6  7  1  6  0  0  0
  6  8  1  0  0  0  0
  8 41  1  6  0  0  0
  9 10  1  0  0  0  0
  9 17  1  0  0  0  0
  9 19  1  6  0  0  0
 10 11  1  0  0  0  0
 11 12  1  1  0  0  0
 11 13  1  0  0  0  0
 13 14  1  1  0  0  0
 13 15  1  0  0  0  0
 15 16  1  6  0  0  0
 15 17  1  0  0  0  0
 17 18  1  1  0  0  0
 19 20  1  0  0  0  0
 21 22  1  0  0  0  0
 21 29  1  0  0  0  0
 21 31  1  1  0  0  0
 22 23  1  0  0  0  0
 23 24  1  6  0  0  0
 23 25  1  0  0  0  0
 25 26  1  6  0  0  0
 25 27  1  0  0  0  0
 27 28  1  1  0  0  0
 27 29  1  0  0  0  0
 29 30  1  6  0  0  0
 31 32  1  0  0  0  0
 33 34  1  0  0  0  0
 33 38  1  0  0  0  0
 33 39  1  6  0  0  0
 34 35  1  0  0  0  0
 35 36  1  0  0  0  0
 35 40  1  6  0  0  0
 36 24  1  1  0  0  0
 36 37  1  0  0  0  0
 37 38  1  0  0  0  0
 37 41  1  1  0  0  0
 38 42  1  1  0  0  0
M  CHG  6  14   1  20   1  26   1  32   1  39   1  40   1
M  END
>  <CHROM.1>
-178.94320406,97.55554523,-67.16078982,-61.31634280,11.67880386,-178.16505482
160.74996225,53.60178237,-68.11193608,179.92778565,-73.76393021,53.62872936
80.89658258,-138.45768275,94.43666877,-64.27136000,178.62490535,-117.52480302
-77.00781591,120.19423512,-62.36517815,65.94854434,8.91578326,-3.26670659
-1.53350751,-0.92104296,1.10177994,0.10321890

>  <Name>


>  <RI>
0

>  <Rbt.Current_Directory>
/home/itssahil/PROJECTS/Mol_Feturizer/New_Systems/rnas/1qd3

>  <Rbt.Executable>
rbdock ($Id: //depot/dev/client3/rdock/2013.1/src/exe/rbdock.cxx#4 $)

>  <Rbt.Library>
libRbt.so (2013.1, Build901 2013/11/27)

>  <Rbt.Parameter_File>
/export/apps/rDock/src/rDock_2013.1_src/data/scripts/dock_solv.prm

>  <Rbt.Receptor>
prm/pocket_docking_3.prm

>  <SCORE>
-30.1599

>  <SCORE.INTER>
-20.0837

>  <SCORE.INTER.CONST>
1

>  <SCORE.INTER.POLAR>
-4.80198

>  <SCORE.INTER.ROT>
9

>  <SCORE.INTER.SOLV>
35.4397

>  <SCORE.INTER.VDW>
-18.7958

>  <SCORE.INTER.norm>
-0.478183

>  <SCORE.INTRA>
-10.1749

>  <SCORE.INTRA.DIHEDRAL>
-9.04468

>  <SCORE.INTRA.DIHEDRAL.0>
40.6252

>  <SCORE.INTRA.POLAR>
1.16873

>  <SCORE.INTRA.POLAR.0>
-1.20161

>  <SCORE.INTRA.REPUL>
-0.115675

>  <SCORE.INTRA.REPUL.0>
0.115675

>  <SCORE.INTRA.SOLV>
-2.56427

>  <SCORE.INTRA.SOLV.lig_0>
-154.895

>  <SCORE.INTRA.VDW>
-7.76571

>  <SCORE.INTRA.VDW.0>
2.2925

>  <SCORE.INTRA.norm>
-0.242259

>  <SCORE.RESTR>
0.0986764

>  <SCORE.RESTR.CAVITY>
0.0986764

>  <SCORE.RESTR.norm>
0.00234944

>  <SCORE.SYSTEM>
0

>  <SCORE.SYSTEM.CONST>
0

>  <SCORE.SYSTEM.DIHEDRAL>
0

>  <SCORE.SYSTEM.SOLV>
0

>  <SCORE.SYSTEM.norm>
0

>  <SCORE.heavy>
42

>  <SCORE.norm>
-0.718092

>  <RMSD>
2.845

$$$$

 OpenBabel11021811413D
libRbt.so/2013.1/901 2013/11/27
 42 45  0  0  0  0  0  0  0  0999 V2000
    9.8584   -3.2626   -5.0615 O   0  0  0  0  0  0  0  0  0  0  0  0
    9.8019   -2.5629   -3.8267 C   0  0  0  0  0  0  0  0  0  0  0  0
   10.3198   -3.4580   -2.7002 C   0  0  1  0  0  0  0  0  0  0  0  0
   10.6083   -2.6913   -1.5109 O   0  0  0  0  0  0  0  0  0  0  0  0
    9.3264   -4.5256   -2.2727 C   0  0  2  0  0  0  0  0  0  0  0  0
    9.8723   -4.8779   -0.8991 C   0  0  1  0  0  0  0  0  0  0  0  0
   11.0186   -5.7104   -1.0363 O   0  0  0  0  0  0  0  0  0  0  0  0
   10.2891   -3.4985   -0.3493 C   0  0  2  0  0  0  0  0  0  0  0  0
    7.5892   -6.1816   -6.3386 C   0  0  2  0  0  0  0  0  0  0  0  0
    8.6269   -6.2594   -5.3493 O   0  0  0  0  0  0  0  0  0  0  0  0
    8.2519   -5.6042   -4.1242 C   0  0  2  0  0  0  0  0  0  0  0  0
    9.3366   -5.6501   -3.1740 O   0  0  0  0  0  0  0  0  0  0  0  0
    6.9906   -6.2512   -3.5266 C   0  0  2  0  0  0  0  0  0  0  0  0
    7.3126   -7.5149   -2.8897 N   0  3  0  0  0  0  0  0  0  0  0  0
    5.8682   -6.4382   -4.5543 C   0  0  1  0  0  0  0  0  0  0  0  0
    5.2229   -5.1947   -4.7784 O   0  0  0  0  0  0  0  0  0  0  0  0
    6.3840   -6.9924   -5.8796 C   0  0  2  0  0  0  0  0  0  0  0  0
    6.7435   -8.3605   -5.7268 O   0  0  0  0  0  0  0  0  0  0  0  0
    8.0957   -6.6786   -7.6896 C   0  0  0  0  0  0  0  0  0  0  0  0
    7.0296   -6.6472   -8.6731 N   0  3  0  0  0  0  0  0  0  0  0  0
    7.8245    1.0725    2.5590 C   0  0  1  0  0  0  0  0  0  0  0  0
    7.4591    1.1933    1.1683 O   0  0  0  0  0  0  0  0  0  0  0  0
    8.5986    1.2905    0.2831 C   0  0  2  0  0  0  0  0  0  0  0  0
    9.3852    0.0736    0.2742 O   0  0  0  0  0  0  0  0  0  0  0  0
    9.4625    2.5046    0.6454 C   0  0  2  0  0  0  0  0  0  0  0  0
   10.7036    2.4714   -0.1057 N   0  3  0  0  0  0  0  0  0  0  0  0
    9.7799    2.5475    2.1360 C   0  0  1  0  0  0  0  0  0  0  0  0
   10.3715    3.7955    2.4630 O   0  0  0  0  0  0  0  0  0  0  0  0
    8.5603    2.3215    3.0162 C   0  0  2  0  0  0  0  0  0  0  0  0
    8.9504    2.1860    4.3749 O   0  0  0  0  0  0  0  0  0  0  0  0
    6.5711    0.9328    3.4181 C   0  0  0  0  0  0  0  0  0  0  0  0
    6.5443   -0.3575    4.0823 N   0  3  0  0  0  0  0  0  0  0  0  0
    6.7432   -1.9884   -2.3464 C   0  0  2  0  0  0  0  0  0  0  0  0
    7.6393   -0.9176   -2.9367 C   0  0  0  0  0  0  0  0  0  0  0  0
    8.1993   -0.0297   -1.8409 C   0  0  1  0  0  0  0  0  0  0  0  0
    9.0549   -0.8020   -0.8357 C   0  0  2  0  0  0  0  0  0  0  0  0
    8.3063   -2.0514   -0.3166 C   0  0  1  0  0  0  0  0  0  0  0  0
    7.5150   -2.8528   -1.3586 C   0  0  1  0  0  0  0  0  0  0  0  0
    6.2172   -2.8185   -3.4133 N   0  3  0  0  0  0  0  0  0  0  0  0
    8.9669    1.0404   -2.4476 N   0  3  0  0  0  0  0  0  0  0  0  0
    9.1896   -2.9322    0.4202 O   0  0  0  0  0  0  0  0  0  0  0  0
    6.6216   -3.7464   -0.7025 O   0  0  0  0  0  0  0  0  0  0  0  0
  1  2  1  0  0  0  0
  3  2  1  6  0  0  0
  3  4  1  0  0  0  0
  3  5  1  0  0  0  0
  4  8  1  0  0  0  0
  5  6  1  0  0  0  0
  5 12  1  6  0  0  0
  6  7  1  6  0  0  0
  6  8  1  0  0  0  0
  8 41  1  6  0  0  0
  9 10  1  0  0  0  0
  9 17  1  0  0  0  0
  9 19  1  6  0  0  0
 10 11  1  0  0  0  0
 11 12  1  1  0  0  0
 11 13  1  0  0  0  0
 13 14  1  6  0  0  0
 13 15  1  0  0  0  0
 15 16  1  6  0  0  0
 15 17  1  0  0  0  0
 17 18  1  1  0  0  0
 19 20  1  0  0  0  0
 21 22  1  0  0  0  0
 21 29  1  0  0  0  0
 21 31  1  1  0  0  0
 22 23  1  0  0  0  0
 23 24  1  1  0  0  0
 23 25  1  0  0  0  0
 25 26  1  6  0  0  0
 25 27  1  0  0  0  0
 27 28  1  1  0  0  0
 27 29  1  0  0  0  0
 29 30  1  1  0  0  0
 31 32  1  0  0  0  0
 33 34  1  0  0  0  0
 33 38  1  0  0  0  0
 33 39  1  6  0  0  0
 34 35  1  0  0  0  0
 35 36  1  0  0  0  0
 35 40  1  6  0  0  0
 36 24  1  1  0  0  0
 36 37  1  0  0  0  0
 37 38  1  0  0  0  0
 37 41  1  6  0  0  0
 38 42  1  1  0  0  0
M  CHG  6  14   1  20   1  26   1  32   1  39   1  40   1
M  END
>  <CHROM.1>
165.15401348,164.93463913,-99.61339365,-51.38665447,23.13101047,177.77880032
150.81522652,85.22311882,-132.87138079,-52.52918945,61.41199375,116.31615574
96.91048895,12.85497912,-54.52517488,65.81173014,82.74932601,102.88344241
51.51380328,-88.29496280,-62.69884984,77.23409044,8.36046685,-2.52918248
-1.72414352,-1.81664345,1.05399024,0.95823215

>  <Name>


>  <RI>
0

>  <Rbt.Current_Directory>
/home/itssahil/PROJECTS/Mol_Feturizer/New_Systems/rnas/1qd3

>  <Rbt.Executable>
rbdock ($Id: //depot/dev/client3/rdock/2013.1/src/exe/rbdock.cxx#4 $)

>  <Rbt.Library>
libRbt.so (2013.1, Build901 2013/11/27)

>  <Rbt.Parameter_File>
/export/apps/rDock/src/rDock_2013.1_src/data/scripts/dock_solv.prm

>  <Rbt.Receptor>
prm/pocket_docking_2.prm

>  <SCORE>
-23.4956

>  <SCORE.INTER>
-36.6486

>  <SCORE.INTER.CONST>
1

>  <SCORE.INTER.POLAR>
-6.72505

>  <SCORE.INTER.ROT>
9

>  <SCORE.INTER.SOLV>
44.732

>  <SCORE.INTER.VDW>
-26.5262

>  <SCORE.INTER.norm>
-0.872587

>  <SCORE.INTRA>
8.95645

>  <SCORE.INTRA.DIHEDRAL>
8.88537

>  <SCORE.INTRA.DIHEDRAL.0>
40.6252

>  <SCORE.INTRA.POLAR>
0.804741

>  <SCORE.INTRA.POLAR.0>
-1.20161

>  <SCORE.INTRA.REPUL>
-0.114195

>  <SCORE.INTRA.REPUL.0>
0.115675

>  <SCORE.INTRA.SOLV>
1.08387

>  <SCORE.INTRA.SOLV.lig_0>
-154.895

>  <SCORE.INTRA.VDW>
1.80668

>  <SCORE.INTRA.VDW.0>
2.2925

>  <SCORE.INTRA.norm>
0.213249

>  <SCORE.RESTR>
4.19658

>  <SCORE.RESTR.CAVITY>
4.19658

>  <SCORE.RESTR.norm>
0.0999185

>  <SCORE.SYSTEM>
0

>  <SCORE.SYSTEM.CONST>
0

>  <SCORE.SYSTEM.DIHEDRAL>
0

>  <SCORE.SYSTEM.SOLV>
0

>  <SCORE.SYSTEM.norm>
0

>  <SCORE.heavy>
42

>  <SCORE.norm>
-0.559419

>  <RMSD>
2.984

$$$$

 OpenBabel11021811413D
libRbt.so/2013.1/901 2013/11/27
 42 45  0  0  0  0  0  0  0  0999 V2000
    9.3739   -2.4014   -3.6301 O   0  0  0  0  0  0  0  0  0  0  0  0
    9.5183   -3.5048   -2.7473 C   0  0  0  0  0  0  0  0  0  0  0  0
    8.9001   -3.1663   -1.3902 C   0  0  1  0  0  0  0  0  0  0  0  0
    9.5536   -2.0298   -0.7844 O   0  0  0  0  0  0  0  0  0  0  0  0
    7.4274   -2.8005   -1.4724 C   0  0  2  0  0  0  0  0  0  0  0  0
    7.2513   -2.0626   -0.1558 C   0  0  1  0  0  0  0  0  0  0  0  0
    7.1687   -2.9990    0.9129 O   0  0  0  0  0  0  0  0  0  0  0  0
    8.5656   -1.2624   -0.0511 C   0  0  2  0  0  0  0  0  0  0  0  0
    7.3136   -7.0512   -3.3948 C   0  0  2  0  0  0  0  0  0  0  0  0
    6.9210   -6.1959   -2.3104 O   0  0  0  0  0  0  0  0  0  0  0  0
    6.9368   -4.8074   -2.6881 C   0  0  2  0  0  0  0  0  0  0  0  0
    6.5945   -3.9733   -1.5617 O   0  0  0  0  0  0  0  0  0  0  0  0
    5.9687   -4.5514   -3.8560 C   0  0  2  0  0  0  0  0  0  0  0  0
    4.5943   -4.5304   -3.3902 N   0  3  0  0  0  0  0  0  0  0  0  0
    6.1323   -5.5568   -5.0019 C   0  0  1  0  0  0  0  0  0  0  0  0
    7.2761   -5.2151   -5.7686 O   0  0  0  0  0  0  0  0  0  0  0  0
    6.2649   -6.9915   -4.4980 C   0  0  2  0  0  0  0  0  0  0  0  0
    5.0111   -7.4516   -4.0074 O   0  0  0  0  0  0  0  0  0  0  0  0
    7.5076   -8.4839   -2.9065 C   0  0  0  0  0  0  0  0  0  0  0  0
    8.0541   -9.3106   -3.9662 N   0  3  0  0  0  0  0  0  0  0  0  0
    7.8511    0.9788    3.3418 C   0  0  1  0  0  0  0  0  0  0  0  0
    7.6845    0.8005    1.9196 O   0  0  0  0  0  0  0  0  0  0  0  0
    8.1666    1.9202    1.1416 C   0  0  2  0  0  0  0  0  0  0  0  0
    9.6028    2.0790    1.2502 O   0  0  0  0  0  0  0  0  0  0  0  0
    7.4363    3.2088    1.5388 C   0  0  2  0  0  0  0  0  0  0  0  0
    8.0700    4.3519    0.9084 N   0  3  0  0  0  0  0  0  0  0  0  0
    7.4280    3.4107    3.0500 C   0  0  1  0  0  0  0  0  0  0  0  0
    6.5496    4.4738    3.3854 O   0  0  0  0  0  0  0  0  0  0  0  0
    7.0259    2.1623    3.8201 C   0  0  2  0  0  0  0  0  0  0  0  0
    7.2190    2.3582    5.2133 O   0  0  0  0  0  0  0  0  0  0  0  0
    7.3585   -0.2598    4.0847 C   0  0  0  0  0  0  0  0  0  0  0  0
    6.3797   -0.9800    3.2910 N   0  3  0  0  0  0  0  0  0  0  0  0
   11.8044    0.7431   -2.1363 C   0  0  2  0  0  0  0  0  0  0  0  0
   12.5157    0.7911   -0.7984 C   0  0  0  0  0  0  0  0  0  0  0  0
   11.7408    1.6484    0.1851 C   0  0  1  0  0  0  0  0  0  0  0  0
   10.3378    1.1063    0.4620 C   0  0  2  0  0  0  0  0  0  0  0  0
    9.5847    0.8202   -0.8578 C   0  0  1  0  0  0  0  0  0  0  0  0
   10.4025    0.1692   -1.9810 C   0  0  1  0  0  0  0  0  0  0  0  0
   12.5672   -0.0765   -3.0584 N   0  3  0  0  0  0  0  0  0  0  0  0
   12.4985    1.7544    1.4168 N   0  3  0  0  0  0  0  0  0  0  0  0
    8.3721    0.0625   -0.6243 O   0  0  0  0  0  0  0  0  0  0  0  0
    9.6997    0.2785   -3.2144 O   0  0  0  0  0  0  0  0  0  0  0  0
  1  2  1  0  0  0  0
  3  2  1  6  0  0  0
  3  4  1  0  0  0  0
  3  5  1  0  0  0  0
  4  8  1  0  0  0  0
  5  6  1  0  0  0  0
  5 12  1  1  0  0  0
  6  7  1  1  0  0  0
  6  8  1  0  0  0  0
  8 41  1  6  0  0  0
  9 10  1  0  0  0  0
  9 17  1  0  0  0  0
  9 19  1  1  0  0  0
 10 11  1  0  0  0  0
 11 12  1  1  0  0  0
 11 13  1  0  0  0  0
 13 14  1  1  0  0  0
 13 15  1  0  0  0  0
 15 16  1  1  0  0  0
 15 17  1  0  0  0  0
 17 18  1  1  0  0  0
 19 20  1  0  0  0  0
 21 22  1  0  0  0  0
 21 29  1  0  0  0  0
 21 31  1  1  0  0  0
 22 23  1  0  0  0  0
 23 24  1  1  0  0  0
 23 25  1  0  0  0  0
 25 26  1  6  0  0  0
 25 27  1  0  0  0  0
 27 28  1  6  0  0  0
 27 29  1  0  0  0  0
 29 30  1  1  0  0  0
 31 32  1  0  0  0  0
 33 34  1  0  0  0  0
 33 38  1  0  0  0  0
 33 39  1  6  0  0  0
 34 35  1  0  0  0  0
 35 36  1  0  0  0  0
 35 40  1  1  0  0  0
 36 24  1  1  0  0  0
 36 37  1  0  0  0  0
 37 38  1  0  0  0  0
 37 41  1  1  0  0  0
 38 42  1  6  0  0  0
M  CHG  6  14   1  20   1  26   1  32   1  39   1  40   1
M  END
>  <CHROM.1>
-175.10279541,-60.80252651,-57.08391774,60.94546629,-50.39208580,-173.31474494
137.81723654,-123.03102361,-174.52336411,57.50121060,-66.56848661,-24.52764138
76.24113075,158.04462340,-34.04235829,-57.36701227,-64.18564139,32.62095087
-59.81200955,-149.78906751,-62.41915927,166.38985610,8.23796263,-1.50654548
-0.73158417,-1.77347865,0.61377071,0.71681078

>  <Name>


>  <RI>
0

>  <Rbt.Current_Directory>
/home/itssahil/PROJECTS/Mol_Feturizer/New_Systems/rnas/1qd3

>  <Rbt.Executable>
rbdock ($Id: //depot/dev/client3/rdock/2013.1/src/exe/rbdock.cxx#4 $)

>  <Rbt.Library>
libRbt.so (2013.1, Build901 2013/11/27)

>  <Rbt.Parameter_File>
/export/apps/rDock/src/rDock_2013.1_src/data/scripts/dock_solv.prm

>  <Rbt.Receptor>
prm/pocket_docking_3.prm

>  <SCORE>
-64.3139

>  <SCORE.INTER>
-52.5539

>  <SCORE.INTER.CONST>
1

>  <SCORE.INTER.POLAR>
-8.95591

>  <SCORE.INTER.ROT>
9

>  <SCORE.INTER.SOLV>
47.5644

>  <SCORE.INTER.VDW>
-30.6377

>  <SCORE.INTER.norm>
-1.25128

>  <SCORE.INTRA>
-12.9245

>  <SCORE.INTRA.DIHEDRAL>
-17.0458

>  <SCORE.INTRA.DIHEDRAL.0>
40.6252

>  <SCORE.INTRA.POLAR>
0.508311

>  <SCORE.INTRA.POLAR.0>
-1.20161

>  <SCORE.INTRA.REPUL>
-0.115675

>  <SCORE.INTRA.REPUL.0>
0.115675

>  <SCORE.INTRA.SOLV>
-6.74467

>  <SCORE.INTRA.SOLV.lig_0>
-154.895

>  <SCORE.INTRA.VDW>
-2.17913

>  <SCORE.INTRA.VDW.0>
2.2925

>  <SCORE.INTRA.norm>
-0.307726

>  <SCORE.RESTR>
1.16447

>  <SCORE.RESTR.CAVITY>
1.16447

>  <SCORE.RESTR.norm>
0.0277254

>  <SCORE.SYSTEM>
0

>  <SCORE.SYSTEM.CONST>
0

>  <SCORE.SYSTEM.DIHEDRAL>
0

>  <SCORE.SYSTEM.SOLV>
0

>  <SCORE.SYSTEM.norm>
0

>  <SCORE.heavy>
42

>  <SCORE.norm>
-1.53128

>  <RMSD>
2.985

$$$$

 OpenBabel11021811413D
libRbt.so/2013.1/901 2013/11/27
 42 45  0  0  0  0  0  0  0  0999 V2000
   10.7422   -4.7637   -3.7183 O   0  0  0  0  0  0  0  0  0  0  0  0
   10.0747   -3.7896   -2.9288 C   0  0  0  0  0  0  0  0  0  0  0  0
   10.1244   -4.1950   -1.4552 C   0  0  1  0  0  0  0  0  0  0  0  0
    9.7720   -3.0901   -0.5945 O   0  0  0  0  0  0  0  0  0  0  0  0
    9.1597   -5.3156   -1.1048 C   0  0  2  0  0  0  0  0  0  0  0  0
    9.0685   -5.1417    0.4020 C   0  0  1  0  0  0  0  0  0  0  0  0
   10.2342   -5.6767    1.0192 O   0  0  0  0  0  0  0  0  0  0  0  0
    9.0527   -3.6070    0.5536 C   0  0  2  0  0  0  0  0  0  0  0  0
    7.1205   -8.3149   -3.4393 C   0  0  2  0  0  0  0  0  0  0  0  0
    8.1968   -7.4158   -3.1317 O   0  0  0  0  0  0  0  0  0  0  0  0
    8.6456   -7.5599   -1.7721 C   0  0  2  0  0  0  0  0  0  0  0  0
    9.6859   -6.6040   -1.4792 O   0  0  0  0  0  0  0  0  0  0  0  0
    9.1475   -8.9911   -1.5148 C   0  0  2  0  0  0  0  0  0  0  0  0
   10.4638   -9.1870   -2.0939 N   0  3  0  0  0  0  0  0  0  0  0  0
    8.1755  -10.0664   -2.0144 C   0  0  1  0  0  0  0  0  0  0  0  0
    7.1001  -10.1917   -1.0974 O   0  0  0  0  0  0  0  0  0  0  0  0
    7.6281   -9.7507   -3.4037 C   0  0  2  0  0  0  0  0  0  0  0  0
    8.6466   -9.9345   -4.3801 O   0  0  0  0  0  0  0  0  0  0  0  0
    6.5174   -7.9855   -4.8019 C   0  0  0  0  0  0  0  0  0  0  0  0
    5.0727   -8.1132   -4.7607 N   0  3  0  0  0  0  0  0  0  0  0  0
    8.5120    2.2969    1.6824 C   0  0  1  0  0  0  0  0  0  0  0  0
    9.2922    1.1029    1.4639 O   0  0  0  0  0  0  0  0  0  0  0  0
    8.4968   -0.1047    1.4405 C   0  0  2  0  0  0  0  0  0  0  0  0
    7.5904   -0.1366    0.3104 O   0  0  0  0  0  0  0  0  0  0  0  0
    7.7388   -0.2782    2.7622 C   0  0  2  0  0  0  0  0  0  0  0  0
    6.7892   -1.3696    2.6492 N   0  3  0  0  0  0  0  0  0  0  0  0
    6.9962    0.9929    3.1589 C   0  0  1  0  0  0  0  0  0  0  0  0
    6.5105    0.8682    4.4866 O   0  0  0  0  0  0  0  0  0  0  0  0
    7.8512    2.2461    3.0502 C   0  0  2  0  0  0  0  0  0  0  0  0
    7.0554    3.4053    3.2491 O   0  0  0  0  0  0  0  0  0  0  0  0
    9.4170    3.5252    1.6506 C   0  0  0  0  0  0  0  0  0  0  0  0
    8.9649    4.4711    0.6468 N   0  3  0  0  0  0  0  0  0  0  0  0
    7.0353   -2.5781   -3.1292 C   0  0  2  0  0  0  0  0  0  0  0  0
    7.9860   -1.4022   -3.2367 C   0  0  0  0  0  0  0  0  0  0  0  0
    7.7615   -0.4308   -2.0927 C   0  0  1  0  0  0  0  0  0  0  0  0
    8.0124   -1.0643   -0.7235 C   0  0  2  0  0  0  0  0  0  0  0  0
    7.2426   -2.3977   -0.5812 C   0  0  1  0  0  0  0  0  0  0  0  0
    7.2357   -3.3145   -1.8115 C   0  0  1  0  0  0  0  0  0  0  0  0
    7.2661   -3.4871   -4.2357 N   0  3  0  0  0  0  0  0  0  0  0  0
    8.6142    0.7264   -2.2828 N   0  3  0  0  0  0  0  0  0  0  0  0
    7.6739   -3.1385    0.5868 O   0  0  0  0  0  0  0  0  0  0  0  0
    6.2324   -4.3136   -1.6625 O   0  0  0  0  0  0  0  0  0  0  0  0
  1  2  1  0  0  0  0
  3  2  1  6  0  0  0
  3  4  1  0  0  0  0
  3  5  1  0  0  0  0
  4  8  1  0  0  0  0
  5  6  1  0  0  0  0
  5 12  1  1  0  0  0
  6  7  1  1  0  0  0
  6  8  1  0  0  0  0
  8 41  1  6  0  0  0
  9 10  1  0  0  0  0
  9 17  1  0  0  0  0
  9 19  1  6  0  0  0
 10 11  1  0  0  0  0
 11 12  1  6  0  0  0
 11 13  1  0  0  0  0
 13 14  1  6  0  0  0
 13 15  1  0  0  0  0
 15 16  1  1  0  0  0
 15 17  1  0  0  0  0
 17 18  1  6  0  0  0
 19 20  1  0  0  0  0
 21 22  1  0  0  0  0
 21 29  1  0  0  0  0
 21 31  1  1  0  0  0
 22 23  1  0  0  0  0
 23 24  1  6  0  0  0
 23 25  1  0  0  0  0
 25 26  1  6  0  0  0
 25 27  1  0  0  0  0
 27 28  1  1  0  0  0
 27 29  1  0  0  0  0
 29 30  1  6  0  0  0
 31 32  1  0  0  0  0
 33 34  1  0  0  0  0
 33 38  1  0  0  0  0
 33 39  1  6  0  0  0
 34 35  1  0  0  0  0
 35 36  1  0  0  0  0
 35 40  1  6  0  0  0
 36 24  1  1  0  0  0
 36 37  1  0  0  0  0
 37 38  1  0  0  0  0
 37 41  1  1  0  0  0
 38 42  1  1  0  0  0
M  CHG  6  14   1  20   1  26   1  32   1  39   1  40   1
M  END
>  <CHROM.1>
-175.06960567,165.19710208,-152.03284470,178.68781936,6.94611996,-140.06745352
83.92576205,173.07237195,-160.33844195,-175.05174609,-167.19602502,123.24559288
106.29872695,-139.78368413,159.63646072,-66.89480743,-151.92001057,1.67097813
121.09764481,-59.14958948,-65.17454311,-177.43124897,8.20610241,-3.44180783
-0.82892158,1.24560485,1.52896914,-2.37763621

>  <Name>


>  <RI>
0

>  <Rbt.Current_Directory>
/home/itssahil/PROJECTS/Mol_Feturizer/New_Systems/rnas/1qd3

>  <Rbt.Executable>
rbdock ($Id: //depot/dev/client3/rdock/2013.1/src/exe/rbdock.cxx#4 $)

>  <Rbt.Library>
libRbt.so (2013.1, Build901 2013/11/27)

>  <Rbt.Parameter_File>
/export/apps/rDock/src/rDock_2013.1_src/data/scripts/dock_solv.prm

>  <Rbt.Receptor>
prm/pocket_docking_5.prm

>  <SCORE>
-37.3296

>  <SCORE.INTER>
-30.526

>  <SCORE.INTER.CONST>
1

>  <SCORE.INTER.POLAR>
-6.62863

>  <SCORE.INTER.ROT>
9

>  <SCORE.INTER.SOLV>
42.2057

>  <SCORE.INTER.VDW>
-21.9238

>  <SCORE.INTER.norm>
-0.72681

>  <SCORE.INTRA>
-6.80355

>  <SCORE.INTRA.DIHEDRAL>
10.0621

>  <SCORE.INTRA.DIHEDRAL.0>
40.6252

>  <SCORE.INTRA.POLAR>
-0.0268857

>  <SCORE.INTRA.POLAR.0>
-1.20161

>  <SCORE.INTRA.REPUL>
-0.115675

>  <SCORE.INTRA.REPUL.0>
0.115675

>  <SCORE.INTRA.SOLV>
-7.20092

>  <SCORE.INTRA.SOLV.lig_0>
-154.895

>  <SCORE.INTRA.VDW>
-7.56434

>  <SCORE.INTRA.VDW.0>
2.2925

>  <SCORE.INTRA.norm>
-0.161989

>  <SCORE.RESTR>
0

>  <SCORE.RESTR.CAVITY>
0

>  <SCORE.RESTR.norm>
0

>  <SCORE.SYSTEM>
0

>  <SCORE.SYSTEM.CONST>
0

>  <SCORE.SYSTEM.DIHEDRAL>
0

>  <SCORE.SYSTEM.SOLV>
0

>  <SCORE.SYSTEM.norm>
0

>  <SCORE.heavy>
42

>  <SCORE.norm>
-0.888799

>  <RMSD>
3.078

$$$$

 OpenBabel11021811413D
libRbt.so/2013.1/901 2013/11/27
 42 45  0  0  0  0  0  0  0  0999 V2000
    8.0801   -3.1987   -3.2416 O   0  0  0  0  0  0  0  0  0  0  0  0
    9.0132   -4.2440   -3.0089 C   0  0  0  0  0  0  0  0  0  0  0  0
    9.3631   -4.3039   -1.5215 C   0  0  1  0  0  0  0  0  0  0  0  0
    9.6816   -2.9938   -1.0039 O   0  0  0  0  0  0  0  0  0  0  0  0
    8.2287   -4.8257   -0.6553 C   0  0  2  0  0  0  0  0  0  0  0  0
    8.6591   -4.3073    0.7067 C   0  0  1  0  0  0  0  0  0  0  0  0
    9.7027   -5.1249    1.2246 O   0  0  0  0  0  0  0  0  0  0  0  0
    9.2102   -2.9080    0.3648 C   0  0  2  0  0  0  0  0  0  0  0  0
    5.8352   -6.1438   -3.5219 C   0  0  2  0  0  0  0  0  0  0  0  0
    6.8699   -5.7302   -2.6165 O   0  0  0  0  0  0  0  0  0  0  0  0
    7.1481   -6.7338   -1.6235 C   0  0  2  0  0  0  0  0  0  0  0  0
    8.1491   -6.2640   -0.6967 O   0  0  0  0  0  0  0  0  0  0  0  0
    7.6081   -8.0425   -2.2884 C   0  0  2  0  0  0  0  0  0  0  0  0
    8.9845   -7.9364   -2.7363 N   0  3  0  0  0  0  0  0  0  0  0  0
    6.6996   -8.4800   -3.4434 C   0  0  1  0  0  0  0  0  0  0  0  0
    5.5194   -9.0666   -2.9180 O   0  0  0  0  0  0  0  0  0  0  0  0
    6.3280   -7.3170   -4.3593 C   0  0  2  0  0  0  0  0  0  0  0  0
    7.4576   -6.9272   -5.1317 O   0  0  0  0  0  0  0  0  0  0  0  0
    5.4050   -4.9825   -4.4137 C   0  0  0  0  0  0  0  0  0  0  0  0
    4.7041   -3.9786   -3.6353 N   0  3  0  0  0  0  0  0  0  0  0  0
    7.4369   -0.0861    3.5908 C   0  0  1  0  0  0  0  0  0  0  0  0
    7.1063    0.2595    2.2294 O   0  0  0  0  0  0  0  0  0  0  0  0
    8.0210    1.2135    1.6424 C   0  0  2  0  0  0  0  0  0  0  0  0
    9.3537    0.6656    1.4898 O   0  0  0  0  0  0  0  0  0  0  0  0
    8.0469    2.5109    2.4597 C   0  0  2  0  0  0  0  0  0  0  0  0
    9.1149    3.3725    1.9879 N   0  3  0  0  0  0  0  0  0  0  0  0
    8.2432    2.2380    3.9469 C   0  0  1  0  0  0  0  0  0  0  0  0
    8.0256    3.4308    4.6845 O   0  0  0  0  0  0  0  0  0  0  0  0
    7.3343    1.1417    4.4810 C   0  0  2  0  0  0  0  0  0  0  0  0
    7.6944    0.8076    5.8134 O   0  0  0  0  0  0  0  0  0  0  0  0
    6.4523   -1.1251    4.1197 C   0  0  0  0  0  0  0  0  0  0  0  0
    6.4423   -2.3026    3.2712 N   0  3  0  0  0  0  0  0  0  0  0  0
    8.6082    0.1336   -2.6648 C   0  0  2  0  0  0  0  0  0  0  0  0
    9.9532    0.6959   -2.2492 C   0  0  0  0  0  0  0  0  0  0  0  0
    9.9026    1.1904   -0.8154 C   0  0  1  0  0  0  0  0  0  0  0  0
    9.5740    0.0776    0.1809 C   0  0  2  0  0  0  0  0  0  0  0  0
    8.3181   -0.7084   -0.2617 C   0  0  1  0  0  0  0  0  0  0  0  0
    8.2041   -1.0221   -1.7594 C   0  0  1  0  0  0  0  0  0  0  0  0
    8.6817   -0.3261   -4.0386 N   0  3  0  0  0  0  0  0  0  0  0  0
   11.1707    1.8113   -0.4860 N   0  3  0  0  0  0  0  0  0  0  0  0
    8.1495   -1.9209    0.5131 O   0  0  0  0  0  0  0  0  0  0  0  0
    6.8751   -1.4305   -2.0664 O   0  0  0  0  0  0  0  0  0  0  0  0
  1  2  1  0  0  0  0
  3  2  1  6  0  0  0
  3  4  1  0  0  0  0
  3  5  1  0  0  0  0
  4  8  1  0  0  0  0
  5  6  1  0  0  0  0
  5 12  1  1  0  0  0
  6  7  1  6  0  0  0
  6  8  1  0  0  0  0
  8 41  1  6  0  0  0
  9 10  1  0  0  0  0
  9 17  1  0  0  0  0
  9 19  1  6  0  0  0
 10 11  1  0  0  0  0
 11 12  1  1  0  0  0
 11 13  1  0  0  0  0
 13 14  1  6  0  0  0
 13 15  1  0  0  0  0
 15 16  1  1  0  0  0
 15 17  1  0  0  0  0
 17 18  1  1  0  0  0
 19 20  1  0  0  0  0
 21 22  1  0  0  0  0
 21 29  1  0  0  0  0
 21 31  1  1  0  0  0
 22 23  1  0  0  0  0
 23 24  1  1  0  0  0
 23 25  1  0  0  0  0
 25 26  1  6  0  0  0
 25 27  1  0  0  0  0
 27 28  1  1  0  0  0
 27 29  1  0  0  0  0
 29 30  1  1  0  0  0
 31 32  1  0  0  0  0
 33 34  1  0  0  0  0
 33 38  1  0  0  0  0
 33 39  1  6  0  0  0
 34 35  1  0  0  0  0
 35 36  1  0  0  0  0
 35 40  1  1  0  0  0
 36 24  1  1  0  0  0
 36 37  1  0  0  0  0
 37 38  1  0  0  0  0
 37 41  1  1  0  0  0
 38 42  1  1  0  0  0
M  CHG  6  14   1  20   1  26   1  32   1  39   1  40   1
M  END
>  <CHROM.1>
-177.77248315,-47.95381072,-98.24120280,71.55868003,-38.89448021,-69.12080118
22.57990622,15.43530601,68.36488642,55.50614004,94.35367634,56.88457565,93.30891047
81.09255179,-60.28418093,-48.73475373,-178.89246308,-105.94517629,135.34664542
66.30386430,-63.52053919,-55.14691683,7.98662802,-2.44164141,-0.44627948
-1.96660222,1.23588712,1.00116182

>  <Name>


>  <RI>
0

>  <Rbt.Current_Directory>
/home/itssahil/PROJECTS/Mol_Feturizer/New_Systems/rnas/1qd3

>  <Rbt.Executable>
rbdock ($Id: //depot/dev/client3/rdock/2013.1/src/exe/rbdock.cxx#4 $)

>  <Rbt.Library>
libRbt.so (2013.1, Build901 2013/11/27)

>  <Rbt.Parameter_File>
/export/apps/rDock/src/rDock_2013.1_src/data/scripts/dock_solv.prm

>  <Rbt.Receptor>
prm/pocket_docking_3.prm

>  <SCORE>
4.29504

>  <SCORE.INTER>
11.5981

>  <SCORE.INTER.CONST>
1

>  <SCORE.INTER.POLAR>
-4.10949

>  <SCORE.INTER.ROT>
9

>  <SCORE.INTER.SOLV>
50.2623

>  <SCORE.INTER.VDW>
-4.92375

>  <SCORE.INTER.norm>
0.276145

>  <SCORE.INTRA>
-7.81208

>  <SCORE.INTRA.DIHEDRAL>
-6.97343

>  <SCORE.INTRA.DIHEDRAL.0>
40.6252

>  <SCORE.INTRA.POLAR>
-0.471698

>  <SCORE.INTRA.POLAR.0>
-1.20161

>  <SCORE.INTRA.REPUL>
-0.00117727

>  <SCORE.INTRA.REPUL.0>
0.115675

>  <SCORE.INTRA.SOLV>
0.476692

>  <SCORE.INTRA.SOLV.lig_0>
-154.895

>  <SCORE.INTRA.VDW>
-2.95406

>  <SCORE.INTRA.VDW.0>
2.2925

>  <SCORE.INTRA.norm>
-0.186002

>  <SCORE.RESTR>
0.509029

>  <SCORE.RESTR.CAVITY>
0.509029

>  <SCORE.RESTR.norm>
0.0121197

>  <SCORE.SYSTEM>
0

>  <SCORE.SYSTEM.CONST>
0

>  <SCORE.SYSTEM.DIHEDRAL>
0

>  <SCORE.SYSTEM.SOLV>
0

>  <SCORE.SYSTEM.norm>
0

>  <SCORE.heavy>
42

>  <SCORE.norm>
0.102263

>  <RMSD>
3.137

$$$$

 OpenBabel11021811413D
libRbt.so/2013.1/901 2013/11/27
 42 45  0  0  0  0  0  0  0  0999 V2000
    7.6433   -5.1239   -3.0874 O   0  0  0  0  0  0  0  0  0  0  0  0
    8.9174   -5.5943   -2.6712 C   0  0  0  0  0  0  0  0  0  0  0  0
    9.1867   -5.1542   -1.2317 C   0  0  1  0  0  0  0  0  0  0  0  0
    9.4376   -3.7341   -1.1550 O   0  0  0  0  0  0  0  0  0  0  0  0
    8.0223   -5.4193   -0.2918 C   0  0  2  0  0  0  0  0  0  0  0  0
    8.3618   -4.4696    0.8447 C   0  0  1  0  0  0  0  0  0  0  0  0
    9.3991   -5.0274    1.6439 O   0  0  0  0  0  0  0  0  0  0  0  0
    8.8894   -3.2322    0.0902 C   0  0  2  0  0  0  0  0  0  0  0  0
    5.9987   -8.4518   -2.4463 C   0  0  2  0  0  0  0  0  0  0  0  0
    7.1106   -7.7814   -1.8333 O   0  0  0  0  0  0  0  0  0  0  0  0
    6.8781   -7.5207   -0.4373 C   0  0  2  0  0  0  0  0  0  0  0  0
    7.9875   -6.7960    0.1332 O   0  0  0  0  0  0  0  0  0  0  0  0
    6.6474   -8.8344    0.3292 C   0  0  2  0  0  0  0  0  0  0  0  0
    7.9022   -9.5302    0.5475 N   0  3  0  0  0  0  0  0  0  0  0  0
    5.6331   -9.7580   -0.3555 C   0  0  1  0  0  0  0  0  0  0  0  0
    4.3197   -9.2850   -0.1023 O   0  0  0  0  0  0  0  0  0  0  0  0
    5.8610   -9.8518   -1.8617 C   0  0  2  0  0  0  0  0  0  0  0  0
    7.0338  -10.6118   -2.1290 O   0  0  0  0  0  0  0  0  0  0  0  0
    6.1746   -8.5104   -3.9610 C   0  0  0  0  0  0  0  0  0  0  0  0
    4.8877   -8.4172   -4.6244 N   0  3  0  0  0  0  0  0  0  0  0  0
    8.1815    3.1708    2.1810 C   0  0  1  0  0  0  0  0  0  0  0  0
    9.1685    2.1276    2.3217 O   0  0  0  0  0  0  0  0  0  0  0  0
    8.5955    0.8010    2.3791 C   0  0  2  0  0  0  0  0  0  0  0  0
    7.9549    0.4314    1.1331 O   0  0  0  0  0  0  0  0  0  0  0  0
    7.6214    0.6835    3.5577 C   0  0  2  0  0  0  0  0  0  0  0  0
    6.8994   -0.5728    3.4803 N   0  3  0  0  0  0  0  0  0  0  0  0
    6.6223    1.8349    3.5820 C   0  0  1  0  0  0  0  0  0  0  0  0
    5.9024    1.8174    4.8049 O   0  0  0  0  0  0  0  0  0  0  0  0
    7.2726    3.1977    3.3989 C   0  0  2  0  0  0  0  0  0  0  0  0
    6.2799    4.2011    3.2427 O   0  0  0  0  0  0  0  0  0  0  0  0
    8.8683    4.5302    2.0856 C   0  0  0  0  0  0  0  0  0  0  0  0
    9.0318    4.9274    0.6991 N   0  3  0  0  0  0  0  0  0  0  0  0
    9.5002   -0.1577   -2.7867 C   0  0  2  0  0  0  0  0  0  0  0  0
   10.3537    0.6041   -1.7920 C   0  0  0  0  0  0  0  0  0  0  0  0
    9.5142    1.0658   -0.6152 C   0  0  1  0  0  0  0  0  0  0  0  0
    8.8887   -0.0976    0.1555 C   0  0  2  0  0  0  0  0  0  0  0  0
    8.1566   -1.0659   -0.8023 C   0  0  1  0  0  0  0  0  0  0  0  0
    8.8626   -1.3742   -2.1293 C   0  0  1  0  0  0  0  0  0  0  0  0
   10.3239   -0.5822   -3.9026 N   0  3  0  0  0  0  0  0  0  0  0  0
   10.3376    1.8745    0.2625 N   0  3  0  0  0  0  0  0  0  0  0  0
    7.7935   -2.2997   -0.1355 O   0  0  0  0  0  0  0  0  0  0  0  0
    7.9459   -1.9829   -3.0328 O   0  0  0  0  0  0  0  0  0  0  0  0
  1  2  1  0  0  0  0
  3  2  1  6  0  0  0
  3  4  1  0  0  0  0
  3  5  1  0  0  0  0
  4  8  1  0  0  0  0
  5  6  1  0  0  0  0
  5 12  1  1  0  0  0
  6  7  1  1  0  0  0
  6  8  1  0  0  0  0
  8 41  1  6  0  0  0
  9 10  1  0  0  0  0
  9 17  1  0  0  0  0
  9 19  1  6  0  0  0
 10 11  1  0  0  0  0
 11 12  1  1  0  0  0
 11 13  1  0  0  0  0
 13 14  1  6  0  0  0
 13 15  1  0  0  0  0
 15 16  1  6  0  0  0
 15 17  1  0  0  0  0
 17 18  1  1  0  0  0
 19 20  1  0  0  0  0
 21 22  1  0  0  0  0
 21 29  1  0  0  0  0
 21 31  1  1  0  0  0
 22 23  1  0  0  0  0
 23 24  1  6  0  0  0
 23 25  1  0  0  0  0
 25 26  1  6  0  0  0
 25 27  1  0  0  0  0
 27 28  1  1  0  0  0
 27 29  1  0  0  0  0
 29 30  1  6  0  0  0
 31 32  1  0  0  0  0
 33 34  1  0  0  0  0
 33 38  1  0  0  0  0
 33 39  1  6  0  0  0
 34 35  1  0  0  0  0
 35 36  1  0  0  0  0
 35 40  1  1  0  0  0
 36 24  1  1  0  0  0
 36 37  1  0  0  0  0
 37 38  1  0  0  0  0
 37 41  1  1  0  0  0
 38 42  1  6  0  0  0
M  CHG  6  14   1  20   1  26   1  32   1  39   1  40   1
M  END
>  <CHROM.1>
-177.71823851,-71.55590218,-109.85615458,-69.41004272,-64.96726158,-146.24158532
73.16718935,53.25020061,-54.73757020,-168.47926475,165.67872308,96.05900728
83.77458134,-85.54882376,-136.78252585,66.23590337,48.90793942,171.75390621
-167.94275703,65.47696799,-75.65227238,-15.44448220,7.85358738,-2.86613775
-0.12081743,-1.87788468,1.09767612,0.58241642

>  <Name>


>  <RI>
0

>  <Rbt.Current_Directory>
/home/itssahil/PROJECTS/Mol_Feturizer/New_Systems/rnas/1qd3

>  <Rbt.Executable>
rbdock ($Id: //depot/dev/client3/rdock/2013.1/src/exe/rbdock.cxx#4 $)

>  <Rbt.Library>
libRbt.so (2013.1, Build901 2013/11/27)

>  <Rbt.Parameter_File>
/export/apps/rDock/src/rDock_2013.1_src/data/scripts/dock_solv.prm

>  <Rbt.Receptor>
prm/pocket_docking_8.prm

>  <SCORE>
-60.7437

>  <SCORE.INTER>
-50.766

>  <SCORE.INTER.CONST>
1

>  <SCORE.INTER.POLAR>
-8.67966

>  <SCORE.INTER.ROT>
9

>  <SCORE.INTER.SOLV>
41.7906

>  <SCORE.INTER.VDW>
-28.442

>  <SCORE.INTER.norm>
-1.20871

>  <SCORE.INTRA>
-9.97774

>  <SCORE.INTRA.DIHEDRAL>
-5.95588

>  <SCORE.INTRA.DIHEDRAL.0>
40.6252

>  <SCORE.INTRA.POLAR>
0.502372

>  <SCORE.INTRA.POLAR.0>
-1.20161

>  <SCORE.INTRA.REPUL>
-0.0557467

>  <SCORE.INTRA.REPUL.0>
0.115675

>  <SCORE.INTRA.SOLV>
-6.18791

>  <SCORE.INTRA.SOLV.lig_0>
-154.895

>  <SCORE.INTRA.VDW>
-5.33517

>  <SCORE.INTRA.VDW.0>
2.2925

>  <SCORE.INTRA.norm>
-0.237565

>  <SCORE.RESTR>
0

>  <SCORE.RESTR.CAVITY>
0

>  <SCORE.RESTR.norm>
0

>  <SCORE.SYSTEM>
0

>  <SCORE.SYSTEM.CONST>
0

>  <SCORE.SYSTEM.DIHEDRAL>
0

>  <SCORE.SYSTEM.SOLV>
0

>  <SCORE.SYSTEM.norm>
0

>  <SCORE.heavy>
42

>  <SCORE.norm>
-1.44628

>  <RMSD>
3.142

$$$$

 OpenBabel11021811413D
libRbt.so/2013.1/901 2013/11/27
 42 45  0  0  0  0  0  0  0  0999 V2000
    8.0804   -3.7683   -3.4567 O   0  0  0  0  0  0  0  0  0  0  0  0
    9.0881   -4.6568   -2.9954 C   0  0  0  0  0  0  0  0  0  0  0  0
    9.2791   -4.4852   -1.4880 C   0  0  1  0  0  0  0  0  0  0  0  0
    9.8110   -3.1804   -1.1713 O   0  0  0  0  0  0  0  0  0  0  0  0
    7.9865   -4.6071   -0.6982 C   0  0  2  0  0  0  0  0  0  0  0  0
    8.3864   -3.9184    0.5959 C   0  0  1  0  0  0  0  0  0  0  0  0
    9.1871   -4.7958    1.3800 O   0  0  0  0  0  0  0  0  0  0  0  0
    9.2427   -2.7404    0.0882 C   0  0  2  0  0  0  0  0  0  0  0  0
    5.4249   -6.0774   -3.4186 C   0  0  2  0  0  0  0  0  0  0  0  0
    6.5613   -5.7523   -2.6034 O   0  0  0  0  0  0  0  0  0  0  0  0
    6.4917   -6.3785   -1.3097 C   0  0  2  0  0  0  0  0  0  0  0  0
    7.6169   -5.9854   -0.4967 O   0  0  0  0  0  0  0  0  0  0  0  0
    6.4428   -7.9097   -1.4496 C   0  0  2  0  0  0  0  0  0  0  0  0
    7.7563   -8.4399   -1.7658 N   0  3  0  0  0  0  0  0  0  0  0  0
    5.4098   -8.3853   -2.4780 C   0  0  1  0  0  0  0  0  0  0  0  0
    4.1120   -8.3146   -1.9090 O   0  0  0  0  0  0  0  0  0  0  0  0
    5.4503   -7.5613   -3.7621 C   0  0  2  0  0  0  0  0  0  0  0  0
    6.6251   -7.8727   -4.5019 O   0  0  0  0  0  0  0  0  0  0  0  0
    5.4107   -5.2266   -4.6854 C   0  0  0  0  0  0  0  0  0  0  0  0
    5.1746   -3.8332   -4.3572 N   0  3  0  0  0  0  0  0  0  0  0  0
    7.3732    0.1282    2.9594 C   0  0  1  0  0  0  0  0  0  0  0  0
    7.2899    0.2160    1.5215 O   0  0  0  0  0  0  0  0  0  0  0  0
    8.1462    1.2368    0.9594 C   0  0  2  0  0  0  0  0  0  0  0  0
    9.5503    0.9355    1.1532 O   0  0  0  0  0  0  0  0  0  0  0  0
    7.7924    2.6147    1.5321 C   0  0  2  0  0  0  0  0  0  0  0  0
    8.7867    3.5903    1.1257 N   0  3  0  0  0  0  0  0  0  0  0  0
    7.7080    2.5893    3.0542 C   0  0  1  0  0  0  0  0  0  0  0  0
    7.1528    3.8086    3.5225 O   0  0  0  0  0  0  0  0  0  0  0  0
    6.8910    1.4241    3.5907 C   0  0  2  0  0  0  0  0  0  0  0  0
    7.0071    1.3491    5.0040 O   0  0  0  0  0  0  0  0  0  0  0  0
    6.4752   -0.9964    3.4669 C   0  0  0  0  0  0  0  0  0  0  0  0
    6.2079   -1.9567    2.4119 N   0  3  0  0  0  0  0  0  0  0  0  0
   10.2456    0.1088   -2.9617 C   0  0  2  0  0  0  0  0  0  0  0  0
   11.4255    0.5392   -2.1128 C   0  0  0  0  0  0  0  0  0  0  0  0
   10.9469    1.1693   -0.8179 C   0  0  1  0  0  0  0  0  0  0  0  0
   10.1278    0.2040    0.0401 C   0  0  2  0  0  0  0  0  0  0  0  0
    9.0067   -0.4608   -0.7918 C   0  0  1  0  0  0  0  0  0  0  0  0
    9.3823   -0.8982   -2.2138 C   0  0  1  0  0  0  0  0  0  0  0  0
   10.7293   -0.4841   -4.1940 N   0  3  0  0  0  0  0  0  0  0  0  0
   12.0948    1.6589   -0.0797 N   0  3  0  0  0  0  0  0  0  0  0  0
    8.3986   -1.5651   -0.0778 O   0  0  0  0  0  0  0  0  0  0  0  0
    8.2018   -1.1683   -2.9625 O   0  0  0  0  0  0  0  0  0  0  0  0
  1  2  1  0  0  0  0
  3  2  1  6  0  0  0
  3  4  1  0  0  0  0
  3  5  1  0  0  0  0
  4  8  1  0  0  0  0
  5  6  1  0  0  0  0
  5 12  1  1  0  0  0
  6  7  1  1  0  0  0
  6  8  1  0  0  0  0
  8 41  1  6  0  0  0
  9 10  1  0  0  0  0
  9 17  1  0  0  0  0
  9 19  1  6  0  0  0
 10 11  1  0  0  0  0
 11 12  1  1  0  0  0
 11 13  1  0  0  0  0
 13 14  1  6  0  0  0
 13 15  1  0  0  0  0
 15 16  1  1  0  0  0
 15 17  1  0  0  0  0
 17 18  1  1  0  0  0
 19 20  1  0  0  0  0
 21 22  1  0  0  0  0
 21 29  1  0  0  0  0
 21 31  1  1  0  0  0
 22 23  1  0  0  0  0
 23 24  1  1  0  0  0
 23 25  1  0  0  0  0
 25 26  1  1  0  0  0
 25 27  1  0  0  0  0
 27 28  1  6  0  0  0
 27 29  1  0  0  0  0
 29 30  1  1  0  0  0
 31 32  1  0  0  0  0
 33 34  1  0  0  0  0
 33 38  1  0  0  0  0
 33 39  1  6  0  0  0
 34 35  1  0  0  0  0
 35 36  1  0  0  0  0
 35 40  1  1  0  0  0
 36 24  1  1  0  0  0
 36 37  1  0  0  0  0
 37 38  1  0  0  0  0
 37 41  1  1  0  0  0
 38 42  1  6  0  0  0
M  CHG  6  14   1  20   1  26   1  32   1  39   1  40   1
M  END
>  <CHROM.1>
71.99572730,-66.05723173,-107.05212570,-66.72898201,-51.59898598,-67.17683273
37.36047049,174.69352556,-63.16558138,-173.40764530,-179.87597362,21.78583860
92.18295762,102.36506035,-51.60542952,-169.68110950,60.62887832,-172.65084949
173.34090058,-167.59926188,-69.71299166,-150.43888140,7.96026106,-2.38208256
-0.63295581,-1.92402152,0.88209270,0.76658538

>  <Name>


>  <RI>
0

>  <Rbt.Current_Directory>
/home/itssahil/PROJECTS/Mol_Feturizer/New_Systems/rnas/1qd3

>  <Rbt.Executable>
rbdock ($Id: //depot/dev/client3/rdock/2013.1/src/exe/rbdock.cxx#4 $)

>  <Rbt.Library>
libRbt.so (2013.1, Build901 2013/11/27)

>  <Rbt.Parameter_File>
/export/apps/rDock/src/rDock_2013.1_src/data/scripts/dock_solv.prm

>  <Rbt.Receptor>
prm/pocket_docking_3.prm

>  <SCORE>
-46.88

>  <SCORE.INTER>
-36.9883

>  <SCORE.INTER.CONST>
1

>  <SCORE.INTER.POLAR>
-6.28127

>  <SCORE.INTER.ROT>
9

>  <SCORE.INTER.SOLV>
48.3759

>  <SCORE.INTER.VDW>
-29.4466

>  <SCORE.INTER.norm>
-0.880673

>  <SCORE.INTRA>
-11.408

>  <SCORE.INTRA.DIHEDRAL>
-9.93473

>  <SCORE.INTRA.DIHEDRAL.0>
40.6252

>  <SCORE.INTRA.POLAR>
0.114153

>  <SCORE.INTRA.POLAR.0>
-1.20161

>  <SCORE.INTRA.REPUL>
-0.10003

>  <SCORE.INTRA.REPUL.0>
0.115675

>  <SCORE.INTRA.SOLV>
-5.01325

>  <SCORE.INTRA.SOLV.lig_0>
-154.895

>  <SCORE.INTRA.VDW>
-3.82195

>  <SCORE.INTRA.VDW.0>
2.2925

>  <SCORE.INTRA.norm>
-0.271618

>  <SCORE.RESTR>
1.51626

>  <SCORE.RESTR.CAVITY>
1.51626

>  <SCORE.RESTR.norm>
0.0361014

>  <SCORE.SYSTEM>
0

>  <SCORE.SYSTEM.CONST>
0

>  <SCORE.SYSTEM.DIHEDRAL>
0

>  <SCORE.SYSTEM.SOLV>
0

>  <SCORE.SYSTEM.norm>
0

>  <SCORE.heavy>
42

>  <SCORE.norm>
-1.11619

>  <RMSD>
3.256

$$$$

 OpenBabel11021811413D
libRbt.so/2013.1/901 2013/11/27
 42 45  0  0  0  0  0  0  0  0999 V2000
    6.0752   -1.1124   -1.3994 O   0  0  0  0  0  0  0  0  0  0  0  0
    6.6367   -1.7327   -2.5473 C   0  0  0  0  0  0  0  0  0  0  0  0
    8.1292   -1.9798   -2.3243 C   0  0  1  0  0  0  0  0  0  0  0  0
    8.8384   -0.7421   -2.0990 O   0  0  0  0  0  0  0  0  0  0  0  0
    8.4224   -2.8502   -1.1136 C   0  0  2  0  0  0  0  0  0  0  0  0
    9.8809   -2.5016   -0.8684 C   0  0  1  0  0  0  0  0  0  0  0  0
   10.7028   -3.1811   -1.8110 O   0  0  0  0  0  0  0  0  0  0  0  0
    9.9062   -0.9851   -1.1484 C   0  0  2  0  0  0  0  0  0  0  0  0
    7.5448   -5.4837   -4.7769 C   0  0  2  0  0  0  0  0  0  0  0  0
    8.2308   -5.3007   -3.5290 O   0  0  0  0  0  0  0  0  0  0  0  0
    7.4904   -4.4586   -2.6270 C   0  0  2  0  0  0  0  0  0  0  0  0
    8.2327   -4.2482   -1.4078 O   0  0  0  0  0  0  0  0  0  0  0  0
    6.1151   -5.0736   -2.3156 C   0  0  2  0  0  0  0  0  0  0  0  0
    6.2429   -6.1703   -1.3736 N   0  3  0  0  0  0  0  0  0  0  0  0
    5.3637   -5.5294   -3.5720 C   0  0  1  0  0  0  0  0  0  0  0  0
    4.8021   -4.3995   -4.2206 O   0  0  0  0  0  0  0  0  0  0  0  0
    6.2674   -6.2808   -4.5457 C   0  0  2  0  0  0  0  0  0  0  0  0
    6.5804   -7.5670   -4.0238 O   0  0  0  0  0  0  0  0  0  0  0  0
    8.4469   -6.1845   -5.7888 C   0  0  0  0  0  0  0  0  0  0  0  0
    7.9060   -6.0499   -7.1283 N   0  3  0  0  0  0  0  0  0  0  0  0
    7.2745    0.2870    3.5304 C   0  0  1  0  0  0  0  0  0  0  0  0
    7.5780    0.4617    2.1306 O   0  0  0  0  0  0  0  0  0  0  0  0
    8.3204    1.6711    1.8520 C   0  0  2  0  0  0  0  0  0  0  0  0
    9.6456    1.6423    2.4373 O   0  0  0  0  0  0  0  0  0  0  0  0
    7.5374    2.9050    2.3169 C   0  0  2  0  0  0  0  0  0  0  0  0
    8.3752    4.0864    2.2266 N   0  3  0  0  0  0  0  0  0  0  0  0
    7.0401    2.7518    3.7500 C   0  0  1  0  0  0  0  0  0  0  0  0
    6.1312    3.7982    4.0550 O   0  0  0  0  0  0  0  0  0  0  0  0
    6.3724    1.4109    4.0134 C   0  0  2  0  0  0  0  0  0  0  0  0
    6.1037    1.2571    5.3994 O   0  0  0  0  0  0  0  0  0  0  0  0
    6.5304   -1.0281    3.7433 C   0  0  0  0  0  0  0  0  0  0  0  0
    6.3711   -1.7379    2.4873 N   0  3  0  0  0  0  0  0  0  0  0  0
   11.6485    2.7726   -1.1418 C   0  0  2  0  0  0  0  0  0  0  0  0
   12.3621    3.0016    0.1760 C   0  0  0  0  0  0  0  0  0  0  0  0
   11.3808    2.9293    1.3313 C   0  0  1  0  0  0  0  0  0  0  0  0
   10.6991    1.5647    1.4415 C   0  0  2  0  0  0  0  0  0  0  0  0
   10.1070    1.1305    0.0807 C   0  0  1  0  0  0  0  0  0  0  0  0
   10.9692    1.4099   -1.1573 C   0  0  1  0  0  0  0  0  0  0  0  0
   12.6061    2.8524   -2.2285 N   0  3  0  0  0  0  0  0  0  0  0  0
   12.0768    3.2521    2.5616 N   0  3  0  0  0  0  0  0  0  0  0  0
    9.6996   -0.2597    0.0977 O   0  0  0  0  0  0  0  0  0  0  0  0
   10.1786    1.2809   -2.3344 O   0  0  0  0  0  0  0  0  0  0  0  0
  1  2  1  0  0  0  0
  3  2  1  1  0  0  0
  3  4  1  0  0  0  0
  3  5  1  0  0  0  0
  4  8  1  0  0  0  0
  5  6  1  0  0  0  0
  5 12  1  6  0  0  0
  6  7  1  6  0  0  0
  6  8  1  0  0  0  0
  8 41  1  1  0  0  0
  9 10  1  0  0  0  0
  9 17  1  0  0  0  0
  9 19  1  6  0  0  0
 10 11  1  0  0  0  0
 11 12  1  1  0  0  0
 11 13  1  0  0  0  0
 13 14  1  1  0  0  0
 13 15  1  0  0  0  0
 15 16  1  6  0  0  0
 15 17  1  0  0  0  0
 17 18  1  1  0  0  0
 19 20  1  0  0  0  0
 21 22  1  0  0  0  0
 21 29  1  0  0  0  0
 21 31  1  6  0  0  0
 22 23  1  0  0  0  0
 23 24  1  1  0  0  0
 23 25  1  0  0  0  0
 25 26  1  1  0  0  0
 25 27  1  0  0  0  0
 27 28  1  6  0  0  0
 27 29  1  0  0  0  0
 29 30  1  1  0  0  0
 31 32  1  0  0  0  0
 33 34  1  0  0  0  0
 33 38  1  0  0  0  0
 33 39  1  6  0  0  0
 34 35  1  0  0  0  0
 35 36  1  0  0  0  0
 35 40  1  1  0  0  0
 36 24  1  1  0  0  0
 36 37  1  0  0  0  0
 37 38  1  0  0  0  0
 37 41  1  1  0  0  0
 38 42  1  6  0  0  0
M  CHG  6  14   1  20   1  26   1  32   1  39   1  40   1
M  END
>  <CHROM.1>
-66.87558650,-60.67440167,-15.26666005,-63.76078274,-81.70017769,-164.66938196
124.80507860,-153.02866135,-69.58354155,44.85601352,-175.39222599,1.38413721
111.60010092,105.62358209,-75.40425010,66.76216500,62.82853265,176.62597549
41.07532511,60.70106291,-144.13959294,85.61652219,8.33950742,-1.07285428
-0.52722776,1.80192116,-0.64126274,-2.32493235

>  <Name>


>  <RI>
0

>  <Rbt.Current_Directory>
/home/itssahil/PROJECTS/Mol_Feturizer/New_Systems/rnas/1qd3

>  <Rbt.Executable>
rbdock ($Id: //depot/dev/client3/rdock/2013.1/src/exe/rbdock.cxx#4 $)

>  <Rbt.Library>
libRbt.so (2013.1, Build901 2013/11/27)

>  <Rbt.Parameter_File>
/export/apps/rDock/src/rDock_2013.1_src/data/scripts/dock_solv.prm

>  <Rbt.Receptor>
prm/pocket_docking_2.prm

>  <SCORE>
-32.6075

>  <SCORE.INTER>
-48.526

>  <SCORE.INTER.CONST>
1

>  <SCORE.INTER.POLAR>
-7.19077

>  <SCORE.INTER.ROT>
9

>  <SCORE.INTER.SOLV>
44.3188

>  <SCORE.INTER.VDW>
-32.7544

>  <SCORE.INTER.norm>
-1.15538

>  <SCORE.INTRA>
8.39915

>  <SCORE.INTRA.DIHEDRAL>
7.02027

>  <SCORE.INTRA.DIHEDRAL.0>
40.6252

>  <SCORE.INTRA.POLAR>
1.191

>  <SCORE.INTRA.POLAR.0>
-1.20161

>  <SCORE.INTRA.REPUL>
-0.108566

>  <SCORE.INTRA.REPUL.0>
0.115675

>  <SCORE.INTRA.SOLV>
-8.61564

>  <SCORE.INTRA.SOLV.lig_0>
-154.895

>  <SCORE.INTRA.VDW>
5.69028

>  <SCORE.INTRA.VDW.0>
2.2925

>  <SCORE.INTRA.norm>
0.19998

>  <SCORE.RESTR>
7.51938

>  <SCORE.RESTR.CAVITY>
7.51938

>  <SCORE.RESTR.norm>
0.179033

>  <SCORE.SYSTEM>
0

>  <SCORE.SYSTEM.CONST>
0

>  <SCORE.SYSTEM.DIHEDRAL>
0

>  <SCORE.SYSTEM.SOLV>
0

>  <SCORE.SYSTEM.norm>
0

>  <SCORE.heavy>
42

>  <SCORE.norm>
-0.776369

>  <RMSD>
3.259

$$$$

 OpenBabel11021811413D
libRbt.so/2013.1/901 2013/11/27
 42 45  0  0  0  0  0  0  0  0999 V2000
   12.5486   -4.2350   -2.4359 O   0  0  0  0  0  0  0  0  0  0  0  0
   11.1440   -4.3559   -2.6091 C   0  0  0  0  0  0  0  0  0  0  0  0
   10.5013   -4.8367   -1.3075 C   0  0  1  0  0  0  0  0  0  0  0  0
   10.4395   -3.7760   -0.3293 O   0  0  0  0  0  0  0  0  0  0  0  0
    9.0714   -5.3204   -1.4832 C   0  0  2  0  0  0  0  0  0  0  0  0
    8.5726   -5.2368   -0.0504 C   0  0  1  0  0  0  0  0  0  0  0  0
    9.0701   -6.3410    0.6973 O   0  0  0  0  0  0  0  0  0  0  0  0
    9.2245   -3.9306    0.4471 C   0  0  2  0  0  0  0  0  0  0  0  0
    6.8452   -8.4409   -4.3346 C   0  0  2  0  0  0  0  0  0  0  0  0
    7.9264   -8.2114   -3.4182 O   0  0  0  0  0  0  0  0  0  0  0  0
    7.8964   -6.8796   -2.8740 C   0  0  2  0  0  0  0  0  0  0  0  0
    9.0268   -6.6635   -2.0040 O   0  0  0  0  0  0  0  0  0  0  0  0
    6.5821   -6.6335   -2.1133 C   0  0  2  0  0  0  0  0  0  0  0  0
    6.6064   -7.2885   -0.8184 N   0  3  0  0  0  0  0  0  0  0  0  0
    5.3411   -7.0585   -2.9070 C   0  0  1  0  0  0  0  0  0  0  0  0
    5.0512   -6.0765   -3.8891 O   0  0  0  0  0  0  0  0  0  0  0  0
    5.5221   -8.4164   -3.5800 C   0  0  2  0  0  0  0  0  0  0  0  0
    5.4963   -9.4500   -2.6026 O   0  0  0  0  0  0  0  0  0  0  0  0
    7.0305   -9.7689   -5.0633 C   0  0  0  0  0  0  0  0  0  0  0  0
    8.2946   -9.7841   -5.7751 N   0  3  0  0  0  0  0  0  0  0  0  0
    7.8960    0.0157    2.1070 C   0  0  1  0  0  0  0  0  0  0  0  0
    7.5299   -0.1027    0.7163 O   0  0  0  0  0  0  0  0  0  0  0  0
    8.4966    0.4877   -0.1827 C   0  0  2  0  0  0  0  0  0  0  0  0
    9.7647   -0.2129   -0.1534 O   0  0  0  0  0  0  0  0  0  0  0  0
    8.6814    1.9785    0.1256 C   0  0  2  0  0  0  0  0  0  0  0  0
    9.7981    2.5071   -0.6355 N   0  3  0  0  0  0  0  0  0  0  0  0
    8.9270    2.2222    1.6105 C   0  0  1  0  0  0  0  0  0  0  0  0
    8.8561    3.6129    1.8847 O   0  0  0  0  0  0  0  0  0  0  0  0
    7.9504    1.4803    2.5100 C   0  0  2  0  0  0  0  0  0  0  0  0
    8.3455    1.5963    3.8691 O   0  0  0  0  0  0  0  0  0  0  0  0
    6.8491   -0.6669    2.9827 C   0  0  0  0  0  0  0  0  0  0  0  0
    6.3162   -1.8449    2.3231 N   0  3  0  0  0  0  0  0  0  0  0  0
    8.5384   -2.4667   -3.5469 C   0  0  2  0  0  0  0  0  0  0  0  0
    9.9530   -1.9220   -3.5274 C   0  0  0  0  0  0  0  0  0  0  0  0
   10.0898   -0.8359   -2.4765 C   0  0  1  0  0  0  0  0  0  0  0  0
    9.8039   -1.3440   -1.0626 C   0  0  2  0  0  0  0  0  0  0  0  0
    8.4611   -2.1088   -1.0105 C   0  0  1  0  0  0  0  0  0  0  0  0
    8.1650   -3.0457   -2.1890 C   0  0  1  0  0  0  0  0  0  0  0  0
    8.4329   -3.4975   -4.5620 N   0  3  0  0  0  0  0  0  0  0  0  0
   11.4223   -0.2696   -2.5548 N   0  3  0  0  0  0  0  0  0  0  0  0
    8.3035   -2.8213    0.2411 O   0  0  0  0  0  0  0  0  0  0  0  0
    6.7877   -3.4067   -2.1833 O   0  0  0  0  0  0  0  0  0  0  0  0
  1  2  1  0  0  0  0
  3  2  1  6  0  0  0
  3  4  1  0  0  0  0
  3  5  1  0  0  0  0
  4  8  1  0  0  0  0
  5  6  1  0  0  0  0
  5 12  1  1  0  0  0
  6  7  1  1  0  0  0
  6  8  1  0  0  0  0
  8 41  1  6  0  0  0
  9 10  1  0  0  0  0
  9 17  1  0  0  0  0
  9 19  1  1  0  0  0
 10 11  1  0  0  0  0
 11 12  1  1  0  0  0
 11 13  1  0  0  0  0
 13 14  1  1  0  0  0
 13 15  1  0  0  0  0
 15 16  1  6  0  0  0
 15 17  1  0  0  0  0
 17 18  1  1  0  0  0
 19 20  1  0  0  0  0
 21 22  1  0  0  0  0
 21 29  1  0  0  0  0
 21 31  1  1  0  0  0
 22 23  1  0  0  0  0
 23 24  1  1  0  0  0
 23 25  1  0  0  0  0
 25 26  1  6  0  0  0
 25 27  1  0  0  0  0
 27 28  1  6  0  0  0
 27 29  1  0  0  0  0
 29 30  1  1  0  0  0
 31 32  1  0  0  0  0
 33 34  1  0  0  0  0
 33 38  1  0  0  0  0
 33 39  1  6  0  0  0
 34 35  1  0  0  0  0
 35 36  1  0  0  0  0
 35 40  1  1  0  0  0
 36 24  1  1  0  0  0
 36 37  1  0  0  0  0
 37 38  1  0  0  0  0
 37 41  1  1  0  0  0
 38 42  1  6  0  0  0
M  CHG  6  14   1  20   1  26   1  32   1  39   1  40   1
M  END
>  <CHROM.1>
58.15812447,75.07280269,-146.20902229,63.52160317,24.06577413,-58.02423562
177.33862342,-60.94319659,-170.24414207,-58.15503109,177.68017350,35.09981029
86.24130977,80.63892255,67.17202884,172.88715697,67.25066547,42.57345626
-168.51723054,-33.40501491,-67.28068283,55.58678283,8.38152490,-3.43380507
-1.24281304,-1.77953225,0.73175956,0.60975430

>  <Name>


>  <RI>
0

>  <Rbt.Current_Directory>
/home/itssahil/PROJECTS/Mol_Feturizer/New_Systems/rnas/1qd3

>  <Rbt.Executable>
rbdock ($Id: //depot/dev/client3/rdock/2013.1/src/exe/rbdock.cxx#4 $)

>  <Rbt.Library>
libRbt.so (2013.1, Build901 2013/11/27)

>  <Rbt.Parameter_File>
/export/apps/rDock/src/rDock_2013.1_src/data/scripts/dock_solv.prm

>  <Rbt.Receptor>
prm/pocket_docking_3.prm

>  <SCORE>
-51.8029

>  <SCORE.INTER>
-38.4246

>  <SCORE.INTER.CONST>
1

>  <SCORE.INTER.POLAR>
-6.04945

>  <SCORE.INTER.ROT>
9

>  <SCORE.INTER.SOLV>
34.1759

>  <SCORE.INTER.VDW>
-26.4436

>  <SCORE.INTER.norm>
-0.914872

>  <SCORE.INTRA>
-13.9175

>  <SCORE.INTRA.DIHEDRAL>
-17.9377

>  <SCORE.INTRA.DIHEDRAL.0>
40.6252

>  <SCORE.INTRA.POLAR>
-1.12748

>  <SCORE.INTRA.POLAR.0>
-1.20161

>  <SCORE.INTRA.REPUL>
-0.113023

>  <SCORE.INTRA.REPUL.0>
0.115675

>  <SCORE.INTRA.SOLV>
-1.51863

>  <SCORE.INTRA.SOLV.lig_0>
-154.895

>  <SCORE.INTRA.VDW>
0.209231

>  <SCORE.INTRA.VDW.0>
2.2925

>  <SCORE.INTRA.norm>
-0.331368

>  <SCORE.RESTR>
0.539213

>  <SCORE.RESTR.CAVITY>
0.539213

>  <SCORE.RESTR.norm>
0.0128384

>  <SCORE.SYSTEM>
0

>  <SCORE.SYSTEM.CONST>
0

>  <SCORE.SYSTEM.DIHEDRAL>
0

>  <SCORE.SYSTEM.SOLV>
0

>  <SCORE.SYSTEM.norm>
0

>  <SCORE.heavy>
42

>  <SCORE.norm>
-1.2334

>  <RMSD>
3.292

$$$$

 OpenBabel11021811413D
libRbt.so/2013.1/901 2013/11/27
 42 45  0  0  0  0  0  0  0  0999 V2000
   10.9208   -3.4892   -1.0417 O   0  0  0  0  0  0  0  0  0  0  0  0
    9.6085   -3.4930   -1.5854 C   0  0  0  0  0  0  0  0  0  0  0  0
    8.6323   -2.8710   -0.5861 C   0  0  1  0  0  0  0  0  0  0  0  0
    9.1528   -1.6391   -0.0410 O   0  0  0  0  0  0  0  0  0  0  0  0
    7.2871   -2.5163   -1.1976 C   0  0  2  0  0  0  0  0  0  0  0  0
    6.7729   -1.5167   -0.1752 C   0  0  1  0  0  0  0  0  0  0  0  0
    6.2975   -2.2068    0.9752 O   0  0  0  0  0  0  0  0  0  0  0  0
    8.0485   -0.7252    0.1784 C   0  0  2  0  0  0  0  0  0  0  0  0
    6.1575   -6.4278   -3.6969 C   0  0  2  0  0  0  0  0  0  0  0  0
    5.8082   -5.5455   -2.6195 O   0  0  0  0  0  0  0  0  0  0  0  0
    6.7864   -4.5059   -2.4373 C   0  0  2  0  0  0  0  0  0  0  0  0
    6.4357   -3.6734   -1.3123 O   0  0  0  0  0  0  0  0  0  0  0  0
    6.9174   -3.6543   -3.7117 C   0  0  2  0  0  0  0  0  0  0  0  0
    5.7972   -2.7401   -3.8374 N   0  3  0  0  0  0  0  0  0  0  0  0
    7.0681   -4.4973   -4.9834 C   0  0  1  0  0  0  0  0  0  0  0  0
    8.3987   -4.9814   -5.0726 O   0  0  0  0  0  0  0  0  0  0  0  0
    6.0937   -5.6716   -5.0177 C   0  0  2  0  0  0  0  0  0  0  0  0
    4.7716   -5.1989   -5.2482 O   0  0  0  0  0  0  0  0  0  0  0  0
    5.2320   -7.6410   -3.7202 C   0  0  0  0  0  0  0  0  0  0  0  0
    4.4332   -7.6920   -2.5102 N   0  3  0  0  0  0  0  0  0  0  0  0
    7.9391    1.3811    3.0777 C   0  0  1  0  0  0  0  0  0  0  0  0
    7.7450    1.3870    1.6479 O   0  0  0  0  0  0  0  0  0  0  0  0
    8.5406    2.3837    0.9660 C   0  0  2  0  0  0  0  0  0  0  0  0
    9.9597    2.1089    1.0674 O   0  0  0  0  0  0  0  0  0  0  0  0
    8.2107    3.7877    1.4872 C   0  0  2  0  0  0  0  0  0  0  0  0
    9.1564    4.7496    0.9522 N   0  3  0  0  0  0  0  0  0  0  0  0
    8.2432    3.8471    3.0103 C   0  0  1  0  0  0  0  0  0  0  0  0
    7.7070    5.0847    3.4520 O   0  0  0  0  0  0  0  0  0  0  0  0
    7.4870    2.7051    3.6717 C   0  0  2  0  0  0  0  0  0  0  0  0
    7.7118    2.7110    5.0739 O   0  0  0  0  0  0  0  0  0  0  0  0
    7.0994    0.2772    3.7142 C   0  0  0  0  0  0  0  0  0  0  0  0
    6.6560    0.6682    5.0398 N   0  3  0  0  0  0  0  0  0  0  0  0
   11.5239    0.2317   -2.4153 C   0  0  2  0  0  0  0  0  0  0  0  0
   12.3123    0.1105   -1.1262 C   0  0  0  0  0  0  0  0  0  0  0  0
   11.8449    1.1440   -0.1181 C   0  0  1  0  0  0  0  0  0  0  0  0
   10.3726    0.9755    0.2596 C   0  0  2  0  0  0  0  0  0  0  0  0
    9.4852    0.8771   -1.0028 C   0  0  1  0  0  0  0  0  0  0  0  0
   10.0364    0.0312   -2.1582 C   0  0  1  0  0  0  0  0  0  0  0  0
   11.9931   -0.7616   -3.3624 N   0  3  0  0  0  0  0  0  0  0  0  0
   12.6856    1.0662    1.0607 N   0  3  0  0  0  0  0  0  0  0  0  0
    8.1397    0.4517   -0.6749 O   0  0  0  0  0  0  0  0  0  0  0  0
    9.3027    0.3035   -3.3476 O   0  0  0  0  0  0  0  0  0  0  0  0
  1  2  1  0  0  0  0
  3  2  1  6  0  0  0
  3  4  1  0  0  0  0
  3  5  1  0  0  0  0
  4  8  1  0  0  0  0
  5  6  1  0  0  0  0
  5 12  1  1  0  0  0
  6  7  1  1  0  0  0
  6  8  1  0  0  0  0
  8 41  1  6  0  0  0
  9 10  1  0  0  0  0
  9 17  1  0  0  0  0
  9 19  1  6  0  0  0
 10 11  1  0  0  0  0
 11 12  1  1  0  0  0
 11 13  1  0  0  0  0
 13 14  1  6  0  0  0
 13 15  1  0  0  0  0
 15 16  1  1  0  0  0
 15 17  1  0  0  0  0
 17 18  1  1  0  0  0
 19 20  1  0  0  0  0
 21 22  1  0  0  0  0
 21 29  1  0  0  0  0
 21 31  1  1  0  0  0
 22 23  1  0  0  0  0
 23 24  1  1  0  0  0
 23 25  1  0  0  0  0
 25 26  1  6  0  0  0
 25 27  1  0  0  0  0
 27 28  1  6  0  0  0
 27 29  1  0  0  0  0
 29 30  1  1  0  0  0
 31 32  1  0  0  0  0
 33 34  1  0  0  0  0
 33 38  1  0  0  0  0
 33 39  1  6  0  0  0
 34 35  1  0  0  0  0
 35 36  1  0  0  0  0
 35 40  1  1  0  0  0
 36 24  1  1  0  0  0
 36 37  1  0  0  0  0
 37 38  1  0  0  0  0
 37 41  1  1  0  0  0
 38 42  1  6  0  0  0
M  CHG  6  14   1  20   1  26   1  32   1  39   1  40   1
M  END
>  <CHROM.1>
-30.38271478,46.55295270,-78.15899566,68.30068506,-31.36641009,-10.84401984
-172.33168445,-114.76177291,174.88101362,161.66143640,-79.23059459,-147.55599012
71.96065141,153.28103150,163.22536261,-22.13909555,-173.67457916,-113.11368162
-164.46638134,76.56403275,-49.32132269,81.16828849,8.19687309,-1.07503232
-0.63744449,-1.85355445,0.56593571,0.80374997

>  <Name>


>  <RI>
0

>  <Rbt.Current_Directory>
/home/itssahil/PROJECTS/Mol_Feturizer/New_Systems/rnas/1qd3

>  <Rbt.Executable>
rbdock ($Id: //depot/dev/client3/rdock/2013.1/src/exe/rbdock.cxx#4 $)

>  <Rbt.Library>
libRbt.so (2013.1, Build901 2013/11/27)

>  <Rbt.Parameter_File>
/export/apps/rDock/src/rDock_2013.1_src/data/scripts/dock_solv.prm

>  <Rbt.Receptor>
prm/pocket_docking_3.prm

>  <SCORE>
-55.6813

>  <SCORE.INTER>
-59.2049

>  <SCORE.INTER.CONST>
1

>  <SCORE.INTER.POLAR>
-9.35009

>  <SCORE.INTER.ROT>
9

>  <SCORE.INTER.SOLV>
56.776

>  <SCORE.INTER.VDW>
-36.8283

>  <SCORE.INTER.norm>
-1.40964

>  <SCORE.INTRA>
2.50147

>  <SCORE.INTRA.DIHEDRAL>
0.541088

>  <SCORE.INTRA.DIHEDRAL.0>
40.6252

>  <SCORE.INTRA.POLAR>
0.505451

>  <SCORE.INTRA.POLAR.0>
-1.20161

>  <SCORE.INTRA.REPUL>
-0.115675

>  <SCORE.INTRA.REPUL.0>
0.115675

>  <SCORE.INTRA.SOLV>
-6.79877

>  <SCORE.INTRA.SOLV.lig_0>
-154.895

>  <SCORE.INTRA.VDW>
4.49015

>  <SCORE.INTRA.VDW.0>
2.2925

>  <SCORE.INTRA.norm>
0.0595587

>  <SCORE.RESTR>
1.02218

>  <SCORE.RESTR.CAVITY>
1.02218

>  <SCORE.RESTR.norm>
0.0243377

>  <SCORE.SYSTEM>
0

>  <SCORE.SYSTEM.CONST>
0

>  <SCORE.SYSTEM.DIHEDRAL>
0

>  <SCORE.SYSTEM.SOLV>
0

>  <SCORE.SYSTEM.norm>
0

>  <SCORE.heavy>
42

>  <SCORE.norm>
-1.32574

>  <RMSD>
3.301

$$$$

 OpenBabel11021811413D
libRbt.so/2013.1/901 2013/11/27
 42 45  0  0  0  0  0  0  0  0999 V2000
    9.3899    0.0001   -3.3260 O   0  0  0  0  0  0  0  0  0  0  0  0
    8.7912   -1.2711   -3.1178 C   0  0  0  0  0  0  0  0  0  0  0  0
    8.6248   -1.5256   -1.6192 C   0  0  1  0  0  0  0  0  0  0  0  0
    9.5104   -0.6895   -0.8430 O   0  0  0  0  0  0  0  0  0  0  0  0
    7.2243   -1.2296   -1.1088 C   0  0  2  0  0  0  0  0  0  0  0  0
    7.4973   -1.0801    0.3785 C   0  0  1  0  0  0  0  0  0  0  0  0
    7.6614   -2.3648    0.9689 O   0  0  0  0  0  0  0  0  0  0  0  0
    8.8408   -0.3227    0.3898 C   0  0  2  0  0  0  0  0  0  0  0  0
    7.6423   -5.6744   -1.9270 C   0  0  2  0  0  0  0  0  0  0  0  0
    6.9594   -4.5875   -1.2837 O   0  0  0  0  0  0  0  0  0  0  0  0
    6.9580   -3.3985   -2.0942 C   0  0  2  0  0  0  0  0  0  0  0  0
    6.3163   -2.3114   -1.3956 O   0  0  0  0  0  0  0  0  0  0  0  0
    6.2558   -3.6583   -3.4380 C   0  0  2  0  0  0  0  0  0  0  0  0
    4.8146   -3.6864   -3.2688 N   0  3  0  0  0  0  0  0  0  0  0  0
    6.7403   -4.9376   -4.1304 C   0  0  1  0  0  0  0  0  0  0  0  0
    7.9974   -4.6950   -4.7416 O   0  0  0  0  0  0  0  0  0  0  0  0
    6.8615   -6.1098   -3.1604 C   0  0  2  0  0  0  0  0  0  0  0  0
    5.5668   -6.5653   -2.7850 O   0  0  0  0  0  0  0  0  0  0  0  0
    7.8265   -6.8411   -0.9607 C   0  0  0  0  0  0  0  0  0  0  0  0
    8.0164   -6.3531    0.3923 N   0  3  0  0  0  0  0  0  0  0  0  0
    7.4800    0.8574    4.1137 C   0  0  1  0  0  0  0  0  0  0  0  0
    7.5066    1.2107    2.7149 O   0  0  0  0  0  0  0  0  0  0  0  0
    7.9233    2.5749    2.4765 C   0  0  2  0  0  0  0  0  0  0  0  0
    9.3028    2.7967    2.8604 O   0  0  0  0  0  0  0  0  0  0  0  0
    6.9864    3.5584    3.1882 C   0  0  2  0  0  0  0  0  0  0  0  0
    7.5319    4.9013    3.1180 N   0  3  0  0  0  0  0  0  0  0  0  0
    6.7741    3.1796    4.6497 C   0  0  1  0  0  0  0  0  0  0  0  0
    5.7288    3.9660    5.2003 O   0  0  0  0  0  0  0  0  0  0  0  0
    6.4543    1.7059    4.8473 C   0  0  2  0  0  0  0  0  0  0  0  0
    6.4547    1.3818    6.2299 O   0  0  0  0  0  0  0  0  0  0  0  0
    7.0730   -0.6043    4.2755 C   0  0  0  0  0  0  0  0  0  0  0  0
    6.0989   -0.9814    3.2676 N   0  3  0  0  0  0  0  0  0  0  0  0
   12.1847    2.1776   -0.2074 C   0  0  2  0  0  0  0  0  0  0  0  0
   12.6295    2.0084    1.2320 C   0  0  0  0  0  0  0  0  0  0  0  0
   11.6266    2.6444    2.1766 C   0  0  1  0  0  0  0  0  0  0  0  0
   10.2384    2.0103    2.0769 C   0  0  2  0  0  0  0  0  0  0  0  0
    9.7661    1.9408    0.6062 C   0  0  1  0  0  0  0  0  0  0  0  0
   10.8225    1.5344   -0.4297 C   0  0  1  0  0  0  0  0  0  0  0  0
   13.1617    1.5671   -1.0886 N   0  3  0  0  0  0  0  0  0  0  0  0
   12.1325    2.5530    3.5323 N   0  3  0  0  0  0  0  0  0  0  0  0
    8.5878    1.1097    0.4651 O   0  0  0  0  0  0  0  0  0  0  0  0
   10.3555    1.8397   -1.7396 O   0  0  0  0  0  0  0  0  0  0  0  0
  1  2  1  0  0  0  0
  3  2  1  6  0  0  0
  3  4  1  0  0  0  0
  3  5  1  0  0  0  0
  4  8  1  0  0  0  0
  5  6  1  0  0  0  0
  5 12  1  1  0  0  0
  6  7  1  6  0  0  0
  6  8  1  0  0  0  0
  8 41  1  6  0  0  0
  9 10  1  0  0  0  0
  9 17  1  0  0  0  0
  9 19  1  1  0  0  0
 10 11  1  0  0  0  0
 11 12  1  1  0  0  0
 11 13  1  0  0  0  0
 13 14  1  1  0  0  0
 13 15  1  0  0  0  0
 15 16  1  1  0  0  0
 15 17  1  0  0  0  0
 17 18  1  1  0  0  0
 19 20  1  0  0  0  0
 21 22  1  0  0  0  0
 21 29  1  0  0  0  0
 21 31  1  6  0  0  0
 22 23  1  0  0  0  0
 23 24  1  1  0  0  0
 23 25  1  0  0  0  0
 25 26  1  1  0  0  0
 25 27  1  0  0  0  0
 27 28  1  6  0  0  0
 27 29  1  0  0  0  0
 29 30  1  1  0  0  0
 31 32  1  0  0  0  0
 33 34  1  0  0  0  0
 33 38  1  0  0  0  0
 33 39  1  6  0  0  0
 34 35  1  0  0  0  0
 35 36  1  0  0  0  0
 35 40  1  1  0  0  0
 36 24  1  1  0  0  0
 36 37  1  0  0  0  0
 37 38  1  0  0  0  0
 37 41  1  1  0  0  0
 38 42  1  6  0  0  0
M  CHG  6  14   1  20   1  26   1  32   1  39   1  40   1
M  END
>  <CHROM.1>
-126.06168695,-20.54255158,-0.12189521,-160.89913129,-68.51325159,-33.26251914
115.57811513,-62.23877539,-159.16608467,39.23207893,43.48097469,-35.15325581
63.47504419,159.93390719,70.02485535,-59.21444345,-42.90808711,51.61358607
-172.38603272,-2.14479174,-82.01935080,171.92874495,8.22757043,-0.56603672
0.39830436,-1.79113221,0.67001911,0.80980985

>  <Name>


>  <RI>
0

>  <Rbt.Current_Directory>
/home/itssahil/PROJECTS/Mol_Feturizer/New_Systems/rnas/1qd3

>  <Rbt.Executable>
rbdock ($Id: //depot/dev/client3/rdock/2013.1/src/exe/rbdock.cxx#4 $)

>  <Rbt.Library>
libRbt.so (2013.1, Build901 2013/11/27)

>  <Rbt.Parameter_File>
/export/apps/rDock/src/rDock_2013.1_src/data/scripts/dock_solv.prm

>  <Rbt.Receptor>
prm/pocket_docking_4.prm

>  <SCORE>
-51.7181

>  <SCORE.INTER>
-57.9425

>  <SCORE.INTER.CONST>
1

>  <SCORE.INTER.POLAR>
-8.801

>  <SCORE.INTER.ROT>
9

>  <SCORE.INTER.SOLV>
53.5199

>  <SCORE.INTER.VDW>
-36.7317

>  <SCORE.INTER.norm>
-1.37958

>  <SCORE.INTRA>
6.03252

>  <SCORE.INTRA.DIHEDRAL>
6.15246

>  <SCORE.INTRA.DIHEDRAL.0>
40.6252

>  <SCORE.INTRA.POLAR>
0.330579

>  <SCORE.INTRA.POLAR.0>
-1.20161

>  <SCORE.INTRA.REPUL>
-0.115675

>  <SCORE.INTRA.REPUL.0>
0.115675

>  <SCORE.INTRA.SOLV>
-5.50271

>  <SCORE.INTRA.SOLV.lig_0>
-154.895

>  <SCORE.INTRA.VDW>
5.16205

>  <SCORE.INTRA.VDW.0>
2.2925

>  <SCORE.INTRA.norm>
0.143631

>  <SCORE.RESTR>
0.191934

>  <SCORE.RESTR.CAVITY>
0.191934

>  <SCORE.RESTR.norm>
0.00456986

>  <SCORE.SYSTEM>
0

>  <SCORE.SYSTEM.CONST>
0

>  <SCORE.SYSTEM.DIHEDRAL>
0

>  <SCORE.SYSTEM.SOLV>
0

>  <SCORE.SYSTEM.norm>
0

>  <SCORE.heavy>
42

>  <SCORE.norm>
-1.23138

>  <RMSD>
3.754

$$$$

 OpenBabel11021811413D
libRbt.so/2013.1/901 2013/11/27
 42 45  0  0  0  0  0  0  0  0999 V2000
    7.7968   -3.3672    0.5106 O   0  0  0  0  0  0  0  0  0  0  0  0
    6.6440   -2.6326    0.1244 C   0  0  0  0  0  0  0  0  0  0  0  0
    7.0615   -1.3923   -0.6666 C   0  0  1  0  0  0  0  0  0  0  0  0
    7.2796   -0.2621    0.2056 O   0  0  0  0  0  0  0  0  0  0  0  0
    8.3586   -1.5762   -1.4367 C   0  0  2  0  0  0  0  0  0  0  0  0
    8.7508   -0.1267   -1.6691 C   0  0  1  0  0  0  0  0  0  0  0  0
    7.9652    0.4212   -2.7220 O   0  0  0  0  0  0  0  0  0  0  0  0
    8.3664    0.5347   -0.3299 C   0  0  2  0  0  0  0  0  0  0  0  0
    6.8074   -5.5883   -3.5054 C   0  0  2  0  0  0  0  0  0  0  0  0
    7.3223   -4.2615   -3.6952 O   0  0  0  0  0  0  0  0  0  0  0  0
    7.6884   -3.6435   -2.4483 C   0  0  2  0  0  0  0  0  0  0  0  0
    8.1461   -2.2931   -2.6688 O   0  0  0  0  0  0  0  0  0  0  0  0
    8.7743   -4.4655   -1.7332 C   0  0  2  0  0  0  0  0  0  0  0  0
   10.0701   -4.2561   -2.3525 N   0  3  0  0  0  0  0  0  0  0  0  0
    8.4467   -5.9618   -1.6658 C   0  0  1  0  0  0  0  0  0  0  0  0
    7.4881   -6.1885   -0.6447 O   0  0  0  0  0  0  0  0  0  0  0  0
    7.9164   -6.4981   -2.9927 C   0  0  2  0  0  0  0  0  0  0  0  0
    8.9717   -6.5684   -3.9445 O   0  0  0  0  0  0  0  0  0  0  0  0
    6.2195   -6.1283   -4.8061 C   0  0  0  0  0  0  0  0  0  0  0  0
    5.4319   -7.3194   -4.5500 N   0  3  0  0  0  0  0  0  0  0  0  0
    7.4291    2.2773    3.5716 C   0  0  1  0  0  0  0  0  0  0  0  0
    7.8462    2.2319    2.1910 O   0  0  0  0  0  0  0  0  0  0  0  0
    8.9674    3.0986    1.9025 C   0  0  2  0  0  0  0  0  0  0  0  0
   10.1724    2.6741    2.5863 O   0  0  0  0  0  0  0  0  0  0  0  0
    8.6249    4.5551    2.2385 C   0  0  2  0  0  0  0  0  0  0  0  0
    9.8165    5.3782    2.1462 N   0  3  0  0  0  0  0  0  0  0  0  0
    8.0313    4.6880    3.6365 C   0  0  1  0  0  0  0  0  0  0  0  0
    7.5154    5.9982    3.8142 O   0  0  0  0  0  0  0  0  0  0  0  0
    6.9365    3.6717    3.9227 C   0  0  2  0  0  0  0  0  0  0  0  0
    6.5599    3.7241    5.2910 O   0  0  0  0  0  0  0  0  0  0  0  0
    6.2739    1.3068    3.8004 C   0  0  0  0  0  0  0  0  0  0  0  0
    6.7500    0.0726    4.3978 N   0  3  0  0  0  0  0  0  0  0  0  0
   12.5180    2.3564   -0.9487 C   0  0  2  0  0  0  0  0  0  0  0  0
   13.2417    2.5078    0.3747 C   0  0  0  0  0  0  0  0  0  0  0  0
   12.2900    3.0041    1.4473 C   0  0  1  0  0  0  0  0  0  0  0  0
   11.1297    2.0399    1.6982 C   0  0  2  0  0  0  0  0  0  0  0  0
   10.4387    1.6485    0.3715 C   0  0  1  0  0  0  0  0  0  0  0  0
   11.3628    1.3725   -0.8219 C   0  0  1  0  0  0  0  0  0  0  0  0
   13.4496    1.8871   -1.9566 N   0  3  0  0  0  0  0  0  0  0  0  0
   13.0356    3.2333    2.6695 N   0  3  0  0  0  0  0  0  0  0  0  0
    9.5227    0.5412    0.5558 O   0  0  0  0  0  0  0  0  0  0  0  0
   10.6045    1.3645   -2.0269 O   0  0  0  0  0  0  0  0  0  0  0  0
  1  2  1  0  0  0  0
  3  2  1  1  0  0  0
  3  4  1  0  0  0  0
  3  5  1  0  0  0  0
  4  8  1  0  0  0  0
  5  6  1  0  0  0  0
  5 12  1  6  0  0  0
  6  7  1  6  0  0  0
  6  8  1  0  0  0  0
  8 41  1  1  0  0  0
  9 10  1  0  0  0  0
  9 17  1  0  0  0  0
  9 19  1  6  0  0  0
 10 11  1  0  0  0  0
 11 12  1  6  0  0  0
 11 13  1  0  0  0  0
 13 14  1  6  0  0  0
 13 15  1  0  0  0  0
 15 16  1  1  0  0  0
 15 17  1  0  0  0  0
 17 18  1  6  0  0  0
 19 20  1  0  0  0  0
 21 22  1  0  0  0  0
 21 29  1  0  0  0  0
 21 31  1  6  0  0  0
 22 23  1  0  0  0  0
 23 24  1  1  0  0  0
 23 25  1  0  0  0  0
 25 26  1  1  0  0  0
 25 27  1  0  0  0  0
 27 28  1  6  0  0  0
 27 29  1  0  0  0  0
 29 30  1  1  0  0  0
 31 32  1  0  0  0  0
 33 34  1  0  0  0  0
 33 38  1  0  0  0  0
 33 39  1  6  0  0  0
 34 35  1  0  0  0  0
 35 36  1  0  0  0  0
 35 40  1  1  0  0  0
 36 24  1  1  0  0  0
 36 37  1  0  0  0  0
 37 38  1  0  0  0  0
 37 41  1  1  0  0  0
 38 42  1  6  0  0  0
M  CHG  6  14   1  20   1  26   1  32   1  39   1  40   1
M  END
>  <CHROM.1>
74.48052034,-89.66043143,-64.11293711,56.02896407,-158.67383911,-166.76907958
172.43947558,-167.03227629,-1.50392794,175.08373719,-44.46295602,99.89070941
105.33977069,106.16914277,-177.09553292,36.05235992,-164.04370981,-161.71264677
-172.72296194,113.17995662,148.99285151,-53.25679714,8.76047705,-0.29983537
-0.00147468,1.76218614,-0.53545136,-2.48039203

>  <Name>


>  <RI>
0

>  <Rbt.Current_Directory>
/home/itssahil/PROJECTS/Mol_Feturizer/New_Systems/rnas/1qd3

>  <Rbt.Executable>
rbdock ($Id: //depot/dev/client3/rdock/2013.1/src/exe/rbdock.cxx#4 $)

>  <Rbt.Library>
libRbt.so (2013.1, Build901 2013/11/27)

>  <Rbt.Parameter_File>
/export/apps/rDock/src/rDock_2013.1_src/data/scripts/dock_solv.prm

>  <Rbt.Receptor>
prm/pocket_docking_2.prm

>  <SCORE>
-26.9178

>  <SCORE.INTER>
-37.0244

>  <SCORE.INTER.CONST>
1

>  <SCORE.INTER.POLAR>
-8.18074

>  <SCORE.INTER.ROT>
9

>  <SCORE.INTER.SOLV>
34.8733

>  <SCORE.INTER.VDW>
-18.6382

>  <SCORE.INTER.norm>
-0.881534

>  <SCORE.INTRA>
-0.0623227

>  <SCORE.INTRA.DIHEDRAL>
3.74867

>  <SCORE.INTRA.DIHEDRAL.0>
40.6252

>  <SCORE.INTRA.POLAR>
0.29686

>  <SCORE.INTRA.POLAR.0>
-1.20161

>  <SCORE.INTRA.REPUL>
0.0511008

>  <SCORE.INTRA.REPUL.0>
0.115675

>  <SCORE.INTRA.SOLV>
-9.44619

>  <SCORE.INTRA.SOLV.lig_0>
-154.895

>  <SCORE.INTRA.VDW>
1.52161

>  <SCORE.INTRA.VDW.0>
2.2925

>  <SCORE.INTRA.norm>
-0.00148387

>  <SCORE.RESTR>
10.169

>  <SCORE.RESTR.CAVITY>
10.169

>  <SCORE.RESTR.norm>
0.242118

>  <SCORE.SYSTEM>
0

>  <SCORE.SYSTEM.CONST>
0

>  <SCORE.SYSTEM.DIHEDRAL>
0

>  <SCORE.SYSTEM.SOLV>
0

>  <SCORE.SYSTEM.norm>
0

>  <SCORE.heavy>
42

>  <SCORE.norm>
-0.6409

>  <RMSD>
4.040

$$$$

 OpenBabel11021811413D
libRbt.so/2013.1/901 2013/11/27
 42 45  0  0  0  0  0  0  0  0999 V2000
    7.1195   -1.8343   -2.1158 O   0  0  0  0  0  0  0  0  0  0  0  0
    7.6267   -0.9781   -3.1294 C   0  0  0  0  0  0  0  0  0  0  0  0
    9.0559   -0.5577   -2.7845 C   0  0  1  0  0  0  0  0  0  0  0  0
    9.0885    0.7635   -2.2022 O   0  0  0  0  0  0  0  0  0  0  0  0
    9.7261   -1.4718   -1.7723 C   0  0  2  0  0  0  0  0  0  0  0  0
   10.8413   -0.5663   -1.2770 C   0  0  1  0  0  0  0  0  0  0  0  0
   11.8898   -0.5246   -2.2386 O   0  0  0  0  0  0  0  0  0  0  0  0
   10.1409    0.8059   -1.2055 C   0  0  2  0  0  0  0  0  0  0  0  0
    8.5633   -5.6316   -3.7445 C   0  0  2  0  0  0  0  0  0  0  0  0
    9.5812   -4.6394   -3.5423 O   0  0  0  0  0  0  0  0  0  0  0  0
    9.2099   -3.6868   -2.5297 C   0  0  2  0  0  0  0  0  0  0  0  0
   10.2267   -2.6724   -2.3928 O   0  0  0  0  0  0  0  0  0  0  0  0
    8.9732   -4.3910   -1.1826 C   0  0  2  0  0  0  0  0  0  0  0  0
   10.2346   -4.7418   -0.5564 N   0  3  0  0  0  0  0  0  0  0  0  0
    8.0709   -5.6249   -1.3013 C   0  0  1  0  0  0  0  0  0  0  0  0
    6.7188   -5.2105   -1.4146 O   0  0  0  0  0  0  0  0  0  0  0  0
    8.4397   -6.4981   -2.4977 C   0  0  2  0  0  0  0  0  0  0  0  0
    9.6670   -7.1727   -2.2464 O   0  0  0  0  0  0  0  0  0  0  0  0
    8.8794   -6.4846   -4.9697 C   0  0  0  0  0  0  0  0  0  0  0  0
    8.3015   -5.8928   -6.1617 N   0  3  0  0  0  0  0  0  0  0  0  0
    7.5806   -0.4696    2.5223 C   0  0  1  0  0  0  0  0  0  0  0  0
    7.7838    0.7884    1.8454 O   0  0  0  0  0  0  0  0  0  0  0  0
    8.3528    1.8108    2.6953 C   0  0  2  0  0  0  0  0  0  0  0  0
    9.7009    1.4822    3.1128 O   0  0  0  0  0  0  0  0  0  0  0  0
    7.4478    2.0731    3.9053 C   0  0  2  0  0  0  0  0  0  0  0  0
    8.1250    2.9397    4.8519 N   0  3  0  0  0  0  0  0  0  0  0  0
    7.0518    0.7782    4.6060 C   0  0  1  0  0  0  0  0  0  0  0  0
    6.0368    1.0431    5.5620 O   0  0  0  0  0  0  0  0  0  0  0  0
    6.5723   -0.3006    3.6471 C   0  0  2  0  0  0  0  0  0  0  0  0
    6.4003   -1.5311    4.3348 O   0  0  0  0  0  0  0  0  0  0  0  0
    7.0195   -1.5020    1.5486 C   0  0  0  0  0  0  0  0  0  0  0  0
    7.0320   -0.9883    0.1912 N   0  3  0  0  0  0  0  0  0  0  0  0
   11.5643    4.2632    0.4873 C   0  0  2  0  0  0  0  0  0  0  0  0
   12.3407    3.8042    1.7058 C   0  0  0  0  0  0  0  0  0  0  0  0
   11.4110    3.1582    2.7162 C   0  0  1  0  0  0  0  0  0  0  0  0
   10.7069    1.9190    2.1616 C   0  0  2  0  0  0  0  0  0  0  0  0
   10.0455    2.2224    0.7973 C   0  0  1  0  0  0  0  0  0  0  0  0
   10.8570    3.0886   -0.1751 C   0  0  1  0  0  0  0  0  0  0  0  0
   12.4736    4.8811   -0.4589 N   0  3  0  0  0  0  0  0  0  0  0  0
   12.1679    2.8242    3.9069 N   0  3  0  0  0  0  0  0  0  0  0  0
    9.6107    1.0090    0.1359 O   0  0  0  0  0  0  0  0  0  0  0  0
   10.0120    3.5631   -1.2180 O   0  0  0  0  0  0  0  0  0  0  0  0
  1  2  1  0  0  0  0
  3  2  1  1  0  0  0
  3  4  1  0  0  0  0
  3  5  1  0  0  0  0
  4  8  1  0  0  0  0
  5  6  1  0  0  0  0
  5 12  1  6  0  0  0
  6  7  1  6  0  0  0
  6  8  1  0  0  0  0
  8 41  1  1  0  0  0
  9 10  1  0  0  0  0
  9 17  1  0  0  0  0
  9 19  1  6  0  0  0
 10 11  1  0  0  0  0
 11 12  1  1  0  0  0
 11 13  1  0  0  0  0
 13 14  1  6  0  0  0
 13 15  1  0  0  0  0
 15 16  1  6  0  0  0
 15 17  1  0  0  0  0
 17 18  1  1  0  0  0
 19 20  1  0  0  0  0
 21 22  1  0  0  0  0
 21 29  1  0  0  0  0
 21 31  1  6  0  0  0
 22 23  1  0  0  0  0
 23 24  1  1  0  0  0
 23 25  1  0  0  0  0
 25 26  1  1  0  0  0
 25 27  1  0  0  0  0
 27 28  1  1  0  0  0
 27 29  1  0  0  0  0
 29 30  1  1  0  0  0
 31 32  1  0  0  0  0
 33 34  1  0  0  0  0
 33 38  1  0  0  0  0
 33 39  1  6  0  0  0
 34 35  1  0  0  0  0
 35 36  1  0  0  0  0
 35 40  1  1  0  0  0
 36 24  1  1  0  0  0
 36 37  1  0  0  0  0
 37 38  1  0  0  0  0
 37 41  1  6  0  0  0
 38 42  1  6  0  0  0
M  CHG  6  14   1  20   1  26   1  32   1  39   1  40   1
M  END
>  <CHROM.1>
-175.74403074,-99.76699822,-83.89815574,64.33215310,-118.21610309,-89.55273798
159.39736843,90.31215481,-65.61891993,52.08245374,57.04565036,8.19995481
86.97406901,104.81975747,58.15184958,-152.13269493,-60.85667378,147.22347175
97.67524888,-39.51813497,-124.19274262,169.76872651,9.10445570,-0.73598596
-0.01737867,1.70785592,-0.87365047,-2.38146168

>  <Name>


>  <RI>
0

>  <Rbt.Current_Directory>
/home/itssahil/PROJECTS/Mol_Feturizer/New_Systems/rnas/1qd3

>  <Rbt.Executable>
rbdock ($Id: //depot/dev/client3/rdock/2013.1/src/exe/rbdock.cxx#4 $)

>  <Rbt.Library>
libRbt.so (2013.1, Build901 2013/11/27)

>  <Rbt.Parameter_File>
/export/apps/rDock/src/rDock_2013.1_src/data/scripts/dock_solv.prm

>  <Rbt.Receptor>
prm/pocket_docking_4.prm

>  <SCORE>
-29.0783

>  <SCORE.INTER>
-33.3059

>  <SCORE.INTER.CONST>
1

>  <SCORE.INTER.POLAR>
-5.94529

>  <SCORE.INTER.ROT>
9

>  <SCORE.INTER.SOLV>
38.7207

>  <SCORE.INTER.VDW>
-24.8932

>  <SCORE.INTER.norm>
-0.792997

>  <SCORE.INTRA>
2.92885

>  <SCORE.INTRA.DIHEDRAL>
10.9052

>  <SCORE.INTRA.DIHEDRAL.0>
40.6252

>  <SCORE.INTRA.POLAR>
-0.940748

>  <SCORE.INTRA.POLAR.0>
-1.20161

>  <SCORE.INTRA.REPUL>
-0.115657

>  <SCORE.INTRA.REPUL.0>
0.115675

>  <SCORE.INTRA.SOLV>
-3.19203

>  <SCORE.INTRA.SOLV.lig_0>
-154.895

>  <SCORE.INTRA.VDW>
2.84911

>  <SCORE.INTRA.VDW.0>
2.2925

>  <SCORE.INTRA.norm>
0.0697346

>  <SCORE.RESTR>
1.29871

>  <SCORE.RESTR.CAVITY>
1.29871

>  <SCORE.RESTR.norm>
0.0309217

>  <SCORE.SYSTEM>
0

>  <SCORE.SYSTEM.CONST>
0

>  <SCORE.SYSTEM.DIHEDRAL>
0

>  <SCORE.SYSTEM.SOLV>
0

>  <SCORE.SYSTEM.norm>
0

>  <SCORE.heavy>
42

>  <SCORE.norm>
-0.692341

>  <RMSD>
4.122

$$$$

 OpenBabel11021811413D
libRbt.so/2013.1/901 2013/11/27
 42 45  0  0  0  0  0  0  0  0999 V2000
    6.4273   -3.4099   -3.6933 O   0  0  0  0  0  0  0  0  0  0  0  0
    7.0394   -2.3405   -2.9866 C   0  0  0  0  0  0  0  0  0  0  0  0
    8.4128   -2.0411   -3.5887 C   0  0  1  0  0  0  0  0  0  0  0  0
    9.1991   -1.2045   -2.7126 O   0  0  0  0  0  0  0  0  0  0  0  0
    9.2496   -3.2862   -3.8316 C   0  0  2  0  0  0  0  0  0  0  0  0
   10.6370   -2.6737   -3.9255 C   0  0  1  0  0  0  0  0  0  0  0  0
   10.8076   -2.0624   -5.1995 O   0  0  0  0  0  0  0  0  0  0  0  0
   10.5918   -1.5919   -2.8271 C   0  0  2  0  0  0  0  0  0  0  0  0
    9.3944   -7.4768   -4.2237 C   0  0  2  0  0  0  0  0  0  0  0  0
    8.8158   -6.1632   -4.1877 O   0  0  0  0  0  0  0  0  0  0  0  0
    9.4237   -5.2814   -5.1487 C   0  0  2  0  0  0  0  0  0  0  0  0
    8.8608   -3.9570   -5.0464 O   0  0  0  0  0  0  0  0  0  0  0  0
    9.2466   -5.8284   -6.5756 C   0  0  2  0  0  0  0  0  0  0  0  0
    7.8934   -5.6026   -7.0492 N   0  3  0  0  0  0  0  0  0  0  0  0
    9.6190   -7.3105   -6.7003 C   0  0  1  0  0  0  0  0  0  0  0  0
   11.0314   -7.4394   -6.7390 O   0  0  0  0  0  0  0  0  0  0  0  0
    9.0609   -8.1457   -5.5511 C   0  0  2  0  0  0  0  0  0  0  0  0
    7.6515   -8.2826   -5.6902 O   0  0  0  0  0  0  0  0  0  0  0  0
    8.8952   -8.3167   -3.0515 C   0  0  0  0  0  0  0  0  0  0  0  0
    9.6760   -9.5337   -2.9315 N   0  3  0  0  0  0  0  0  0  0  0  0
    8.2275    0.9477    2.5076 C   0  0  1  0  0  0  0  0  0  0  0  0
    7.4756    0.5495    1.3423 O   0  0  0  0  0  0  0  0  0  0  0  0
    8.2930    0.3902    0.1600 C   0  0  2  0  0  0  0  0  0  0  0  0
    9.2310   -0.7064    0.2916 O   0  0  0  0  0  0  0  0  0  0  0  0
    9.0169    1.6994   -0.1770 C   0  0  2  0  0  0  0  0  0  0  0  0
    9.9889    1.4713   -1.2301 N   0  3  0  0  0  0  0  0  0  0  0  0
    9.7249    2.2832    1.0405 C   0  0  1  0  0  0  0  0  0  0  0  0
   10.1756    3.5967    0.7472 O   0  0  0  0  0  0  0  0  0  0  0  0
    8.8507    2.3160    2.2847 C   0  0  2  0  0  0  0  0  0  0  0  0
    9.6195    2.6906    3.4184 O   0  0  0  0  0  0  0  0  0  0  0  0
    7.3017    1.0518    3.7162 C   0  0  0  0  0  0  0  0  0  0  0  0
    6.8612   -0.2642    4.1413 N   0  3  0  0  0  0  0  0  0  0  0  0
    8.6393   -4.8439   -0.5025 C   0  0  2  0  0  0  0  0  0  0  0  0
    7.4318   -3.9289   -0.5560 C   0  0  0  0  0  0  0  0  0  0  0  0
    7.7337   -2.6097    0.1305 C   0  0  1  0  0  0  0  0  0  0  0  0
    8.8814   -1.8482   -0.5340 C   0  0  2  0  0  0  0  0  0  0  0  0
   10.1157   -2.7606   -0.7214 C   0  0  1  0  0  0  0  0  0  0  0  0
    9.8368   -4.1965   -1.1848 C   0  0  1  0  0  0  0  0  0  0  0  0
    8.3231   -6.0979   -1.1594 N   0  3  0  0  0  0  0  0  0  0  0  0
    6.5297   -1.8020    0.1496 N   0  3  0  0  0  0  0  0  0  0  0  0
   11.1057   -2.1454   -1.5817 O   0  0  0  0  0  0  0  0  0  0  0  0
   10.9949   -5.0005   -0.9864 O   0  0  0  0  0  0  0  0  0  0  0  0
  1  2  1  0  0  0  0
  3  2  1  1  0  0  0
  3  4  1  0  0  0  0
  3  5  1  0  0  0  0
  4  8  1  0  0  0  0
  5  6  1  0  0  0  0
  5 12  1  6  0  0  0
  6  7  1  6  0  0  0
  6  8  1  0  0  0  0
  8 41  1  1  0  0  0
  9 10  1  0  0  0  0
  9 17  1  0  0  0  0
  9 19  1  1  0  0  0
 10 11  1  0  0  0  0
 11 12  1  6  0  0  0
 11 13  1  0  0  0  0
 13 14  1  1  0  0  0
 13 15  1  0  0  0  0
 15 16  1  1  0  0  0
 15 17  1  0  0  0  0
 17 18  1  6  0  0  0
 19 20  1  0  0  0  0
 21 22  1  0  0  0  0
 21 29  1  0  0  0  0
 21 31  1  1  0  0  0
 22 23  1  0  0  0  0
 23 24  1  1  0  0  0
 23 25  1  0  0  0  0
 25 26  1  6  0  0  0
 25 27  1  0  0  0  0
 27 28  1  6  0  0  0
 27 29  1  0  0  0  0
 29 30  1  1  0  0  0
 31 32  1  0  0  0  0
 33 34  1  0  0  0  0
 33 38  1  0  0  0  0
 33 39  1  6  0  0  0
 34 35  1  0  0  0  0
 35 36  1  0  0  0  0
 35 40  1  6  0  0  0
 36 24  1  1  0  0  0
 36 37  1  0  0  0  0
 37 38  1  0  0  0  0
 37 41  1  6  0  0  0
 38 42  1  1  0  0  0
M  CHG  6  14   1  20   1  26   1  32   1  39   1  40   1
M  END
>  <CHROM.1>
-58.25794490,-165.71482958,-167.13697425,-53.22195585,26.66987652,-168.42497415
69.89940332,-165.08201870,-174.03277215,42.20356793,-173.98995658,70.51879720
108.42383233,-77.03157310,31.15134561,-173.29994120,62.46800874,-108.22509677
-48.92069556,168.92332919,-48.30018399,66.20725150,8.94976119,-2.90524719
-1.92017124,-1.44869846,1.19494076,0.58124509

>  <Name>


>  <RI>
0

>  <Rbt.Current_Directory>
/home/itssahil/PROJECTS/Mol_Feturizer/New_Systems/rnas/1qd3

>  <Rbt.Executable>
rbdock ($Id: //depot/dev/client3/rdock/2013.1/src/exe/rbdock.cxx#4 $)

>  <Rbt.Library>
libRbt.so (2013.1, Build901 2013/11/27)

>  <Rbt.Parameter_File>
/export/apps/rDock/src/rDock_2013.1_src/data/scripts/dock_solv.prm

>  <Rbt.Receptor>
prm/pocket_docking_2.prm

>  <SCORE>
-29.8817

>  <SCORE.INTER>
-22.8268

>  <SCORE.INTER.CONST>
1

>  <SCORE.INTER.POLAR>
-4.75211

>  <SCORE.INTER.ROT>
9

>  <SCORE.INTER.SOLV>
36.9407

>  <SCORE.INTER.VDW>
-21.291

>  <SCORE.INTER.norm>
-0.543495

>  <SCORE.INTRA>
-13.8779

>  <SCORE.INTRA.DIHEDRAL>
-13.9668

>  <SCORE.INTRA.DIHEDRAL.0>
40.6252

>  <SCORE.INTRA.POLAR>
-2.2302

>  <SCORE.INTRA.POLAR.0>
-1.20161

>  <SCORE.INTRA.REPUL>
-0.115675

>  <SCORE.INTRA.REPUL.0>
0.115675

>  <SCORE.INTRA.SOLV>
-0.257389

>  <SCORE.INTRA.SOLV.lig_0>
-154.895

>  <SCORE.INTRA.VDW>
1.39523

>  <SCORE.INTRA.VDW.0>
2.2925

>  <SCORE.INTRA.norm>
-0.330426

>  <SCORE.RESTR>
6.82305

>  <SCORE.RESTR.CAVITY>
6.82305

>  <SCORE.RESTR.norm>
0.162454

>  <SCORE.SYSTEM>
0

>  <SCORE.SYSTEM.CONST>
0

>  <SCORE.SYSTEM.DIHEDRAL>
0

>  <SCORE.SYSTEM.SOLV>
0

>  <SCORE.SYSTEM.norm>
0

>  <SCORE.heavy>
42

>  <SCORE.norm>
-0.711468

>  <RMSD>
4.280

$$$$

 OpenBabel11021811413D
libRbt.so/2013.1/901 2013/11/27
 42 45  0  0  0  0  0  0  0  0999 V2000
    6.6980   -1.8104   -2.8786 O   0  0  0  0  0  0  0  0  0  0  0  0
    7.7480   -2.7386   -3.1102 C   0  0  0  0  0  0  0  0  0  0  0  0
    8.9315   -2.0278   -3.7678 C   0  0  1  0  0  0  0  0  0  0  0  0
    9.3730   -0.9024   -2.9778 O   0  0  0  0  0  0  0  0  0  0  0  0
   10.1517   -2.9178   -3.9370 C   0  0  2  0  0  0  0  0  0  0  0  0
   11.2374   -1.8693   -4.1121 C   0  0  1  0  0  0  0  0  0  0  0  0
   11.1868   -1.3406   -5.4326 O   0  0  0  0  0  0  0  0  0  0  0  0
   10.8136   -0.7874   -3.0979 C   0  0  2  0  0  0  0  0  0  0  0  0
    7.4038   -6.2101   -4.3416 C   0  0  2  0  0  0  0  0  0  0  0  0
    8.0105   -4.9659   -4.7229 O   0  0  0  0  0  0  0  0  0  0  0  0
    9.4462   -5.0565   -4.7583 C   0  0  2  0  0  0  0  0  0  0  0  0
   10.0254   -3.7767   -5.0873 O   0  0  0  0  0  0  0  0  0  0  0  0
    9.8980   -6.1233   -5.7703 C   0  0  2  0  0  0  0  0  0  0  0  0
    9.7785   -5.6275   -7.1291 N   0  3  0  0  0  0  0  0  0  0  0  0
    9.1489   -7.4521   -5.6156 C   0  0  1  0  0  0  0  0  0  0  0  0
    9.6762   -8.1637   -4.5072 O   0  0  0  0  0  0  0  0  0  0  0  0
    7.6478   -7.2512   -5.4266 C   0  0  2  0  0  0  0  0  0  0  0  0
    7.0562   -6.8309   -6.6505 O   0  0  0  0  0  0  0  0  0  0  0  0
    5.9096   -6.0257   -4.0918 C   0  0  0  0  0  0  0  0  0  0  0  0
    5.3368   -7.2347   -3.5305 N   0  3  0  0  0  0  0  0  0  0  0  0
    7.8626    0.5717    2.4702 C   0  0  1  0  0  0  0  0  0  0  0  0
    7.2677   -0.0637    1.3193 O   0  0  0  0  0  0  0  0  0  0  0  0
    8.0765    0.0414    0.1251 C   0  0  2  0  0  0  0  0  0  0  0  0
    9.3242   -0.6851    0.2480 O   0  0  0  0  0  0  0  0  0  0  0  0
    8.3259    1.5121   -0.2310 C   0  0  2  0  0  0  0  0  0  0  0  0
    9.3050    1.6043   -1.2981 N   0  3  0  0  0  0  0  0  0  0  0  0
    8.8190    2.3089    0.9716 C   0  0  1  0  0  0  0  0  0  0  0  0
    8.8095    3.6943    0.6636 O   0  0  0  0  0  0  0  0  0  0  0  0
    7.9990    2.0663    2.2294 C   0  0  2  0  0  0  0  0  0  0  0  0
    8.6171    2.6846    3.3485 O   0  0  0  0  0  0  0  0  0  0  0  0
    6.9698    0.3791    3.6927 C   0  0  0  0  0  0  0  0  0  0  0  0
    7.6288    0.8634    4.8919 N   0  3  0  0  0  0  0  0  0  0  0  0
   10.4642   -4.5975   -0.9739 C   0  0  2  0  0  0  0  0  0  0  0  0
    8.9841   -4.2808   -0.8903 C   0  0  0  0  0  0  0  0  0  0  0  0
    8.7551   -3.0225   -0.0736 C   0  0  1  0  0  0  0  0  0  0  0  0
    9.4254   -1.7918   -0.6860 C   0  0  2  0  0  0  0  0  0  0  0  0
   10.9108   -2.0742   -1.0095 C   0  0  1  0  0  0  0  0  0  0  0  0
   11.2260   -3.4470   -1.6180 C   0  0  1  0  0  0  0  0  0  0  0  0
   10.6552   -5.8056   -1.7536 N   0  3  0  0  0  0  0  0  0  0  0  0
    7.3285   -2.8072    0.0703 N   0  3  0  0  0  0  0  0  0  0  0  0
   11.4853   -1.0256   -1.8276 O   0  0  0  0  0  0  0  0  0  0  0  0
   12.6257   -3.6970   -1.5440 O   0  0  0  0  0  0  0  0  0  0  0  0
  1  2  1  0  0  0  0
  3  2  1  1  0  0  0
  3  4  1  0  0  0  0
  3  5  1  0  0  0  0
  4  8  1  0  0  0  0
  5  6  1  0  0  0  0
  5 12  1  6  0  0  0
  6  7  1  6  0  0  0
  6  8  1  0  0  0  0
  8 41  1  1  0  0  0
  9 10  1  0  0  0  0
  9 17  1  0  0  0  0
  9 19  1  6  0  0  0
 10 11  1  0  0  0  0
 11 12  1  6  0  0  0
 11 13  1  0  0  0  0
 13 14  1  6  0  0  0
 13 15  1  0  0  0  0
 15 16  1  1  0  0  0
 15 17  1  0  0  0  0
 17 18  1  6  0  0  0
 19 20  1  0  0  0  0
 21 22  1  0  0  0  0
 21 29  1  0  0  0  0
 21 31  1  1  0  0  0
 22 23  1  0  0  0  0
 23 24  1  1  0  0  0
 23 25  1  0  0  0  0
 25 26  1  6  0  0  0
 25 27  1  0  0  0  0
 27 28  1  6  0  0  0
 27 29  1  0  0  0  0
 29 30  1  1  0  0  0
 31 32  1  0  0  0  0
 33 34  1  0  0  0  0
 33 38  1  0  0  0  0
 33 39  1  6  0  0  0
 34 35  1  0  0  0  0
 35 36  1  0  0  0  0
 35 40  1  6  0  0  0
 36 24  1  1  0  0  0
 36 37  1  0  0  0  0
 37 38  1  0  0  0  0
 37 41  1  6  0  0  0
 38 42  1  1  0  0  0
M  CHG  6  14   1  20   1  26   1  32   1  39   1  40   1
M  END
>  <CHROM.1>
67.67233870,55.58176019,-92.09864825,170.21835661,38.34466723,-172.11878053
83.13264916,87.64015125,-50.68405067,-172.14786962,-65.49984114,172.82092649
115.62040618,-85.65589339,159.02856734,42.88158804,75.00877871,105.82277409
-160.27109243,173.65281413,-57.84563931,174.63564683,8.95048323,-2.53414355
-1.97907855,1.52946840,-0.71624209,-2.42108337

>  <Name>


>  <RI>
0

>  <Rbt.Current_Directory>
/home/itssahil/PROJECTS/Mol_Feturizer/New_Systems/rnas/1qd3

>  <Rbt.Executable>
rbdock ($Id: //depot/dev/client3/rdock/2013.1/src/exe/rbdock.cxx#4 $)

>  <Rbt.Library>
libRbt.so (2013.1, Build901 2013/11/27)

>  <Rbt.Parameter_File>
/export/apps/rDock/src/rDock_2013.1_src/data/scripts/dock_solv.prm

>  <Rbt.Receptor>
prm/pocket_docking_2.prm

>  <SCORE>
-42.9251

>  <SCORE.INTER>
-34.7454

>  <SCORE.INTER.CONST>
1

>  <SCORE.INTER.POLAR>
-6.8399

>  <SCORE.INTER.ROT>
9

>  <SCORE.INTER.SOLV>
35.9107

>  <SCORE.INTER.VDW>
-21.9342

>  <SCORE.INTER.norm>
-0.827273

>  <SCORE.INTRA>
-13.9152

>  <SCORE.INTRA.DIHEDRAL>
-9.91825

>  <SCORE.INTRA.DIHEDRAL.0>
40.6252

>  <SCORE.INTRA.POLAR>
-1.73371

>  <SCORE.INTRA.POLAR.0>
-1.20161

>  <SCORE.INTRA.REPUL>
-0.115675

>  <SCORE.INTRA.REPUL.0>
0.115675

>  <SCORE.INTRA.SOLV>
0.485246

>  <SCORE.INTRA.SOLV.lig_0>
-154.895

>  <SCORE.INTRA.VDW>
-2.72571

>  <SCORE.INTRA.VDW.0>
2.2925

>  <SCORE.INTRA.norm>
-0.331314

>  <SCORE.RESTR>
5.73553

>  <SCORE.RESTR.CAVITY>
5.73553

>  <SCORE.RESTR.norm>
0.13656

>  <SCORE.SYSTEM>
0

>  <SCORE.SYSTEM.CONST>
0

>  <SCORE.SYSTEM.DIHEDRAL>
0

>  <SCORE.SYSTEM.SOLV>
0

>  <SCORE.SYSTEM.norm>
0

>  <SCORE.heavy>
42

>  <SCORE.norm>
-1.02203

>  <RMSD>
4.356

$$$$

 OpenBabel11021811413D
libRbt.so/2013.1/901 2013/11/27
 42 45  0  0  0  0  0  0  0  0999 V2000
    5.6051   -1.4791    2.6654 O   0  0  0  0  0  0  0  0  0  0  0  0
    6.6460   -2.1687    1.9881 C   0  0  0  0  0  0  0  0  0  0  0  0
    6.9933   -1.4368    0.6910 C   0  0  1  0  0  0  0  0  0  0  0  0
    7.5205   -0.1189    0.9568 O   0  0  0  0  0  0  0  0  0  0  0  0
    8.0519   -2.1460   -0.1370 C   0  0  2  0  0  0  0  0  0  0  0  0
    8.5249   -1.0031   -1.0196 C   0  0  1  0  0  0  0  0  0  0  0  0
    7.5773   -0.7721   -2.0562 O   0  0  0  0  0  0  0  0  0  0  0  0
    8.5294    0.1871   -0.0388 C   0  0  2  0  0  0  0  0  0  0  0  0
    8.2768   -6.7956   -1.0851 C   0  0  2  0  0  0  0  0  0  0  0  0
    7.5177   -5.5818   -1.1942 O   0  0  0  0  0  0  0  0  0  0  0  0
    8.2965   -4.4265   -0.8340 C   0  0  2  0  0  0  0  0  0  0  0  0
    7.4890   -3.2326   -0.8983 O   0  0  0  0  0  0  0  0  0  0  0  0
    9.5236   -4.2913   -1.7517 C   0  0  2  0  0  0  0  0  0  0  0  0
    9.1397   -3.7730   -3.0518 N   0  3  0  0  0  0  0  0  0  0  0  0
   10.3049   -5.6016   -1.9053 C   0  0  1  0  0  0  0  0  0  0  0  0
   11.0941   -5.8179   -0.7463 O   0  0  0  0  0  0  0  0  0  0  0  0
    9.3863   -6.7999   -2.1290 C   0  0  2  0  0  0  0  0  0  0  0  0
    8.8286   -6.7466   -3.4369 O   0  0  0  0  0  0  0  0  0  0  0  0
    7.3713   -8.0129   -1.2498 C   0  0  0  0  0  0  0  0  0  0  0  0
    6.4478   -8.1118   -0.1352 N   0  3  0  0  0  0  0  0  0  0  0  0
    8.3072    1.9763    4.4425 C   0  0  1  0  0  0  0  0  0  0  0  0
    8.5057    1.2781    3.1955 O   0  0  0  0  0  0  0  0  0  0  0  0
    8.8954    2.1478    2.1078 C   0  0  2  0  0  0  0  0  0  0  0  0
   10.2015    2.7369    2.3243 O   0  0  0  0  0  0  0  0  0  0  0  0
    7.8333    3.2288    1.8730 C   0  0  2  0  0  0  0  0  0  0  0  0
    8.3290    4.2137    0.9296 N   0  3  0  0  0  0  0  0  0  0  0  0
    7.4435    3.9290    3.1700 C   0  0  1  0  0  0  0  0  0  0  0  0
    6.3035    4.7449    2.9487 O   0  0  0  0  0  0  0  0  0  0  0  0
    7.1596    2.9643    4.3110 C   0  0  2  0  0  0  0  0  0  0  0  0
    6.9887    3.6759    5.5280 O   0  0  0  0  0  0  0  0  0  0  0  0
    7.9411    0.9852    5.5436 C   0  0  0  0  0  0  0  0  0  0  0  0
    7.6437    1.6801    6.7827 N   0  3  0  0  0  0  0  0  0  0  0  0
   12.4520    2.4292   -1.2730 C   0  0  2  0  0  0  0  0  0  0  0  0
   13.1824    2.8378   -0.0090 C   0  0  0  0  0  0  0  0  0  0  0  0
   12.1959    3.2842    1.0542 C   0  0  1  0  0  0  0  0  0  0  0  0
   11.2225    2.1760    1.4580 C   0  0  2  0  0  0  0  0  0  0  0  0
   10.5644    1.5369    0.2132 C   0  0  1  0  0  0  0  0  0  0  0  0
   11.4828    1.2891   -0.9908 C   0  0  1  0  0  0  0  0  0  0  0  0
   13.4161    2.0130   -2.2735 N   0  3  0  0  0  0  0  0  0  0  0  0
   12.9316    3.7620    2.2087 N   0  3  0  0  0  0  0  0  0  0  0  0
    9.8535    0.3211    0.5530 O   0  0  0  0  0  0  0  0  0  0  0  0
   10.6981    1.0281   -2.1497 O   0  0  0  0  0  0  0  0  0  0  0  0
  1  2  1  0  0  0  0
  3  2  1  1  0  0  0
  3  4  1  0  0  0  0
  3  5  1  0  0  0  0
  4  8  1  0  0  0  0
  5  6  1  0  0  0  0
  5 12  1  6  0  0  0
  6  7  1  6  0  0  0
  6  8  1  0  0  0  0
  8 41  1  1  0  0  0
  9 10  1  0  0  0  0
  9 17  1  0  0  0  0
  9 19  1  6  0  0  0
 10 11  1  0  0  0  0
 11 12  1  6  0  0  0
 11 13  1  0  0  0  0
 13 14  1  6  0  0  0
 13 15  1  0  0  0  0
 15 16  1  1  0  0  0
 15 17  1  0  0  0  0
 17 18  1  6  0  0  0
 19 20  1  0  0  0  0
 21 22  1  0  0  0  0
 21 29  1  0  0  0  0
 21 31  1  1  0  0  0
 22 23  1  0  0  0  0
 23 24  1  1  0  0  0
 23 25  1  0  0  0  0
 25 26  1  6  0  0  0
 25 27  1  0  0  0  0
 27 28  1  6  0  0  0
 27 29  1  0  0  0  0
 29 30  1  1  0  0  0
 31 32  1  0  0  0  0
 33 34  1  0  0  0  0
 33 38  1  0  0  0  0
 33 39  1  6  0  0  0
 34 35  1  0  0  0  0
 35 36  1  0  0  0  0
 35 40  1  1  0  0  0
 36 24  1  1  0  0  0
 36 37  1  0  0  0  0
 37 38  1  0  0  0  0
 37 41  1  1  0  0  0
 38 42  1  6  0  0  0
M  CHG  6  14   1  20   1  26   1  32   1  39   1  40   1
M  END
>  <CHROM.1>
57.85367632,63.84826916,-135.34960494,74.50496741,-128.31397740,-66.93518989
160.32113511,-168.78819790,179.93128833,-141.08829616,-148.11707036,-175.89594516
107.75748090,143.73486490,-120.40318064,-178.99447838,-171.54136134,158.98071273
-177.00811656,56.52484409,135.04471214,60.26770036,8.94332317,-0.56739618
0.63643472,1.65433061,-0.72391856,-2.62778013

>  <Name>


>  <RI>
0

>  <Rbt.Current_Directory>
/home/itssahil/PROJECTS/Mol_Feturizer/New_Systems/rnas/1qd3

>  <Rbt.Executable>
rbdock ($Id: //depot/dev/client3/rdock/2013.1/src/exe/rbdock.cxx#4 $)

>  <Rbt.Library>
libRbt.so (2013.1, Build901 2013/11/27)

>  <Rbt.Parameter_File>
/export/apps/rDock/src/rDock_2013.1_src/data/scripts/dock_solv.prm

>  <Rbt.Receptor>
prm/pocket_docking_5.prm

>  <SCORE>
-49.4477

>  <SCORE.INTER>
-46.9943

>  <SCORE.INTER.CONST>
1

>  <SCORE.INTER.POLAR>
-7.66635

>  <SCORE.INTER.ROT>
9

>  <SCORE.INTER.SOLV>
43.9856

>  <SCORE.INTER.VDW>
-30.0369

>  <SCORE.INTER.norm>
-1.11891

>  <SCORE.INTRA>
-2.46489

>  <SCORE.INTRA.DIHEDRAL>
6.6603

>  <SCORE.INTRA.DIHEDRAL.0>
40.6252

>  <SCORE.INTRA.POLAR>
0.439276

>  <SCORE.INTRA.POLAR.0>
-1.20161

>  <SCORE.INTRA.REPUL>
0.0758859

>  <SCORE.INTRA.REPUL.0>
0.115675

>  <SCORE.INTRA.SOLV>
-10.2843

>  <SCORE.INTRA.SOLV.lig_0>
-154.895

>  <SCORE.INTRA.VDW>
-2.52588

>  <SCORE.INTRA.VDW.0>
2.2925

>  <SCORE.INTRA.norm>
-0.058688

>  <SCORE.RESTR>
0.0114906

>  <SCORE.RESTR.CAVITY>
0.0114906

>  <SCORE.RESTR.norm>
0.000273586

>  <SCORE.SYSTEM>
0

>  <SCORE.SYSTEM.CONST>
0

>  <SCORE.SYSTEM.DIHEDRAL>
0

>  <SCORE.SYSTEM.SOLV>
0

>  <SCORE.SYSTEM.norm>
0

>  <SCORE.heavy>
42

>  <SCORE.norm>
-1.17733

>  <RMSD>
4.363

$$$$

 OpenBabel11021811413D
libRbt.so/2013.1/901 2013/11/27
 42 45  0  0  0  0  0  0  0  0999 V2000
    6.9369   -0.8344    0.3022 O   0  0  0  0  0  0  0  0  0  0  0  0
    6.8019   -0.8077   -1.1115 C   0  0  0  0  0  0  0  0  0  0  0  0
    8.0783   -0.2505   -1.7430 C   0  0  1  0  0  0  0  0  0  0  0  0
    8.3964    1.0568   -1.2181 O   0  0  0  0  0  0  0  0  0  0  0  0
    9.3047   -1.1096   -1.4831 C   0  0  2  0  0  0  0  0  0  0  0  0
   10.4105   -0.1045   -1.7585 C   0  0  1  0  0  0  0  0  0  0  0  0
   10.5717    0.0602   -3.1631 O   0  0  0  0  0  0  0  0  0  0  0  0
    9.8385    1.1882   -1.1416 C   0  0  2  0  0  0  0  0  0  0  0  0
    7.4376   -5.3512   -2.3156 C   0  0  2  0  0  0  0  0  0  0  0  0
    8.1220   -4.2065   -2.8473 O   0  0  0  0  0  0  0  0  0  0  0  0
    8.7279   -3.4131   -1.8109 C   0  0  2  0  0  0  0  0  0  0  0  0
    9.3562   -2.2422   -2.3728 O   0  0  0  0  0  0  0  0  0  0  0  0
    9.7546   -4.2434   -1.0216 C   0  0  2  0  0  0  0  0  0  0  0  0
   10.9816   -4.4014   -1.7805 N   0  3  0  0  0  0  0  0  0  0  0  0
    9.2129   -5.6099   -0.5858 C   0  0  1  0  0  0  0  0  0  0  0  0
    8.3630   -5.4430    0.5379 O   0  0  0  0  0  0  0  0  0  0  0  0
    8.4487   -6.3128   -1.7045 C   0  0  2  0  0  0  0  0  0  0  0  0
    9.3565   -6.7676   -2.7013 O   0  0  0  0  0  0  0  0  0  0  0  0
    6.6196   -6.0418   -3.4032 C   0  0  0  0  0  0  0  0  0  0  0  0
    5.3255   -6.4442   -2.8851 N   0  3  0  0  0  0  0  0  0  0  0  0
    8.4737    2.2036    4.7097 C   0  0  1  0  0  0  0  0  0  0  0  0
    8.8278    1.4736    3.5164 O   0  0  0  0  0  0  0  0  0  0  0  0
    9.2237    2.3278    2.4187 C   0  0  2  0  0  0  0  0  0  0  0  0
   10.4531    3.0408    2.7011 O   0  0  0  0  0  0  0  0  0  0  0  0
    8.0934    3.2978    2.0538 C   0  0  2  0  0  0  0  0  0  0  0  0
    8.5733    4.2823    1.1019 N   0  3  0  0  0  0  0  0  0  0  0  0
    7.5452    4.0146    3.2827 C   0  0  1  0  0  0  0  0  0  0  0  0
    6.3593    4.7143    2.9385 O   0  0  0  0  0  0  0  0  0  0  0  0
    7.2585    3.0777    4.4459 C   0  0  2  0  0  0  0  0  0  0  0  0
    6.9330    3.8221    5.6106 O   0  0  0  0  0  0  0  0  0  0  0  0
    8.1107    1.2313    5.8284 C   0  0  0  0  0  0  0  0  0  0  0  0
    7.0348    1.7643    6.6439 N   0  3  0  0  0  0  0  0  0  0  0  0
   13.6054    3.1720   -0.1530 C   0  0  2  0  0  0  0  0  0  0  0  0
   13.9763    3.0608    1.3127 C   0  0  0  0  0  0  0  0  0  0  0  0
   12.7937    3.4289    2.1896 C   0  0  1  0  0  0  0  0  0  0  0  0
   11.5926    2.5063    1.9775 C   0  0  2  0  0  0  0  0  0  0  0  0
   11.2505    2.3797    0.4750 C   0  0  1  0  0  0  0  0  0  0  0  0
   12.4400    2.2501   -0.4856 C   0  0  1  0  0  0  0  0  0  0  0  0
   14.7526    2.8211   -0.9683 N   0  3  0  0  0  0  0  0  0  0  0  0
   13.2123    3.4097    3.5777 N   0  3  0  0  0  0  0  0  0  0  0  0
   10.3003    1.3129    0.2342 O   0  0  0  0  0  0  0  0  0  0  0  0
   12.0082    2.4850   -1.8218 O   0  0  0  0  0  0  0  0  0  0  0  0
  1  2  1  0  0  0  0
  3  2  1  1  0  0  0
  3  4  1  0  0  0  0
  3  5  1  0  0  0  0
  4  8  1  0  0  0  0
  5  6  1  0  0  0  0
  5 12  1  6  0  0  0
  6  7  1  6  0  0  0
  6  8  1  0  0  0  0
  8 41  1  1  0  0  0
  9 10  1  0  0  0  0
  9 17  1  0  0  0  0
  9 19  1  6  0  0  0
 10 11  1  0  0  0  0
 11 12  1  6  0  0  0
 11 13  1  0  0  0  0
 13 14  1  6  0  0  0
 13 15  1  0  0  0  0
 15 16  1  1  0  0  0
 15 17  1  0  0  0  0
 17 18  1  6  0  0  0
 19 20  1  0  0  0  0
 21 22  1  0  0  0  0
 21 29  1  0  0  0  0
 21 31  1  1  0  0  0
 22 23  1  0  0  0  0
 23 24  1  1  0  0  0
 23 25  1  0  0  0  0
 25 26  1  6  0  0  0
 25 27  1  0  0  0  0
 27 28  1  6  0  0  0
 27 29  1  0  0  0  0
 29 30  1  1  0  0  0
 31 32  1  0  0  0  0
 33 34  1  0  0  0  0
 33 38  1  0  0  0  0
 33 39  1  6  0  0  0
 34 35  1  0  0  0  0
 35 36  1  0  0  0  0
 35 40  1  1  0  0  0
 36 24  1  1  0  0  0
 36 37  1  0  0  0  0
 37 38  1  0  0  0  0
 37 41  1  1  0  0  0
 38 42  1  6  0  0  0
M  CHG  6  14   1  20   1  26   1  32   1  39   1  40   1
M  END
>  <CHROM.1>
-68.87646850,-56.11931357,-92.24198072,-39.95279090,-132.64761780,-138.37122030
147.37926936,-179.62999068,66.59948565,-65.87442975,-95.92847142,-144.02068973
105.63716413,172.47097022,114.78184461,-176.33980080,-174.83584897,-38.67588008
169.83278148,-57.77619765,175.36514638,132.47942489,9.38021045,0.00859957
0.41475717,1.75413390,-0.58234833,-2.47304032

>  <Name>


>  <RI>
0

>  <Rbt.Current_Directory>
/home/itssahil/PROJECTS/Mol_Feturizer/New_Systems/rnas/1qd3

>  <Rbt.Executable>
rbdock ($Id: //depot/dev/client3/rdock/2013.1/src/exe/rbdock.cxx#4 $)

>  <Rbt.Library>
libRbt.so (2013.1, Build901 2013/11/27)

>  <Rbt.Parameter_File>
/export/apps/rDock/src/rDock_2013.1_src/data/scripts/dock_solv.prm

>  <Rbt.Receptor>
prm/pocket_docking_7.prm

>  <SCORE>
-48.5342

>  <SCORE.INTER>
-45.8775

>  <SCORE.INTER.CONST>
1

>  <SCORE.INTER.POLAR>
-7.25609

>  <SCORE.INTER.ROT>
9

>  <SCORE.INTER.SOLV>
40.7627

>  <SCORE.INTER.VDW>
-29.5856

>  <SCORE.INTER.norm>
-1.09232

>  <SCORE.INTRA>
-2.65663

>  <SCORE.INTRA.DIHEDRAL>
4.29991

>  <SCORE.INTRA.DIHEDRAL.0>
40.6252

>  <SCORE.INTRA.POLAR>
-0.106698

>  <SCORE.INTRA.POLAR.0>
-1.20161

>  <SCORE.INTRA.REPUL>
-0.114355

>  <SCORE.INTRA.REPUL.0>
0.115675

>  <SCORE.INTRA.SOLV>
-8.69383

>  <SCORE.INTRA.SOLV.lig_0>
-154.895

>  <SCORE.INTRA.VDW>
0.474872

>  <SCORE.INTRA.VDW.0>
2.2925

>  <SCORE.INTRA.norm>
-0.0632531

>  <SCORE.RESTR>
0

>  <SCORE.RESTR.CAVITY>
0

>  <SCORE.RESTR.norm>
0

>  <SCORE.SYSTEM>
0

>  <SCORE.SYSTEM.CONST>
0

>  <SCORE.SYSTEM.DIHEDRAL>
0

>  <SCORE.SYSTEM.SOLV>
0

>  <SCORE.SYSTEM.norm>
0

>  <SCORE.heavy>
42

>  <SCORE.norm>
-1.15558

>  <RMSD>
4.654

$$$$

 OpenBabel11021811413D
libRbt.so/2013.1/901 2013/11/27
 42 45  0  0  0  0  0  0  0  0999 V2000
    5.1624   -1.8662   -2.1239 O   0  0  0  0  0  0  0  0  0  0  0  0
    6.4485   -1.6148   -2.6720 C   0  0  0  0  0  0  0  0  0  0  0  0
    7.5268   -1.9818   -1.6517 C   0  0  1  0  0  0  0  0  0  0  0  0
    7.9457   -0.8271   -0.8922 O   0  0  0  0  0  0  0  0  0  0  0  0
    7.0649   -3.0048   -0.6272 C   0  0  2  0  0  0  0  0  0  0  0  0
    8.0925   -2.7818    0.4697 C   0  0  1  0  0  0  0  0  0  0  0  0
    9.3234   -3.3981    0.1080 O   0  0  0  0  0  0  0  0  0  0  0  0
    8.2521   -1.2478    0.4614 C   0  0  2  0  0  0  0  0  0  0  0  0
    8.8948   -5.0913   -4.2573 C   0  0  2  0  0  0  0  0  0  0  0  0
    8.5748   -5.0995   -2.8576 O   0  0  0  0  0  0  0  0  0  0  0  0
    7.3695   -4.3649   -2.5774 C   0  0  2  0  0  0  0  0  0  0  0  0
    7.1088   -4.3437   -1.1586 O   0  0  0  0  0  0  0  0  0  0  0  0
    6.1748   -4.9742   -3.3310 C   0  0  2  0  0  0  0  0  0  0  0  0
    5.7234   -6.1915   -2.6822 N   0  3  0  0  0  0  0  0  0  0  0  0
    6.4695   -5.2330   -4.8132 C   0  0  1  0  0  0  0  0  0  0  0  0
    6.4002   -4.0093   -5.5278 O   0  0  0  0  0  0  0  0  0  0  0  0
    7.8384   -5.8732   -5.0275 C   0  0  2  0  0  0  0  0  0  0  0  0
    7.8152   -7.2269   -4.5901 O   0  0  0  0  0  0  0  0  0  0  0  0
   10.2842   -5.6761   -4.4947 C   0  0  0  0  0  0  0  0  0  0  0  0
   11.3057   -4.6842   -4.2163 N   0  3  0  0  0  0  0  0  0  0  0  0
   11.6430    3.1735    0.0868 C   0  0  1  0  0  0  0  0  0  0  0  0
   10.2975    3.3415   -0.4068 O   0  0  0  0  0  0  0  0  0  0  0  0
    9.6496    2.0923   -0.7401 C   0  0  2  0  0  0  0  0  0  0  0  0
    9.4311    1.2645    0.4289 O   0  0  0  0  0  0  0  0  0  0  0  0
   10.4481    1.3381   -1.8103 C   0  0  2  0  0  0  0  0  0  0  0  0
    9.9079    0.0022   -1.9818 N   0  3  0  0  0  0  0  0  0  0  0  0
   11.9255    1.2383   -1.4473 C   0  0  1  0  0  0  0  0  0  0  0  0
   12.6591    0.7497   -2.5596 O   0  0  0  0  0  0  0  0  0  0  0  0
   12.5221    2.5610   -0.9913 C   0  0  2  0  0  0  0  0  0  0  0  0
   13.8369    2.3635   -0.4923 O   0  0  0  0  0  0  0  0  0  0  0  0
   12.2378    4.5301    0.4540 C   0  0  0  0  0  0  0  0  0  0  0  0
   11.7527    5.5636   -0.4423 N   0  3  0  0  0  0  0  0  0  0  0  0
    7.2015    2.2204    3.9239 C   0  0  2  0  0  0  0  0  0  0  0  0
    7.3685    3.2967    2.8694 C   0  0  0  0  0  0  0  0  0  0  0  0
    8.4936    2.9373    1.9166 C   0  0  1  0  0  0  0  0  0  0  0  0
    8.2339    1.6321    1.1631 C   0  0  2  0  0  0  0  0  0  0  0  0
    7.8451    0.4976    2.1391 C   0  0  1  0  0  0  0  0  0  0  0  0
    6.8897    0.8770    3.2782 C   0  0  1  0  0  0  0  0  0  0  0  0
    6.1256    2.5902    4.8237 N   0  3  0  0  0  0  0  0  0  0  0  0
    8.6913    4.0320    0.9866 N   0  3  0  0  0  0  0  0  0  0  0  0
    7.3385   -0.6612    1.4323 O   0  0  0  0  0  0  0  0  0  0  0  0
    6.8925   -0.1445    4.2699 O   0  0  0  0  0  0  0  0  0  0  0  0
  1  2  1  0  0  0  0
  3  2  1  6  0  0  0
  3  4  1  0  0  0  0
  3  5  1  0  0  0  0
  4  8  1  0  0  0  0
  5  6  1  0  0  0  0
  5 12  1  6  0  0  0
  6  7  1  6  0  0  0
  6  8  1  0  0  0  0
  8 41  1  1  0  0  0
  9 10  1  0  0  0  0
  9 17  1  0  0  0  0
  9 19  1  1  0  0  0
 10 11  1  0  0  0  0
 11 12  1  1  0  0  0
 11 13  1  0  0  0  0
 13 14  1  1  0  0  0
 13 15  1  0  0  0  0
 15 16  1  6  0  0  0
 15 17  1  0  0  0  0
 17 18  1  1  0  0  0
 19 20  1  0  0  0  0
 21 22  1  0  0  0  0
 21 29  1  0  0  0  0
 21 31  1  6  0  0  0
 22 23  1  0  0  0  0
 23 24  1  1  0  0  0
 23 25  1  0  0  0  0
 25 26  1  1  0  0  0
 25 27  1  0  0  0  0
 27 28  1  6  0  0  0
 27 29  1  0  0  0  0
 29 30  1  1  0  0  0
 31 32  1  0  0  0  0
 33 34  1  0  0  0  0
 33 38  1  0  0  0  0
 33 39  1  1  0  0  0
 34 35  1  0  0  0  0
 35 36  1  0  0  0  0
 35 40  1  6  0  0  0
 36 24  1  1  0  0  0
 36 37  1  0  0  0  0
 37 38  1  0  0  0  0
 37 41  1  6  0  0  0
 38 42  1  1  0  0  0
M  CHG  6  14   1  20   1  26   1  32   1  39   1  40   1
M  END
>  <CHROM.1>
54.97001357,-95.11738336,-9.27452549,-57.86261823,-99.44063573,-80.19707136
120.38338049,-164.20340121,-68.75170546,-54.17990561,-65.07974774,-34.18462089
82.52293722,-73.89902858,172.23753438,59.71862005,-171.70625088,-63.74476171
167.97446985,-82.95437246,58.44256097,91.95494780,8.70323352,-0.82124067
-0.86466768,1.83429038,-0.62149486,-2.43812070

>  <Name>


>  <RI>
0

>  <Rbt.Current_Directory>
/home/itssahil/PROJECTS/Mol_Feturizer/New_Systems/rnas/1qd3

>  <Rbt.Executable>
rbdock ($Id: //depot/dev/client3/rdock/2013.1/src/exe/rbdock.cxx#4 $)

>  <Rbt.Library>
libRbt.so (2013.1, Build901 2013/11/27)

>  <Rbt.Parameter_File>
/export/apps/rDock/src/rDock_2013.1_src/data/scripts/dock_solv.prm

>  <Rbt.Receptor>
prm/pocket_docking_4.prm

>  <SCORE>
-49.6206

>  <SCORE.INTER>
-53.1807

>  <SCORE.INTER.CONST>
1

>  <SCORE.INTER.POLAR>
-7.68736

>  <SCORE.INTER.ROT>
9

>  <SCORE.INTER.SOLV>
34.4371

>  <SCORE.INTER.VDW>
-30.9083

>  <SCORE.INTER.norm>
-1.26621

>  <SCORE.INTRA>
2.22072

>  <SCORE.INTRA.DIHEDRAL>
-2.56333

>  <SCORE.INTRA.DIHEDRAL.0>
40.6252

>  <SCORE.INTRA.POLAR>
0.413286

>  <SCORE.INTRA.POLAR.0>
-1.20161

>  <SCORE.INTRA.REPUL>
-0.115675

>  <SCORE.INTRA.REPUL.0>
0.115675

>  <SCORE.INTRA.SOLV>
-0.676756

>  <SCORE.INTRA.SOLV.lig_0>
-154.895

>  <SCORE.INTRA.VDW>
3.01396

>  <SCORE.INTRA.VDW.0>
2.2925

>  <SCORE.INTRA.norm>
0.0528742

>  <SCORE.RESTR>
1.33935

>  <SCORE.RESTR.CAVITY>
1.33935

>  <SCORE.RESTR.norm>
0.0318892

>  <SCORE.SYSTEM>
0

>  <SCORE.SYSTEM.CONST>
0

>  <SCORE.SYSTEM.DIHEDRAL>
0

>  <SCORE.SYSTEM.SOLV>
0

>  <SCORE.SYSTEM.norm>
0

>  <SCORE.heavy>
42

>  <SCORE.norm>
-1.18144

>  <RMSD>
4.769

$$$$

 OpenBabel11021811413D
libRbt.so/2013.1/901 2013/11/27
 42 45  0  0  0  0  0  0  0  0999 V2000
    8.0292   -5.8888   -2.5182 O   0  0  0  0  0  0  0  0  0  0  0  0
    9.3151   -6.3019   -2.0785 C   0  0  0  0  0  0  0  0  0  0  0  0
    9.5548   -5.8140   -0.6492 C   0  0  1  0  0  0  0  0  0  0  0  0
    9.5490   -4.3715   -0.5789 O   0  0  0  0  0  0  0  0  0  0  0  0
    8.4933   -6.2797    0.3334 C   0  0  2  0  0  0  0  0  0  0  0  0
    8.6989   -5.2792    1.4584 C   0  0  1  0  0  0  0  0  0  0  0  0
    9.8489   -5.6378    2.2166 O   0  0  0  0  0  0  0  0  0  0  0  0
    8.9667   -3.9707    0.6873 C   0  0  2  0  0  0  0  0  0  0  0  0
    5.7948   -9.7763    1.2118 C   0  0  2  0  0  0  0  0  0  0  0  0
    6.9735   -9.2271    0.6032 O   0  0  0  0  0  0  0  0  0  0  0  0
    7.5766   -8.2088    1.4218 C   0  0  2  0  0  0  0  0  0  0  0  0
    8.7225   -7.6382    0.7564 O   0  0  0  0  0  0  0  0  0  0  0  0
    7.9841   -8.7827    2.7897 C   0  0  2  0  0  0  0  0  0  0  0  0
    9.1954   -9.5739    2.6758 N   0  3  0  0  0  0  0  0  0  0  0  0
    6.8693   -9.5995    3.4536 C   0  0  1  0  0  0  0  0  0  0  0  0
    5.9116   -8.7179    4.0178 O   0  0  0  0  0  0  0  0  0  0  0  0
    6.1796  -10.5422    2.4711 C   0  0  2  0  0  0  0  0  0  0  0  0
    7.0475  -11.6208    2.1424 O   0  0  0  0  0  0  0  0  0  0  0  0
    5.0545  -10.6808    0.2307 C   0  0  0  0  0  0  0  0  0  0  0  0
    3.6242  -10.6210    0.4667 N   0  3  0  0  0  0  0  0  0  0  0  0
    8.3529    2.3989    2.0754 C   0  0  1  0  0  0  0  0  0  0  0  0
    9.1484    1.2158    2.2980 O   0  0  0  0  0  0  0  0  0  0  0  0
    8.3566    0.0202    2.4856 C   0  0  2  0  0  0  0  0  0  0  0  0
    7.6248   -0.3404    1.2881 O   0  0  0  0  0  0  0  0  0  0  0  0
    7.4125    0.1797    3.6835 C   0  0  2  0  0  0  0  0  0  0  0  0
    6.4821   -0.9328    3.7325 N   0  3  0  0  0  0  0  0  0  0  0  0
    6.6288    1.4857    3.6153 C   0  0  1  0  0  0  0  0  0  0  0  0
    5.9535    1.7026    4.8446 O   0  0  0  0  0  0  0  0  0  0  0  0
    7.4991    2.6920    3.2982 C   0  0  2  0  0  0  0  0  0  0  0  0
    6.6908    3.8359    3.0639 O   0  0  0  0  0  0  0  0  0  0  0  0
    9.2613    3.6033    1.8453 C   0  0  0  0  0  0  0  0  0  0  0  0
    8.5667    4.6358    1.0981 N   0  3  0  0  0  0  0  0  0  0  0  0
    8.6474   -1.4120   -2.7001 C   0  0  2  0  0  0  0  0  0  0  0  0
    9.5066   -0.3792   -1.9979 C   0  0  0  0  0  0  0  0  0  0  0  0
    8.7878    0.1709   -0.7799 C   0  0  1  0  0  0  0  0  0  0  0  0
    8.4758   -0.9081    0.2580 C   0  0  2  0  0  0  0  0  0  0  0  0
    7.7733   -2.1197   -0.3973 C   0  0  1  0  0  0  0  0  0  0  0  0
    8.3153   -2.5646   -1.7621 C   0  0  1  0  0  0  0  0  0  0  0  0
    9.3538   -1.9171   -3.8619 N   0  3  0  0  0  0  0  0  0  0  0  0
    9.5929    1.2246   -0.1935 N   0  3  0  0  0  0  0  0  0  0  0  0
    7.7133   -3.2514    0.5053 O   0  0  0  0  0  0  0  0  0  0  0  0
    7.3835   -3.4402   -2.3884 O   0  0  0  0  0  0  0  0  0  0  0  0
  1  2  1  0  0  0  0
  3  2  1  6  0  0  0
  3  4  1  0  0  0  0
  3  5  1  0  0  0  0
  4  8  1  0  0  0  0
  5  6  1  0  0  0  0
  5 12  1  1  0  0  0
  6  7  1  6  0  0  0
  6  8  1  0  0  0  0
  8 41  1  6  0  0  0
  9 10  1  0  0  0  0
  9 17  1  0  0  0  0
  9 19  1  6  0  0  0
 10 11  1  0  0  0  0
 11 12  1  6  0  0  0
 11 13  1  0  0  0  0
 13 14  1  6  0  0  0
 13 15  1  0  0  0  0
 15 16  1  6  0  0  0
 15 17  1  0  0  0  0
 17 18  1  6  0  0  0
 19 20  1  0  0  0  0
 21 22  1  0  0  0  0
 21 29  1  0  0  0  0
 21 31  1  1  0  0  0
 22 23  1  0  0  0  0
 23 24  1  6  0  0  0
 23 25  1  0  0  0  0
 25 26  1  6  0  0  0
 25 27  1  0  0  0  0
 27 28  1  1  0  0  0
 27 29  1  0  0  0  0
 29 30  1  6  0  0  0
 31 32  1  0  0  0  0
 33 34  1  0  0  0  0
 33 38  1  0  0  0  0
 33 39  1  6  0  0  0
 34 35  1  0  0  0  0
 35 36  1  0  0  0  0
 35 40  1  1  0  0  0
 36 24  1  1  0  0  0
 36 37  1  0  0  0  0
 37 38  1  0  0  0  0
 37 41  1  1  0  0  0
 38 42  1  6  0  0  0
M  CHG  6  14   1  20   1  26   1  32   1  39   1  40   1
M  END
>  <CHROM.1>
-49.01811529,-62.69290953,-165.98140813,-169.76592496,-53.03802745,-147.48163409
110.25225099,-75.86383106,-60.04441908,-63.24427721,148.49938302,156.41045952
74.03236992,-100.32231506,-159.40371168,168.18908119,60.12932240,-162.48226111
145.80074251,-115.99066712,-75.25362511,-60.17744980,7.85827585,-3.63831519
0.97979200,-1.84946941,1.18530727,0.28193570

>  <Name>


>  <RI>
0

>  <Rbt.Current_Directory>
/home/itssahil/PROJECTS/Mol_Feturizer/New_Systems/rnas/1qd3

>  <Rbt.Executable>
rbdock ($Id: //depot/dev/client3/rdock/2013.1/src/exe/rbdock.cxx#4 $)

>  <Rbt.Library>
libRbt.so (2013.1, Build901 2013/11/27)

>  <Rbt.Parameter_File>
/export/apps/rDock/src/rDock_2013.1_src/data/scripts/dock_solv.prm

>  <Rbt.Receptor>
prm/pocket_docking_7.prm

>  <SCORE>
-62.2778

>  <SCORE.INTER>
-52.3347

>  <SCORE.INTER.CONST>
1

>  <SCORE.INTER.POLAR>
-9.1427

>  <SCORE.INTER.ROT>
9

>  <SCORE.INTER.SOLV>
44.8303

>  <SCORE.INTER.VDW>
-28.9576

>  <SCORE.INTER.norm>
-1.24606

>  <SCORE.INTRA>
-9.95569

>  <SCORE.INTRA.DIHEDRAL>
-8.8543

>  <SCORE.INTRA.DIHEDRAL.0>
40.6252

>  <SCORE.INTRA.POLAR>
0.0296876

>  <SCORE.INTRA.POLAR.0>
-1.20161

>  <SCORE.INTRA.REPUL>
-0.106476

>  <SCORE.INTRA.REPUL.0>
0.115675

>  <SCORE.INTRA.SOLV>
-4.86111

>  <SCORE.INTRA.SOLV.lig_0>
-154.895

>  <SCORE.INTRA.VDW>
-2.66655

>  <SCORE.INTRA.VDW.0>
2.2925

>  <SCORE.INTRA.norm>
-0.23704

>  <SCORE.RESTR>
0.01259

>  <SCORE.RESTR.CAVITY>
0.01259

>  <SCORE.RESTR.norm>
0.000299761

>  <SCORE.SYSTEM>
0

>  <SCORE.SYSTEM.CONST>
0

>  <SCORE.SYSTEM.DIHEDRAL>
0

>  <SCORE.SYSTEM.SOLV>
0

>  <SCORE.SYSTEM.norm>
0

>  <SCORE.heavy>
42

>  <SCORE.norm>
-1.4828

>  <RMSD>
4.791

$$$$

 OpenBabel11021811413D
libRbt.so/2013.1/901 2013/11/27
 42 45  0  0  0  0  0  0  0  0999 V2000
    5.6899   -1.4599   -2.5893 O   0  0  0  0  0  0  0  0  0  0  0  0
    6.8906   -1.4461   -3.3481 C   0  0  0  0  0  0  0  0  0  0  0  0
    8.0581   -1.0106   -2.4617 C   0  0  1  0  0  0  0  0  0  0  0  0
    7.9591    0.3871   -2.1121 O   0  0  0  0  0  0  0  0  0  0  0  0
    8.1275   -1.7623   -1.1428 C   0  0  2  0  0  0  0  0  0  0  0  0
    8.9948   -0.8159   -0.3297 C   0  0  1  0  0  0  0  0  0  0  0  0
   10.3568   -0.9593   -0.7171 O   0  0  0  0  0  0  0  0  0  0  0  0
    8.4684    0.5665   -0.7663 C   0  0  2  0  0  0  0  0  0  0  0  0
    6.9874   -5.0125   -3.8536 C   0  0  2  0  0  0  0  0  0  0  0  0
    7.9299   -4.0952   -3.2777 O   0  0  0  0  0  0  0  0  0  0  0  0
    7.8123   -4.0325   -1.8449 C   0  0  2  0  0  0  0  0  0  0  0  0
    8.7315   -3.0608   -1.3043 O   0  0  0  0  0  0  0  0  0  0  0  0
    8.0662   -5.4144   -1.2183 C   0  0  2  0  0  0  0  0  0  0  0  0
    9.4847   -5.7212   -1.2060 N   0  3  0  0  0  0  0  0  0  0  0  0
    7.2796   -6.5376   -1.9042 C   0  0  1  0  0  0  0  0  0  0  0  0
    5.9292   -6.4992   -1.4709 O   0  0  0  0  0  0  0  0  0  0  0  0
    7.3310   -6.4337   -3.4261 C   0  0  2  0  0  0  0  0  0  0  0  0
    8.6281   -6.7856   -3.8932 O   0  0  0  0  0  0  0  0  0  0  0  0
    6.9783   -4.8900   -5.3747 C   0  0  0  0  0  0  0  0  0  0  0  0
    5.6842   -5.2745   -5.9062 N   0  3  0  0  0  0  0  0  0  0  0  0
   10.6692    2.5802    0.2860 C   0  0  1  0  0  0  0  0  0  0  0  0
   10.4072    2.2232    1.6593 O   0  0  0  0  0  0  0  0  0  0  0  0
    9.6355    3.2170    2.3722 C   0  0  2  0  0  0  0  0  0  0  0  0
    8.2930    3.3456    1.8422 O   0  0  0  0  0  0  0  0  0  0  0  0
   10.3617    4.5676    2.3719 C   0  0  2  0  0  0  0  0  0  0  0  0
    9.4893    5.5994    2.9011 N   0  3  0  0  0  0  0  0  0  0  0  0
   10.8155    4.9649    0.9716 C   0  0  1  0  0  0  0  0  0  0  0  0
   11.6790    6.0884    1.0497 O   0  0  0  0  0  0  0  0  0  0  0  0
   11.5175    3.8400    0.2266 C   0  0  2  0  0  0  0  0  0  0  0  0
   11.7445    4.2099   -1.1256 O   0  0  0  0  0  0  0  0  0  0  0  0
   11.4484    1.4642   -0.4042 C   0  0  0  0  0  0  0  0  0  0  0  0
   11.2235    1.4910   -1.8378 N   0  3  0  0  0  0  0  0  0  0  0  0
    7.3725   -0.3619    3.7147 C   0  0  2  0  0  0  0  0  0  0  0  0
    6.7930    0.9029    4.3168 C   0  0  0  0  0  0  0  0  0  0  0  0
    7.5264    2.1245    3.7945 C   0  0  1  0  0  0  0  0  0  0  0  0
    7.4115    2.2774    2.2772 C   0  0  2  0  0  0  0  0  0  0  0  0
    7.7850    0.9603    1.5585 C   0  0  1  0  0  0  0  0  0  0  0  0
    7.2643   -0.3346    2.1961 C   0  0  1  0  0  0  0  0  0  0  0  0
    6.6590   -1.5133    4.2336 N   0  3  0  0  0  0  0  0  0  0  0  0
    7.0152    3.3037    4.4657 N   0  3  0  0  0  0  0  0  0  0  0  0
    7.4273    1.0006    0.1551 O   0  0  0  0  0  0  0  0  0  0  0  0
    7.9519   -1.4532    1.6456 O   0  0  0  0  0  0  0  0  0  0  0  0
  1  2  1  0  0  0  0
  3  2  1  1  0  0  0
  3  4  1  0  0  0  0
  3  5  1  0  0  0  0
  4  8  1  0  0  0  0
  5  6  1  0  0  0  0
  5 12  1  6  0  0  0
  6  7  1  6  0  0  0
  6  8  1  0  0  0  0
  8 41  1  1  0  0  0
  9 10  1  0  0  0  0
  9 17  1  0  0  0  0
  9 19  1  6  0  0  0
 10 11  1  0  0  0  0
 11 12  1  1  0  0  0
 11 13  1  0  0  0  0
 13 14  1  6  0  0  0
 13 15  1  0  0  0  0
 15 16  1  1  0  0  0
 15 17  1  0  0  0  0
 17 18  1  1  0  0  0
 19 20  1  0  0  0  0
 21 22  1  0  0  0  0
 21 29  1  0  0  0  0
 21 31  1  1  0  0  0
 22 23  1  0  0  0  0
 23 24  1  6  0  0  0
 23 25  1  0  0  0  0
 25 26  1  6  0  0  0
 25 27  1  0  0  0  0
 27 28  1  1  0  0  0
 27 29  1  0  0  0  0
 29 30  1  6  0  0  0
 31 32  1  0  0  0  0
 33 34  1  0  0  0  0
 33 38  1  0  0  0  0
 33 39  1  1  0  0  0
 34 35  1  0  0  0  0
 35 36  1  0  0  0  0
 35 40  1  1  0  0  0
 36 24  1  6  0  0  0
 36 37  1  0  0  0  0
 37 38  1  0  0  0  0
 37 41  1  6  0  0  0
 38 42  1  6  0  0  0
M  CHG  6  14   1  20   1  26   1  32   1  39   1  40   1
M  END
>  <CHROM.1>
91.33279145,-69.92352490,-79.17868083,46.54779619,168.81277299,-152.62121505
93.40190787,-177.22627665,-63.91472797,-175.02628621,100.36597663,154.83505949
77.88968988,49.38008118,-72.09545142,74.94282775,-163.88258462,-79.99572008
61.95222581,20.06241942,132.09678102,72.12029196,8.47527536,-0.48056283,-0.24888949
-1.95390604,0.94332968,0.83856582

>  <Name>


>  <RI>
0

>  <Rbt.Current_Directory>
/home/itssahil/PROJECTS/Mol_Feturizer/New_Systems/rnas/1qd3

>  <Rbt.Executable>
rbdock ($Id: //depot/dev/client3/rdock/2013.1/src/exe/rbdock.cxx#4 $)

>  <Rbt.Library>
libRbt.so (2013.1, Build901 2013/11/27)

>  <Rbt.Parameter_File>
/export/apps/rDock/src/rDock_2013.1_src/data/scripts/dock_solv.prm

>  <Rbt.Receptor>
prm/pocket_docking_2.prm

>  <SCORE>
-12.2641

>  <SCORE.INTER>
-19.2616

>  <SCORE.INTER.CONST>
1

>  <SCORE.INTER.POLAR>
-6.46756

>  <SCORE.INTER.ROT>
9

>  <SCORE.INTER.SOLV>
46.7264

>  <SCORE.INTER.VDW>
-16.458

>  <SCORE.INTER.norm>
-0.45861

>  <SCORE.INTRA>
0.121633

>  <SCORE.INTRA.DIHEDRAL>
-4.15058

>  <SCORE.INTRA.DIHEDRAL.0>
40.6252

>  <SCORE.INTRA.POLAR>
1.04435

>  <SCORE.INTRA.POLAR.0>
-1.20161

>  <SCORE.INTRA.REPUL>
-0.115675

>  <SCORE.INTRA.REPUL.0>
0.115675

>  <SCORE.INTRA.SOLV>
-3.52067

>  <SCORE.INTRA.SOLV.lig_0>
-154.895

>  <SCORE.INTRA.VDW>
0.984847

>  <SCORE.INTRA.VDW.0>
2.2925

>  <SCORE.INTRA.norm>
0.00289601

>  <SCORE.RESTR>
6.87591

>  <SCORE.RESTR.CAVITY>
6.87591

>  <SCORE.RESTR.norm>
0.163712

>  <SCORE.SYSTEM>
0

>  <SCORE.SYSTEM.CONST>
0

>  <SCORE.SYSTEM.DIHEDRAL>
0

>  <SCORE.SYSTEM.SOLV>
0

>  <SCORE.SYSTEM.norm>
0

>  <SCORE.heavy>
42

>  <SCORE.norm>
-0.292002

>  <RMSD>
4.814

$$$$

 OpenBabel11021811413D
libRbt.so/2013.1/901 2013/11/27
 42 45  0  0  0  0  0  0  0  0999 V2000
   10.3264   -6.7411   -2.5662 O   0  0  0  0  0  0  0  0  0  0  0  0
    9.1991   -6.7284   -1.7019 C   0  0  0  0  0  0  0  0  0  0  0  0
    9.5409   -5.9740   -0.4164 C   0  0  1  0  0  0  0  0  0  0  0  0
    9.4889   -4.5447   -0.6167 O   0  0  0  0  0  0  0  0  0  0  0  0
    8.5836   -6.2660    0.7272 C   0  0  2  0  0  0  0  0  0  0  0  0
    8.8472   -5.0667    1.6222 C   0  0  1  0  0  0  0  0  0  0  0  0
   10.0693   -5.2526    2.3278 O   0  0  0  0  0  0  0  0  0  0  0  0
    9.0015   -3.9228    0.5992 C   0  0  2  0  0  0  0  0  0  0  0  0
    5.9329   -9.6320    1.0835 C   0  0  2  0  0  0  0  0  0  0  0  0
    7.1436   -8.9594    0.7053 O   0  0  0  0  0  0  0  0  0  0  0  0
    7.7158   -8.2248    1.8024 C   0  0  2  0  0  0  0  0  0  0  0  0
    8.8967   -7.5150    1.3743 O   0  0  0  0  0  0  0  0  0  0  0  0
    8.0533   -9.1679    2.9699 C   0  0  2  0  0  0  0  0  0  0  0  0
    9.2620   -9.9211    2.6904 N   0  3  0  0  0  0  0  0  0  0  0  0
    6.9016  -10.1143    3.3286 C   0  0  1  0  0  0  0  0  0  0  0  0
    5.9257   -9.4061    4.0763 O   0  0  0  0  0  0  0  0  0  0  0  0
    6.2513  -10.7285    2.0919 C   0  0  2  0  0  0  0  0  0  0  0  0
    7.1246  -11.6898    1.5108 O   0  0  0  0  0  0  0  0  0  0  0  0
    5.2323  -10.2089   -0.1433 C   0  0  0  0  0  0  0  0  0  0  0  0
    3.9655  -10.8084    0.2319 N   0  3  0  0  0  0  0  0  0  0  0  0
    8.6718    2.2467    1.6885 C   0  0  1  0  0  0  0  0  0  0  0  0
    9.2750    0.9435    1.8286 O   0  0  0  0  0  0  0  0  0  0  0  0
    8.3115   -0.1349    1.8454 C   0  0  2  0  0  0  0  0  0  0  0  0
    7.6212   -0.2667    0.5782 O   0  0  0  0  0  0  0  0  0  0  0  0
    7.3183    0.0458    2.9998 C   0  0  2  0  0  0  0  0  0  0  0  0
    6.2392   -0.9170    2.8802 N   0  3  0  0  0  0  0  0  0  0  0  0
    6.7332    1.4534    3.0267 C   0  0  1  0  0  0  0  0  0  0  0  0
    6.0115    1.6480    4.2331 O   0  0  0  0  0  0  0  0  0  0  0  0
    7.7848    2.5433    2.8867 C   0  0  2  0  0  0  0  0  0  0  0  0
    7.1641    3.8109    2.7303 O   0  0  0  0  0  0  0  0  0  0  0  0
    9.7547    3.3207    1.6368 C   0  0  0  0  0  0  0  0  0  0  0  0
    9.2479    4.5324    1.0189 N   0  3  0  0  0  0  0  0  0  0  0  0
    8.2622   -2.1273   -3.1937 C   0  0  2  0  0  0  0  0  0  0  0  0
    9.1589   -0.9665   -2.8109 C   0  0  0  0  0  0  0  0  0  0  0  0
    8.5526   -0.1829   -1.6615 C   0  0  1  0  0  0  0  0  0  0  0  0
    8.3786   -1.0280   -0.3987 C   0  0  2  0  0  0  0  0  0  0  0  0
    7.6477   -2.3531   -0.7159 C   0  0  1  0  0  0  0  0  0  0  0  0
    8.0602   -3.0650   -2.0110 C   0  0  1  0  0  0  0  0  0  0  0  0
    8.8606   -2.8553   -4.2963 N   0  3  0  0  0  0  0  0  0  0  0  0
    9.3830    0.9742   -1.3900 N   0  3  0  0  0  0  0  0  0  0  0  0
    7.7120   -3.2757    0.3992 O   0  0  0  0  0  0  0  0  0  0  0  0
    7.0946   -4.0569   -2.3443 O   0  0  0  0  0  0  0  0  0  0  0  0
  1  2  1  0  0  0  0
  3  2  1  6  0  0  0
  3  4  1  0  0  0  0
  3  5  1  0  0  0  0
  4  8  1  0  0  0  0
  5  6  1  0  0  0  0
  5 12  1  1  0  0  0
  6  7  1  6  0  0  0
  6  8  1  0  0  0  0
  8 41  1  6  0  0  0
  9 10  1  0  0  0  0
  9 17  1  0  0  0  0
  9 19  1  6  0  0  0
 10 11  1  0  0  0  0
 11 12  1  6  0  0  0
 11 13  1  0  0  0  0
 13 14  1  6  0  0  0
 13 15  1  0  0  0  0
 15 16  1  6  0  0  0
 15 17  1  0  0  0  0
 17 18  1  6  0  0  0
 19 20  1  0  0  0  0
 21 22  1  0  0  0  0
 21 29  1  0  0  0  0
 21 31  1  1  0  0  0
 22 23  1  0  0  0  0
 23 24  1  6  0  0  0
 23 25  1  0  0  0  0
 25 26  1  6  0  0  0
 25 27  1  0  0  0  0
 27 28  1  1  0  0  0
 27 29  1  0  0  0  0
 29 30  1  6  0  0  0
 31 32  1  0  0  0  0
 33 34  1  0  0  0  0
 33 38  1  0  0  0  0
 33 39  1  6  0  0  0
 34 35  1  0  0  0  0
 35 36  1  0  0  0  0
 35 40  1  1  0  0  0
 36 24  1  1  0  0  0
 36 37  1  0  0  0  0
 37 38  1  0  0  0  0
 37 41  1  1  0  0  0
 38 42  1  6  0  0  0
M  CHG  6  14   1  20   1  26   1  32   1  39   1  40   1
M  END
>  <CHROM.1>
-60.89261432,78.81496260,-143.73926773,-52.47637926,-51.94191414,-176.15048031
82.02940599,-87.99311305,-64.45083702,-68.37674552,148.71667924,158.95013430
82.61557654,-124.32658558,-167.53002945,173.96380528,74.79392035,171.53204029
-41.83590360,-176.52735233,-74.62086580,66.99764076,7.96206638,-3.83151373
0.72521746,-1.86153685,1.22250252,0.26341919

>  <Name>


>  <RI>
0

>  <Rbt.Current_Directory>
/home/itssahil/PROJECTS/Mol_Feturizer/New_Systems/rnas/1qd3

>  <Rbt.Executable>
rbdock ($Id: //depot/dev/client3/rdock/2013.1/src/exe/rbdock.cxx#4 $)

>  <Rbt.Library>
libRbt.so (2013.1, Build901 2013/11/27)

>  <Rbt.Parameter_File>
/export/apps/rDock/src/rDock_2013.1_src/data/scripts/dock_solv.prm

>  <Rbt.Receptor>
prm/pocket_docking_7.prm

>  <SCORE>
-59.0054

>  <SCORE.INTER>
-42.3468

>  <SCORE.INTER.CONST>
1

>  <SCORE.INTER.POLAR>
-7.96997

>  <SCORE.INTER.ROT>
9

>  <SCORE.INTER.SOLV>
42.1248

>  <SCORE.INTER.VDW>
-25.3062

>  <SCORE.INTER.norm>
-1.00826

>  <SCORE.INTRA>
-16.6586

>  <SCORE.INTRA.DIHEDRAL>
-11.7083

>  <SCORE.INTRA.DIHEDRAL.0>
40.6252

>  <SCORE.INTRA.POLAR>
0.249677

>  <SCORE.INTRA.POLAR.0>
-1.20161

>  <SCORE.INTRA.REPUL>
-0.115675

>  <SCORE.INTRA.REPUL.0>
0.115675

>  <SCORE.INTRA.SOLV>
-8.69652

>  <SCORE.INTRA.SOLV.lig_0>
-154.895

>  <SCORE.INTRA.VDW>
-6.72676

>  <SCORE.INTRA.VDW.0>
2.2925

>  <SCORE.INTRA.norm>
-0.396634

>  <SCORE.RESTR>
0

>  <SCORE.RESTR.CAVITY>
0

>  <SCORE.RESTR.norm>
0

>  <SCORE.SYSTEM>
0

>  <SCORE.SYSTEM.CONST>
0

>  <SCORE.SYSTEM.DIHEDRAL>
0

>  <SCORE.SYSTEM.SOLV>
0

>  <SCORE.SYSTEM.norm>
0

>  <SCORE.heavy>
42

>  <SCORE.norm>
-1.40489

>  <RMSD>
4.883

$$$$

 OpenBabel11021811413D
libRbt.so/2013.1/901 2013/11/27
 42 45  0  0  0  0  0  0  0  0999 V2000
    9.9844   -0.3360   -3.2227 O   0  0  0  0  0  0  0  0  0  0  0  0
    8.5993   -0.6212   -3.0893 C   0  0  0  0  0  0  0  0  0  0  0  0
    8.3768   -1.5661   -1.9077 C   0  0  1  0  0  0  0  0  0  0  0  0
    8.9494   -1.0327   -0.6939 O   0  0  0  0  0  0  0  0  0  0  0  0
    6.9091   -1.8111   -1.5991 C   0  0  2  0  0  0  0  0  0  0  0  0
    7.0072   -2.3174   -0.1698 C   0  0  1  0  0  0  0  0  0  0  0  0
    7.4441   -3.6720   -0.1684 O   0  0  0  0  0  0  0  0  0  0  0  0
    8.1059   -1.4118    0.4231 C   0  0  2  0  0  0  0  0  0  0  0  0
    8.2754   -5.8819   -2.6195 C   0  0  2  0  0  0  0  0  0  0  0  0
    7.2743   -4.9424   -2.1994 O   0  0  0  0  0  0  0  0  0  0  0  0
    7.3141   -3.7314   -2.9757 C   0  0  2  0  0  0  0  0  0  0  0  0
    6.3363   -2.7878   -2.4908 O   0  0  0  0  0  0  0  0  0  0  0  0
    7.0728   -4.0329   -4.4648 C   0  0  2  0  0  0  0  0  0  0  0  0
    5.6665   -4.2876   -4.7172 N   0  3  0  0  0  0  0  0  0  0  0  0
    7.9308   -5.1904   -4.9889 C   0  0  1  0  0  0  0  0  0  0  0  0
    9.2545   -4.7315   -5.2128 O   0  0  0  0  0  0  0  0  0  0  0  0
    7.9563   -6.3739   -4.0255 C   0  0  2  0  0  0  0  0  0  0  0  0
    6.6979   -7.0377   -4.0384 O   0  0  0  0  0  0  0  0  0  0  0  0
    8.3606   -7.0503   -1.6414 C   0  0  0  0  0  0  0  0  0  0  0  0
    9.4791   -7.9113   -1.9770 N   0  3  0  0  0  0  0  0  0  0  0  0
   13.0339    1.7216    1.2289 C   0  0  1  0  0  0  0  0  0  0  0  0
   11.9776    2.6965    1.3543 O   0  0  0  0  0  0  0  0  0  0  0  0
   10.7530    2.3024    0.6936 C   0  0  2  0  0  0  0  0  0  0  0  0
   10.1518    1.1384    1.3127 O   0  0  0  0  0  0  0  0  0  0  0  0
   10.9970    2.0690   -0.8023 C   0  0  2  0  0  0  0  0  0  0  0  0
    9.8206    1.4746   -1.4093 N   0  3  0  0  0  0  0  0  0  0  0  0
   12.1982    1.1618   -1.0441 C   0  0  1  0  0  0  0  0  0  0  0  0
   12.5290    1.1643   -2.4242 O   0  0  0  0  0  0  0  0  0  0  0  0
   13.4218    1.5567   -0.2314 C   0  0  2  0  0  0  0  0  0  0  0  0
   14.4365    0.5712   -0.3567 O   0  0  0  0  0  0  0  0  0  0  0  0
   14.2720    2.1927    1.9865 C   0  0  0  0  0  0  0  0  0  0  0  0
   14.7057    3.4917    1.5057 N   0  3  0  0  0  0  0  0  0  0  0  0
    7.5625    0.9201    4.6813 C   0  0  2  0  0  0  0  0  0  0  0  0
    8.2018    2.2566    4.3602 C   0  0  0  0  0  0  0  0  0  0  0  0
    9.3732    2.0718    3.4134 C   0  0  1  0  0  0  0  0  0  0  0  0
    8.9586    1.4594    2.0748 C   0  0  2  0  0  0  0  0  0  0  0  0
    8.1109    0.1840    2.2886 C   0  0  1  0  0  0  0  0  0  0  0  0
    7.0672    0.2406    3.4118 C   0  0  1  0  0  0  0  0  0  0  0  0
    6.4511    1.1236    5.5908 N   0  3  0  0  0  0  0  0  0  0  0  0
   10.0207    3.3529    3.2091 N   0  3  0  0  0  0  0  0  0  0  0  0
    7.4890   -0.2537    1.0555 O   0  0  0  0  0  0  0  0  0  0  0  0
    6.6151   -1.0747    3.7163 O   0  0  0  0  0  0  0  0  0  0  0  0
  1  2  1  0  0  0  0
  3  2  1  6  0  0  0
  3  4  1  0  0  0  0
  3  5  1  0  0  0  0
  4  8  1  0  0  0  0
  5  6  1  0  0  0  0
  5 12  1  6  0  0  0
  6  7  1  6  0  0  0
  6  8  1  0  0  0  0
  8 41  1  6  0  0  0
  9 10  1  0  0  0  0
  9 17  1  0  0  0  0
  9 19  1  1  0  0  0
 10 11  1  0  0  0  0
 11 12  1  1  0  0  0
 11 13  1  0  0  0  0
 13 14  1  1  0  0  0
 13 15  1  0  0  0  0
 15 16  1  1  0  0  0
 15 17  1  0  0  0  0
 17 18  1  1  0  0  0
 19 20  1  0  0  0  0
 21 22  1  0  0  0  0
 21 29  1  0  0  0  0
 21 31  1  1  0  0  0
 22 23  1  0  0  0  0
 23 24  1  1  0  0  0
 23 25  1  0  0  0  0
 25 26  1  1  0  0  0
 25 27  1  0  0  0  0
 27 28  1  6  0  0  0
 27 29  1  0  0  0  0
 29 30  1  1  0  0  0
 31 32  1  0  0  0  0
 33 34  1  0  0  0  0
 33 38  1  0  0  0  0
 33 39  1  1  0  0  0
 34 35  1  0  0  0  0
 35 36  1  0  0  0  0
 35 40  1  6  0  0  0
 36 24  1  6  0  0  0
 36 37  1  0  0  0  0
 37 38  1  0  0  0  0
 37 41  1  6  0  0  0
 38 42  1  1  0  0  0
M  CHG  6  14   1  20   1  26   1  32   1  39   1  40   1
M  END
>  <CHROM.1>
56.22513733,54.83220210,28.18752497,59.77341788,-101.50971313,-173.05089170
97.55159138,41.55454997,-64.04999284,-173.64983320,-75.59645363,-57.01699235
107.04319989,-77.66155763,91.90097285,-63.79685353,-177.18340302,-159.65752957
-124.48197369,64.95176455,104.22260302,72.71632780,9.18393559,-1.08716954
-0.41131247,-1.98680952,0.56612123,0.87673084

>  <Name>


>  <RI>
0

>  <Rbt.Current_Directory>
/home/itssahil/PROJECTS/Mol_Feturizer/New_Systems/rnas/1qd3

>  <Rbt.Executable>
rbdock ($Id: //depot/dev/client3/rdock/2013.1/src/exe/rbdock.cxx#4 $)

>  <Rbt.Library>
libRbt.so (2013.1, Build901 2013/11/27)

>  <Rbt.Parameter_File>
/export/apps/rDock/src/rDock_2013.1_src/data/scripts/dock_solv.prm

>  <Rbt.Receptor>
prm/pocket_docking_5.prm

>  <SCORE>
-67.2213

>  <SCORE.INTER>
-52.0655

>  <SCORE.INTER.CONST>
1

>  <SCORE.INTER.POLAR>
-7.25629

>  <SCORE.INTER.ROT>
9

>  <SCORE.INTER.SOLV>
39.5215

>  <SCORE.INTER.VDW>
-33.2965

>  <SCORE.INTER.norm>
-1.23966

>  <SCORE.INTRA>
-15.9778

>  <SCORE.INTRA.DIHEDRAL>
-2.88953

>  <SCORE.INTRA.DIHEDRAL.0>
40.6252

>  <SCORE.INTRA.POLAR>
-3.00018

>  <SCORE.INTRA.POLAR.0>
-1.20161

>  <SCORE.INTRA.REPUL>
-0.0599063

>  <SCORE.INTRA.REPUL.0>
0.115675

>  <SCORE.INTRA.SOLV>
-1.33594

>  <SCORE.INTRA.SOLV.lig_0>
-154.895

>  <SCORE.INTRA.VDW>
-3.36496

>  <SCORE.INTRA.VDW.0>
2.2925

>  <SCORE.INTRA.norm>
-0.380425

>  <SCORE.RESTR>
0.822018

>  <SCORE.RESTR.CAVITY>
0.822018

>  <SCORE.RESTR.norm>
0.0195718

>  <SCORE.SYSTEM>
0

>  <SCORE.SYSTEM.CONST>
0

>  <SCORE.SYSTEM.DIHEDRAL>
0

>  <SCORE.SYSTEM.SOLV>
0

>  <SCORE.SYSTEM.norm>
0

>  <SCORE.heavy>
42

>  <SCORE.norm>
-1.60051

>  <RMSD>
5.029

$$$$

 OpenBabel11021811413D
libRbt.so/2013.1/901 2013/11/27
 42 45  0  0  0  0  0  0  0  0999 V2000
    8.9349   -0.1098   -3.4402 O   0  0  0  0  0  0  0  0  0  0  0  0
    7.7019   -0.6844   -3.0311 C   0  0  0  0  0  0  0  0  0  0  0  0
    7.9089   -1.4985   -1.7533 C   0  0  1  0  0  0  0  0  0  0  0  0
    8.6852   -0.7635   -0.7824 O   0  0  0  0  0  0  0  0  0  0  0  0
    6.6103   -1.8632   -1.0533 C   0  0  2  0  0  0  0  0  0  0  0  0
    7.1262   -2.1798    0.3404 C   0  0  1  0  0  0  0  0  0  0  0  0
    7.7303   -3.4685    0.3484 O   0  0  0  0  0  0  0  0  0  0  0  0
    8.2033   -1.0949    0.5445 C   0  0  2  0  0  0  0  0  0  0  0  0
    7.8307   -5.9535   -2.7520 C   0  0  2  0  0  0  0  0  0  0  0  0
    6.8829   -5.1546   -2.0275 O   0  0  0  0  0  0  0  0  0  0  0  0
    6.8935   -3.7826   -2.4612 C   0  0  2  0  0  0  0  0  0  0  0  0
    5.9736   -2.9968   -1.6751 O   0  0  0  0  0  0  0  0  0  0  0  0
    6.5401   -3.6826   -3.9550 C   0  0  2  0  0  0  0  0  0  0  0  0
    5.1141   -3.8589   -4.1596 N   0  3  0  0  0  0  0  0  0  0  0  0
    7.3331   -4.6642   -4.8259 C   0  0  1  0  0  0  0  0  0  0  0  0
    8.6471   -4.1657   -5.0202 O   0  0  0  0  0  0  0  0  0  0  0  0
    7.4015   -6.0589   -4.2098 C   0  0  2  0  0  0  0  0  0  0  0  0
    6.1312   -6.6932   -4.3018 O   0  0  0  0  0  0  0  0  0  0  0  0
    7.9601   -7.3376   -2.1223 C   0  0  0  0  0  0  0  0  0  0  0  0
    9.0376   -8.0803   -2.7486 N   0  3  0  0  0  0  0  0  0  0  0  0
   13.1920    1.9821    1.3772 C   0  0  1  0  0  0  0  0  0  0  0  0
   12.1289    2.9578    1.3618 O   0  0  0  0  0  0  0  0  0  0  0  0
   10.9677    2.5278    0.6149 C   0  0  2  0  0  0  0  0  0  0  0  0
   10.3136    1.3922    1.2332 O   0  0  0  0  0  0  0  0  0  0  0  0
   11.3432    2.2243   -0.8407 C   0  0  2  0  0  0  0  0  0  0  0  0
   10.2251    1.5971   -1.5204 N   0  3  0  0  0  0  0  0  0  0  0  0
   12.5609    1.3113   -0.9315 C   0  0  1  0  0  0  0  0  0  0  0  0
   13.0127    1.2494   -2.2754 O   0  0  0  0  0  0  0  0  0  0  0  0
   13.7077    1.7493   -0.0335 C   0  0  2  0  0  0  0  0  0  0  0  0
   14.7293    0.7630   -0.0211 O   0  0  0  0  0  0  0  0  0  0  0  0
   14.3582    2.4936    2.2181 C   0  0  0  0  0  0  0  0  0  0  0  0
   13.9826    2.5837    3.6172 N   0  3  0  0  0  0  0  0  0  0  0  0
    7.9468    1.3817    4.7684 C   0  0  2  0  0  0  0  0  0  0  0  0
    8.5927    2.6871    4.3480 C   0  0  0  0  0  0  0  0  0  0  0  0
    9.6952    2.4332    3.3367 C   0  0  1  0  0  0  0  0  0  0  0  0
    9.1803    1.7748    2.0559 C   0  0  2  0  0  0  0  0  0  0  0  0
    8.3207    0.5310    2.3801 C   0  0  1  0  0  0  0  0  0  0  0  0
    7.3544    0.6613    3.5648 C   0  0  1  0  0  0  0  0  0  0  0  0
    6.9021    1.6512    5.7379 N   0  3  0  0  0  0  0  0  0  0  0  0
   10.3558    3.6881    3.0346 N   0  3  0  0  0  0  0  0  0  0  0  0
    7.6099    0.0567    1.2102 O   0  0  0  0  0  0  0  0  0  0  0  0
    6.8946   -0.6283    3.9556 O   0  0  0  0  0  0  0  0  0  0  0  0
  1  2  1  0  0  0  0
  3  2  1  6  0  0  0
  3  4  1  0  0  0  0
  3  5  1  0  0  0  0
  4  8  1  0  0  0  0
  5  6  1  0  0  0  0
  5 12  1  6  0  0  0
  6  7  1  6  0  0  0
  6  8  1  0  0  0  0
  8 41  1  6  0  0  0
  9 10  1  0  0  0  0
  9 17  1  0  0  0  0
  9 19  1  1  0  0  0
 10 11  1  0  0  0  0
 11 12  1  1  0  0  0
 11 13  1  0  0  0  0
 13 14  1  1  0  0  0
 13 15  1  0  0  0  0
 15 16  1  1  0  0  0
 15 17  1  0  0  0  0
 17 18  1  1  0  0  0
 19 20  1  0  0  0  0
 21 22  1  0  0  0  0
 21 29  1  0  0  0  0
 21 31  1  1  0  0  0
 22 23  1  0  0  0  0
 23 24  1  1  0  0  0
 23 25  1  0  0  0  0
 25 26  1  1  0  0  0
 25 27  1  0  0  0  0
 27 28  1  6  0  0  0
 27 29  1  0  0  0  0
 29 30  1  1  0  0  0
 31 32  1  0  0  0  0
 33 34  1  0  0  0  0
 33 38  1  0  0  0  0
 33 39  1  1  0  0  0
 34 35  1  0  0  0  0
 35 36  1  0  0  0  0
 35 40  1  6  0  0  0
 36 24  1  6  0  0  0
 36 37  1  0  0  0  0
 37 38  1  0  0  0  0
 37 41  1  6  0  0  0
 38 42  1  1  0  0  0
M  CHG  6  14   1  20   1  26   1  32   1  39   1  40   1
M  END
>  <CHROM.1>
-176.27419378,46.62708413,20.43774958,-77.26440882,-114.02247948,-172.73334203
124.43326239,173.92122111,56.59047384,175.52644588,-178.34925888,66.98421405
97.42410395,-72.77952365,-33.10191659,178.42875299,65.77999465,-49.39988384
76.28760327,-70.43784158,100.73673881,78.99895320,9.10076205,-0.90436094
-0.25194711,-2.04500128,0.51954903,0.90695958

>  <Name>


>  <RI>
0

>  <Rbt.Current_Directory>
/home/itssahil/PROJECTS/Mol_Feturizer/New_Systems/rnas/1qd3

>  <Rbt.Executable>
rbdock ($Id: //depot/dev/client3/rdock/2013.1/src/exe/rbdock.cxx#4 $)

>  <Rbt.Library>
libRbt.so (2013.1, Build901 2013/11/27)

>  <Rbt.Parameter_File>
/export/apps/rDock/src/rDock_2013.1_src/data/scripts/dock_solv.prm

>  <Rbt.Receptor>
prm/pocket_docking_8.prm

>  <SCORE>
-72.5059

>  <SCORE.INTER>
-59.9803

>  <SCORE.INTER.CONST>
1

>  <SCORE.INTER.POLAR>
-8.64983

>  <SCORE.INTER.ROT>
9

>  <SCORE.INTER.SOLV>
41.7642

>  <SCORE.INTER.VDW>
-34.6755

>  <SCORE.INTER.norm>
-1.4281

>  <SCORE.INTRA>
-12.5256

>  <SCORE.INTRA.DIHEDRAL>
-1.38877

>  <SCORE.INTRA.DIHEDRAL.0>
40.6252

>  <SCORE.INTRA.POLAR>
-1.68237

>  <SCORE.INTRA.POLAR.0>
-1.20161

>  <SCORE.INTRA.REPUL>
-0.0891968

>  <SCORE.INTRA.REPUL.0>
0.115675

>  <SCORE.INTRA.SOLV>
-2.50165

>  <SCORE.INTRA.SOLV.lig_0>
-154.895

>  <SCORE.INTRA.VDW>
-4.41437

>  <SCORE.INTRA.VDW.0>
2.2925

>  <SCORE.INTRA.norm>
-0.298229

>  <SCORE.RESTR>
0

>  <SCORE.RESTR.CAVITY>
0

>  <SCORE.RESTR.norm>
0

>  <SCORE.SYSTEM>
0

>  <SCORE.SYSTEM.CONST>
0

>  <SCORE.SYSTEM.DIHEDRAL>
0

>  <SCORE.SYSTEM.SOLV>
0

>  <SCORE.SYSTEM.norm>
0

>  <SCORE.heavy>
42

>  <SCORE.norm>
-1.72633

>  <RMSD>
5.139

$$$$

 OpenBabel11021811413D
libRbt.so/2013.1/901 2013/11/27
 42 45  0  0  0  0  0  0  0  0999 V2000
    5.5593   -4.1125   -3.0316 O   0  0  0  0  0  0  0  0  0  0  0  0
    5.1854   -4.8730   -4.1715 C   0  0  0  0  0  0  0  0  0  0  0  0
    6.4349   -5.2906   -4.9479 C   0  0  1  0  0  0  0  0  0  0  0  0
    7.2783   -4.1542   -5.2358 O   0  0  0  0  0  0  0  0  0  0  0  0
    7.3126   -6.2758   -4.1938 C   0  0  2  0  0  0  0  0  0  0  0  0
    8.6268   -6.1007   -4.9363 C   0  0  1  0  0  0  0  0  0  0  0  0
    8.5714   -6.7892   -6.1808 O   0  0  0  0  0  0  0  0  0  0  0  0
    8.6639   -4.5784   -5.1807 C   0  0  2  0  0  0  0  0  0  0  0  0
    5.9687   -8.6078   -7.7061 C   0  0  2  0  0  0  0  0  0  0  0  0
    6.7400   -8.4493   -6.5055 O   0  0  0  0  0  0  0  0  0  0  0  0
    5.9816   -7.8167   -5.4589 C   0  0  2  0  0  0  0  0  0  0  0  0
    6.8019   -7.6201   -4.2884 O   0  0  0  0  0  0  0  0  0  0  0  0
    4.7398   -8.6534   -5.1065 C   0  0  2  0  0  0  0  0  0  0  0  0
    5.1064   -9.8064   -4.3049 N   0  3  0  0  0  0  0  0  0  0  0  0
    3.9405   -9.0892   -6.3402 C   0  0  1  0  0  0  0  0  0  0  0  0
    3.1698   -7.9955   -6.8124 O   0  0  0  0  0  0  0  0  0  0  0  0
    4.8406   -9.6017   -7.4612 C   0  0  2  0  0  0  0  0  0  0  0  0
    5.3753  -10.8731   -7.1116 O   0  0  0  0  0  0  0  0  0  0  0  0
    6.8567   -9.0670   -8.8591 C   0  0  0  0  0  0  0  0  0  0  0  0
    7.7542  -10.1187   -8.4195 N   0  3  0  0  0  0  0  0  0  0  0  0
   10.9330    0.8832   -1.1271 C   0  0  1  0  0  0  0  0  0  0  0  0
   11.4814   -0.4067   -0.7842 O   0  0  0  0  0  0  0  0  0  0  0  0
   10.6888   -1.5139   -1.2713 C   0  0  2  0  0  0  0  0  0  0  0  0
   10.6754   -1.5772   -2.7189 O   0  0  0  0  0  0  0  0  0  0  0  0
    9.2642   -1.4481   -0.7075 C   0  0  2  0  0  0  0  0  0  0  0  0
    8.4257   -2.4341   -1.3636 N   0  3  0  0  0  0  0  0  0  0  0  0
    8.6478   -0.0655   -0.8895 C   0  0  1  0  0  0  0  0  0  0  0  0
    7.4380    0.0193   -0.1523 O   0  0  0  0  0  0  0  0  0  0  0  0
    9.5747    1.0648   -0.4694 C   0  0  2  0  0  0  0  0  0  0  0  0
    9.0207    2.3197   -0.8366 O   0  0  0  0  0  0  0  0  0  0  0  0
   11.8475    1.9923   -0.6151 C   0  0  0  0  0  0  0  0  0  0  0  0
   11.3764    3.2921   -1.0574 N   0  3  0  0  0  0  0  0  0  0  0  0
   12.8662   -3.7577   -5.6422 C   0  0  2  0  0  0  0  0  0  0  0  0
   13.5599   -3.4217   -4.3368 C   0  0  0  0  0  0  0  0  0  0  0  0
   12.8081   -2.3277   -3.6015 C   0  0  1  0  0  0  0  0  0  0  0  0
   11.3796   -2.7357   -3.2381 C   0  0  2  0  0  0  0  0  0  0  0  0
   10.6338   -3.2969   -4.4709 C   0  0  1  0  0  0  0  0  0  0  0  0
   11.4393   -4.2253   -5.3894 C   0  0  1  0  0  0  0  0  0  0  0  0
   13.6067   -4.8001   -6.3270 N   0  3  0  0  0  0  0  0  0  0  0  0
   13.5520   -1.9623   -2.4118 N   0  3  0  0  0  0  0  0  0  0  0  0
    9.3871   -3.9316   -4.0943 O   0  0  0  0  0  0  0  0  0  0  0  0
   10.7593   -4.3841   -6.6302 O   0  0  0  0  0  0  0  0  0  0  0  0
  1  2  1  0  0  0  0
  3  2  1  1  0  0  0
  3  4  1  0  0  0  0
  3  5  1  0  0  0  0
  4  8  1  0  0  0  0
  5  6  1  0  0  0  0
  5 12  1  6  0  0  0
  6  7  1  6  0  0  0
  6  8  1  0  0  0  0
  8 41  1  1  0  0  0
  9 10  1  0  0  0  0
  9 17  1  0  0  0  0
  9 19  1  6  0  0  0
 10 11  1  0  0  0  0
 11 12  1  1  0  0  0
 11 13  1  0  0  0  0
 13 14  1  6  0  0  0
 13 15  1  0  0  0  0
 15 16  1  6  0  0  0
 15 17  1  0  0  0  0
 17 18  1  1  0  0  0
 19 20  1  0  0  0  0
 21 22  1  0  0  0  0
 21 29  1  0  0  0  0
 21 31  1  1  0  0  0
 22 23  1  0  0  0  0
 23 24  1  6  0  0  0
 23 25  1  0  0  0  0
 25 26  1  6  0  0  0
 25 27  1  0  0  0  0
 27 28  1  1  0  0  0
 27 29  1  0  0  0  0
 29 30  1  6  0  0  0
 31 32  1  0  0  0  0
 33 34  1  0  0  0  0
 33 38  1  0  0  0  0
 33 39  1  1  0  0  0
 34 35  1  0  0  0  0
 35 36  1  0  0  0  0
 35 40  1  1  0  0  0
 36 24  1  6  0  0  0
 36 37  1  0  0  0  0
 37 38  1  0  0  0  0
 37 41  1  1  0  0  0
 38 42  1  6  0  0  0
M  CHG  6  14   1  20   1  26   1  32   1  39   1  40   1
M  END
>  <CHROM.1>
-160.86816406,-52.13445577,24.38556204,178.13939367,-128.72335499,44.18776444
99.12783188,84.77356269,-41.12975627,53.20490076,-65.70791586,174.73254114
112.00285093,-95.98982510,-29.09405324,-64.20552992,53.17353901,-43.95853755
-67.58196561,-54.14366862,-175.58854851,68.18210965,8.66294782,-4.35603603
-4.15178872,2.05020630,-0.27150483,-2.48773328

>  <Name>


>  <RI>
0

>  <Rbt.Current_Directory>
/home/itssahil/PROJECTS/Mol_Feturizer/New_Systems/rnas/1qd3

>  <Rbt.Executable>
rbdock ($Id: //depot/dev/client3/rdock/2013.1/src/exe/rbdock.cxx#4 $)

>  <Rbt.Library>
libRbt.so (2013.1, Build901 2013/11/27)

>  <Rbt.Parameter_File>
/export/apps/rDock/src/rDock_2013.1_src/data/scripts/dock_solv.prm

>  <Rbt.Receptor>
prm/pocket_docking_4.prm

>  <SCORE>
-25.9247

>  <SCORE.INTER>
-18.2114

>  <SCORE.INTER.CONST>
1

>  <SCORE.INTER.POLAR>
-4.23533

>  <SCORE.INTER.ROT>
9

>  <SCORE.INTER.SOLV>
14.8858

>  <SCORE.INTER.VDW>
-12.5851

>  <SCORE.INTER.norm>
-0.433605

>  <SCORE.INTRA>
-8.59737

>  <SCORE.INTRA.DIHEDRAL>
-2.89023

>  <SCORE.INTRA.DIHEDRAL.0>
40.6252

>  <SCORE.INTRA.POLAR>
-0.928315

>  <SCORE.INTRA.POLAR.0>
-1.20161

>  <SCORE.INTRA.REPUL>
-0.0490168

>  <SCORE.INTRA.REPUL.0>
0.115675

>  <SCORE.INTRA.SOLV>
-2.18693

>  <SCORE.INTRA.SOLV.lig_0>
-154.895

>  <SCORE.INTRA.VDW>
-2.65744

>  <SCORE.INTRA.VDW.0>
2.2925

>  <SCORE.INTRA.norm>
-0.204699

>  <SCORE.RESTR>
0.884047

>  <SCORE.RESTR.CAVITY>
0.884047

>  <SCORE.RESTR.norm>
0.0210487

>  <SCORE.SYSTEM>
0

>  <SCORE.SYSTEM.CONST>
0

>  <SCORE.SYSTEM.DIHEDRAL>
0

>  <SCORE.SYSTEM.SOLV>
0

>  <SCORE.SYSTEM.norm>
0

>  <SCORE.heavy>
42

>  <SCORE.norm>
-0.617255

>  <RMSD>
5.366

$$$$

 OpenBabel11021811413D
libRbt.so/2013.1/901 2013/11/27
 42 45  0  0  0  0  0  0  0  0999 V2000
    8.6885    0.4859   -2.9375 O   0  0  0  0  0  0  0  0  0  0  0  0
    8.2563   -0.8537   -3.1278 C   0  0  0  0  0  0  0  0  0  0  0  0
    8.1092   -1.5477   -1.7731 C   0  0  1  0  0  0  0  0  0  0  0  0
    8.9312   -0.9160   -0.7677 O   0  0  0  0  0  0  0  0  0  0  0  0
    6.6909   -1.5135   -1.2285 C   0  0  2  0  0  0  0  0  0  0  0  0
    6.9525   -1.7880    0.2429 C   0  0  1  0  0  0  0  0  0  0  0  0
    7.2105   -3.1745    0.4350 O   0  0  0  0  0  0  0  0  0  0  0  0
    8.2367   -0.9748    0.5040 C   0  0  2  0  0  0  0  0  0  0  0  0
    7.5237   -5.7771   -1.6995 C   0  0  2  0  0  0  0  0  0  0  0  0
    6.7180   -4.6631   -1.2857 O   0  0  0  0  0  0  0  0  0  0  0  0
    6.6314   -3.6533   -2.3073 C   0  0  2  0  0  0  0  0  0  0  0  0
    5.8647   -2.5245   -1.8386 O   0  0  0  0  0  0  0  0  0  0  0  0
    6.0047   -4.2296   -3.5885 C   0  0  2  0  0  0  0  0  0  0  0  0
    4.5677   -4.3700   -3.4407 N   0  3  0  0  0  0  0  0  0  0  0  0
    6.6332   -5.5608   -4.0172 C   0  0  1  0  0  0  0  0  0  0  0  0
    7.8820   -5.3121   -4.6428 O   0  0  0  0  0  0  0  0  0  0  0  0
    6.8317   -6.5122   -2.8403 C   0  0  2  0  0  0  0  0  0  0  0  0
    5.5741   -7.0168   -2.4064 O   0  0  0  0  0  0  0  0  0  0  0  0
    7.7845   -6.7174   -0.5263 C   0  0  0  0  0  0  0  0  0  0  0  0
    8.7843   -7.7067   -0.8825 N   0  3  0  0  0  0  0  0  0  0  0  0
   13.6339    1.0303    1.0468 C   0  0  1  0  0  0  0  0  0  0  0  0
   12.8886    2.2437    1.2802 O   0  0  0  0  0  0  0  0  0  0  0  0
   11.5360    2.1920    0.7709 C   0  0  2  0  0  0  0  0  0  0  0  0
   10.7287    1.2135    1.4712 O   0  0  0  0  0  0  0  0  0  0  0  0
   11.5370    1.9286   -0.7398 C   0  0  2  0  0  0  0  0  0  0  0  0
   10.1848    1.6701   -1.1986 N   0  3  0  0  0  0  0  0  0  0  0  0
   12.4254    0.7450   -1.1065 C   0  0  1  0  0  0  0  0  0  0  0  0
   12.5842    0.6850   -2.5155 O   0  0  0  0  0  0  0  0  0  0  0  0
   13.7947    0.7951   -0.4463 C   0  0  2  0  0  0  0  0  0  0  0  0
   14.4973   -0.4176   -0.6745 O   0  0  0  0  0  0  0  0  0  0  0  0
   15.0305    1.1512    1.6496 C   0  0  0  0  0  0  0  0  0  0  0  0
   14.9638    1.1831    3.0992 N   0  3  0  0  0  0  0  0  0  0  0  0
    7.8459    1.6670    4.5669 C   0  0  2  0  0  0  0  0  0  0  0  0
    8.7630    2.8373    4.2712 C   0  0  0  0  0  0  0  0  0  0  0  0
    9.9578    2.3828    3.4534 C   0  0  1  0  0  0  0  0  0  0  0  0
    9.5567    1.7964    2.0991 C   0  0  2  0  0  0  0  0  0  0  0  0
    8.4581    0.7211    2.2651 C   0  0  1  0  0  0  0  0  0  0  0  0
    7.3463    1.0340    3.2753 C   0  0  1  0  0  0  0  0  0  0  0  0
    6.7168    2.1264    5.3531 N   0  3  0  0  0  0  0  0  0  0  0  0
   10.8612    3.5030    3.2763 N   0  3  0  0  0  0  0  0  0  0  0  0
    7.8793    0.3511    0.9896 O   0  0  0  0  0  0  0  0  0  0  0  0
    6.6175   -0.1524    3.5726 O   0  0  0  0  0  0  0  0  0  0  0  0
  1  2  1  0  0  0  0
  3  2  1  6  0  0  0
  3  4  1  0  0  0  0
  3  5  1  0  0  0  0
  4  8  1  0  0  0  0
  5  6  1  0  0  0  0
  5 12  1  6  0  0  0
  6  7  1  6  0  0  0
  6  8  1  0  0  0  0
  8 41  1  6  0  0  0
  9 10  1  0  0  0  0
  9 17  1  0  0  0  0
  9 19  1  1  0  0  0
 10 11  1  0  0  0  0
 11 12  1  1  0  0  0
 11 13  1  0  0  0  0
 13 14  1  1  0  0  0
 13 15  1  0  0  0  0
 15 16  1  1  0  0  0
 15 17  1  0  0  0  0
 17 18  1  1  0  0  0
 19 20  1  0  0  0  0
 21 22  1  0  0  0  0
 21 29  1  0  0  0  0
 21 31  1  1  0  0  0
 22 23  1  0  0  0  0
 23 24  1  1  0  0  0
 23 25  1  0  0  0  0
 25 26  1  1  0  0  0
 25 27  1  0  0  0  0
 27 28  1  6  0  0  0
 27 29  1  0  0  0  0
 29 30  1  1  0  0  0
 31 32  1  0  0  0  0
 33 34  1  0  0  0  0
 33 38  1  0  0  0  0
 33 39  1  1  0  0  0
 34 35  1  0  0  0  0
 35 36  1  0  0  0  0
 35 40  1  6  0  0  0
 36 24  1  1  0  0  0
 36 37  1  0  0  0  0
 37 38  1  0  0  0  0
 37 41  1  6  0  0  0
 38 42  1  1  0  0  0
M  CHG  6  14   1  20   1  26   1  32   1  39   1  40   1
M  END
>  <CHROM.1>
-56.28703157,-23.79341424,26.34670775,65.28765576,-119.33235330,-169.92902855
91.55584451,-139.17940104,-171.52839443,52.94808412,67.53496043,68.29279513
121.22674961,-83.20381499,61.15896172,50.10071212,-64.75735327,-52.24445789
59.77167307,173.25975127,108.43846107,-55.98855318,9.09234576,-1.05909481
-0.06350220,-2.13716403,0.38010421,0.80504760

>  <Name>


>  <RI>
0

>  <Rbt.Current_Directory>
/home/itssahil/PROJECTS/Mol_Feturizer/New_Systems/rnas/1qd3

>  <Rbt.Executable>
rbdock ($Id: //depot/dev/client3/rdock/2013.1/src/exe/rbdock.cxx#4 $)

>  <Rbt.Library>
libRbt.so (2013.1, Build901 2013/11/27)

>  <Rbt.Parameter_File>
/export/apps/rDock/src/rDock_2013.1_src/data/scripts/dock_solv.prm

>  <Rbt.Receptor>
prm/pocket_docking_6.prm

>  <SCORE>
-56.5558

>  <SCORE.INTER>
-46.1798

>  <SCORE.INTER.CONST>
1

>  <SCORE.INTER.POLAR>
-6.38455

>  <SCORE.INTER.ROT>
9

>  <SCORE.INTER.SOLV>
40.0429

>  <SCORE.INTER.VDW>
-32.4523

>  <SCORE.INTER.norm>
-1.09952

>  <SCORE.INTRA>
-10.376

>  <SCORE.INTRA.DIHEDRAL>
0.146903

>  <SCORE.INTRA.DIHEDRAL.0>
40.6252

>  <SCORE.INTRA.POLAR>
-1.50663

>  <SCORE.INTRA.POLAR.0>
-1.20161

>  <SCORE.INTRA.REPUL>
-0.115675

>  <SCORE.INTRA.REPUL.0>
0.115675

>  <SCORE.INTRA.SOLV>
-3.13852

>  <SCORE.INTRA.SOLV.lig_0>
-154.895

>  <SCORE.INTRA.VDW>
-3.17926

>  <SCORE.INTRA.VDW.0>
2.2925

>  <SCORE.INTRA.norm>
-0.247047

>  <SCORE.RESTR>
0

>  <SCORE.RESTR.CAVITY>
0

>  <SCORE.RESTR.norm>
0

>  <SCORE.SYSTEM>
0

>  <SCORE.SYSTEM.CONST>
0

>  <SCORE.SYSTEM.DIHEDRAL>
0

>  <SCORE.SYSTEM.SOLV>
0

>  <SCORE.SYSTEM.norm>
0

>  <SCORE.heavy>
42

>  <SCORE.norm>
-1.34657

>  <RMSD>
5.430

$$$$

 OpenBabel11021811413D
libRbt.so/2013.1/901 2013/11/27
 42 45  0  0  0  0  0  0  0  0999 V2000
    8.2998    0.9966   -2.3516 O   0  0  0  0  0  0  0  0  0  0  0  0
    8.5506   -0.3977   -2.4557 C   0  0  0  0  0  0  0  0  0  0  0  0
    8.4130   -1.0525   -1.0807 C   0  0  1  0  0  0  0  0  0  0  0  0
    8.8867   -0.1785   -0.0332 O   0  0  0  0  0  0  0  0  0  0  0  0
    6.9779   -1.3944   -0.7160 C   0  0  2  0  0  0  0  0  0  0  0  0
    7.0998   -1.5283    0.7927 C   0  0  1  0  0  0  0  0  0  0  0  0
    7.6956   -2.7793    1.1178 O   0  0  0  0  0  0  0  0  0  0  0  0
    8.0667   -0.3798    1.1458 C   0  0  2  0  0  0  0  0  0  0  0  0
    8.5885   -5.6375   -1.0695 C   0  0  2  0  0  0  0  0  0  0  0  0
    7.4824   -4.7431   -0.8741 O   0  0  0  0  0  0  0  0  0  0  0  0
    7.6469   -3.5163   -1.6081 C   0  0  2  0  0  0  0  0  0  0  0  0
    6.5489   -2.6184   -1.3443 O   0  0  0  0  0  0  0  0  0  0  0  0
    7.7570   -3.7968   -3.1166 C   0  0  2  0  0  0  0  0  0  0  0  0
    6.4540   -4.0970   -3.6809 N   0  3  0  0  0  0  0  0  0  0  0  0
    8.7556   -4.9121   -3.4479 C   0  0  1  0  0  0  0  0  0  0  0  0
   10.0767   -4.4015   -3.3640 O   0  0  0  0  0  0  0  0  0  0  0  0
    8.6118   -6.1127   -2.5166 C   0  0  2  0  0  0  0  0  0  0  0  0
    7.4154   -6.8210   -2.8189 O   0  0  0  0  0  0  0  0  0  0  0  0
    8.4989   -6.8211   -0.1104 C   0  0  0  0  0  0  0  0  0  0  0  0
    8.3774   -6.3559    1.2585 N   0  3  0  0  0  0  0  0  0  0  0  0
   10.7966    2.1852   -0.0644 C   0  0  1  0  0  0  0  0  0  0  0  0
   10.6401    2.2670    1.3677 O   0  0  0  0  0  0  0  0  0  0  0  0
    9.9754    3.4754    1.8031 C   0  0  2  0  0  0  0  0  0  0  0  0
    8.5986    3.5300    1.3547 O   0  0  0  0  0  0  0  0  0  0  0  0
   10.7549    4.7150    1.3476 C   0  0  2  0  0  0  0  0  0  0  0  0
    9.9756    5.9120    1.6040 N   0  3  0  0  0  0  0  0  0  0  0  0
   11.1016    4.6510   -0.1357 C   0  0  1  0  0  0  0  0  0  0  0  0
   12.0150    5.6882   -0.4583 O   0  0  0  0  0  0  0  0  0  0  0  0
   11.6886    3.3128   -0.5576 C   0  0  2  0  0  0  0  0  0  0  0  0
   11.8126    3.2518   -1.9709 O   0  0  0  0  0  0  0  0  0  0  0  0
   11.4655    0.8666   -0.4422 C   0  0  0  0  0  0  0  0  0  0  0  0
   11.6230    0.7639   -1.8814 N   0  3  0  0  0  0  0  0  0  0  0  0
    7.4867    1.9114    5.1288 C   0  0  2  0  0  0  0  0  0  0  0  0
    7.1197    3.3530    4.8364 C   0  0  0  0  0  0  0  0  0  0  0  0
    7.9213    3.8773    3.6594 C   0  0  1  0  0  0  0  0  0  0  0  0
    7.6579    3.0956    2.3715 C   0  0  2  0  0  0  0  0  0  0  0  0
    7.8029    1.5744    2.6080 C   0  0  1  0  0  0  0  0  0  0  0  0
    7.2160    1.0299    3.9170 C   0  0  1  0  0  0  0  0  0  0  0  0
    6.7120    1.4369    6.2596 N   0  3  0  0  0  0  0  0  0  0  0  0
    7.6200    5.2832    3.4728 N   0  3  0  0  0  0  0  0  0  0  0  0
    7.2998    0.8114    1.4839 O   0  0  0  0  0  0  0  0  0  0  0  0
    7.7115   -0.2829    4.1580 O   0  0  0  0  0  0  0  0  0  0  0  0
  1  2  1  0  0  0  0
  3  2  1  6  0  0  0
  3  4  1  0  0  0  0
  3  5  1  0  0  0  0
  4  8  1  0  0  0  0
  5  6  1  0  0  0  0
  5 12  1  6  0  0  0
  6  7  1  6  0  0  0
  6  8  1  0  0  0  0
  8 41  1  6  0  0  0
  9 10  1  0  0  0  0
  9 17  1  0  0  0  0
  9 19  1  1  0  0  0
 10 11  1  0  0  0  0
 11 12  1  6  0  0  0
 11 13  1  0  0  0  0
 13 14  1  1  0  0  0
 13 15  1  0  0  0  0
 15 16  1  1  0  0  0
 15 17  1  0  0  0  0
 17 18  1  6  0  0  0
 19 20  1  0  0  0  0
 21 22  1  0  0  0  0
 21 29  1  0  0  0  0
 21 31  1  1  0  0  0
 22 23  1  0  0  0  0
 23 24  1  6  0  0  0
 23 25  1  0  0  0  0
 25 26  1  6  0  0  0
 25 27  1  0  0  0  0
 27 28  1  1  0  0  0
 27 29  1  0  0  0  0
 29 30  1  6  0  0  0
 31 32  1  0  0  0  0
 33 34  1  0  0  0  0
 33 38  1  0  0  0  0
 33 39  1  1  0  0  0
 34 35  1  0  0  0  0
 35 36  1  0  0  0  0
 35 40  1  6  0  0  0
 36 24  1  6  0  0  0
 36 37  1  0  0  0  0
 37 38  1  0  0  0  0
 37 41  1  6  0  0  0
 38 42  1  1  0  0  0
M  CHG  6  14   1  20   1  26   1  32   1  39   1  40   1
M  END
>  <CHROM.1>
56.06800436,-35.63899211,27.43490417,-64.92703488,-103.92040982,-53.97558450
117.66874189,169.44471932,-164.91458777,-69.02060380,-73.98235485,179.63456476
97.61405949,52.47083700,70.43823055,-172.97342969,72.97361229,163.38208732
-64.00900680,-132.19142247,141.87904109,173.16543203,8.69769586,-0.09943107
0.30428090,-1.80764159,0.97559112,0.62259881

>  <Name>


>  <RI>
0

>  <Rbt.Current_Directory>
/home/itssahil/PROJECTS/Mol_Feturizer/New_Systems/rnas/1qd3

>  <Rbt.Executable>
rbdock ($Id: //depot/dev/client3/rdock/2013.1/src/exe/rbdock.cxx#4 $)

>  <Rbt.Library>
libRbt.so (2013.1, Build901 2013/11/27)

>  <Rbt.Parameter_File>
/export/apps/rDock/src/rDock_2013.1_src/data/scripts/dock_solv.prm

>  <Rbt.Receptor>
prm/pocket_docking_3.prm

>  <SCORE>
-52.4464

>  <SCORE.INTER>
-49.8006

>  <SCORE.INTER.CONST>
1

>  <SCORE.INTER.POLAR>
-7.80414

>  <SCORE.INTER.ROT>
9

>  <SCORE.INTER.SOLV>
44.6153

>  <SCORE.INTER.VDW>
-31.6583

>  <SCORE.INTER.norm>
-1.18573

>  <SCORE.INTRA>
-7.16536

>  <SCORE.INTRA.DIHEDRAL>
-2.31383

>  <SCORE.INTRA.DIHEDRAL.0>
40.6252

>  <SCORE.INTRA.POLAR>
-0.0258124

>  <SCORE.INTRA.POLAR.0>
-1.20161

>  <SCORE.INTRA.REPUL>
-0.115675

>  <SCORE.INTRA.REPUL.0>
0.115675

>  <SCORE.INTRA.SOLV>
-0.806131

>  <SCORE.INTRA.SOLV.lig_0>
-154.895

>  <SCORE.INTRA.VDW>
-4.93924

>  <SCORE.INTRA.VDW.0>
2.2925

>  <SCORE.INTRA.norm>
-0.170604

>  <SCORE.RESTR>
4.51954

>  <SCORE.RESTR.CAVITY>
4.51954

>  <SCORE.RESTR.norm>
0.107608

>  <SCORE.SYSTEM>
0

>  <SCORE.SYSTEM.CONST>
0

>  <SCORE.SYSTEM.DIHEDRAL>
0

>  <SCORE.SYSTEM.SOLV>
0

>  <SCORE.SYSTEM.norm>
0

>  <SCORE.heavy>
42

>  <SCORE.norm>
-1.24872

>  <RMSD>
5.445

$$$$

 OpenBabel11021811413D
libRbt.so/2013.1/901 2013/11/27
 42 45  0  0  0  0  0  0  0  0999 V2000
    7.1027   -0.7825    1.5616 O   0  0  0  0  0  0  0  0  0  0  0  0
    7.8652   -1.5259    0.6216 C   0  0  0  0  0  0  0  0  0  0  0  0
    8.2518   -0.6298   -0.5557 C   0  0  1  0  0  0  0  0  0  0  0  0
    8.8961    0.5813   -0.1043 O   0  0  0  0  0  0  0  0  0  0  0  0
    9.2301   -1.2847   -1.5167 C   0  0  2  0  0  0  0  0  0  0  0  0
    9.7849   -0.0600   -2.2246 C   0  0  1  0  0  0  0  0  0  0  0  0
    8.8428    0.4097   -3.1826 O   0  0  0  0  0  0  0  0  0  0  0  0
    9.9100    0.9559   -1.0710 C   0  0  2  0  0  0  0  0  0  0  0  0
    6.8748   -5.4071   -2.0520 C   0  0  2  0  0  0  0  0  0  0  0  0
    7.4006   -4.2330   -2.6895 O   0  0  0  0  0  0  0  0  0  0  0  0
    8.0974   -3.3832   -1.7605 C   0  0  2  0  0  0  0  0  0  0  0  0
    8.5617   -2.1869   -2.4200 O   0  0  0  0  0  0  0  0  0  0  0  0
    9.2783   -4.1325   -1.1199 C   0  0  2  0  0  0  0  0  0  0  0  0
   10.3907   -4.2291   -2.0471 N   0  3  0  0  0  0  0  0  0  0  0  0
    8.8940   -5.5211   -0.5955 C   0  0  1  0  0  0  0  0  0  0  0  0
    8.2061   -5.3849    0.6378 O   0  0  0  0  0  0  0  0  0  0  0  0
    8.0232   -6.2919   -1.5840 C   0  0  2  0  0  0  0  0  0  0  0  0
    8.8050   -6.7093   -2.6971 O   0  0  0  0  0  0  0  0  0  0  0  0
    5.9546   -6.1685   -3.0018 C   0  0  0  0  0  0  0  0  0  0  0  0
    4.9477   -5.2806   -3.5520 N   0  3  0  0  0  0  0  0  0  0  0  0
   11.7476    6.6754   -0.1261 C   0  0  1  0  0  0  0  0  0  0  0  0
   12.8664    5.9382    0.4094 O   0  0  0  0  0  0  0  0  0  0  0  0
   12.5202    4.5995    0.8331 C   0  0  2  0  0  0  0  0  0  0  0  0
   12.1244    3.7621   -0.2812 O   0  0  0  0  0  0  0  0  0  0  0  0
   11.4291    4.6387    1.9100 C   0  0  2  0  0  0  0  0  0  0  0  0
   10.9438    3.2967    2.1727 N   0  3  0  0  0  0  0  0  0  0  0  0
   10.2581    5.5230    1.4961 C   0  0  1  0  0  0  0  0  0  0  0  0
    9.3927    5.7195    2.6036 O   0  0  0  0  0  0  0  0  0  0  0  0
   10.6908    6.8742    0.9481 C   0  0  2  0  0  0  0  0  0  0  0  0
    9.5751    7.5687    0.4100 O   0  0  0  0  0  0  0  0  0  0  0  0
   12.2047    8.0564   -0.5872 C   0  0  0  0  0  0  0  0  0  0  0  0
   12.9618    7.9616   -1.8219 N   0  3  0  0  0  0  0  0  0  0  0  0
   14.4418    1.0391   -2.5866 C   0  0  2  0  0  0  0  0  0  0  0  0
   15.1695    1.9518   -1.6193 C   0  0  0  0  0  0  0  0  0  0  0  0
   14.2730    3.1006   -1.1958 C   0  0  1  0  0  0  0  0  0  0  0  0
   13.0096    2.6279   -0.4751 C   0  0  2  0  0  0  0  0  0  0  0  0
   12.2873    1.5286   -1.2879 C   0  0  1  0  0  0  0  0  0  0  0  0
   13.1820    0.4707   -1.9473 C   0  0  1  0  0  0  0  0  0  0  0  0
   15.3209   -0.0456   -2.9797 N   0  3  0  0  0  0  0  0  0  0  0  0
   15.0319    4.0049   -0.3540 N   0  3  0  0  0  0  0  0  0  0  0  0
   11.2510    0.8844   -0.5069 O   0  0  0  0  0  0  0  0  0  0  0  0
   12.4354   -0.2538   -2.9192 O   0  0  0  0  0  0  0  0  0  0  0  0
  1  2  1  0  0  0  0
  3  2  1  1  0  0  0
  3  4  1  0  0  0  0
  3  5  1  0  0  0  0
  4  8  1  0  0  0  0
  5  6  1  0  0  0  0
  5 12  1  6  0  0  0
  6  7  1  6  0  0  0
  6  8  1  0  0  0  0
  8 41  1  1  0  0  0
  9 10  1  0  0  0  0
  9 17  1  0  0  0  0
  9 19  1  6  0  0  0
 10 11  1  0  0  0  0
 11 12  1  6  0  0  0
 11 13  1  0  0  0  0
 13 14  1  6  0  0  0
 13 15  1  0  0  0  0
 15 16  1  1  0  0  0
 15 17  1  0  0  0  0
 17 18  1  6  0  0  0
 19 20  1  0  0  0  0
 21 22  1  0  0  0  0
 21 29  1  0  0  0  0
 21 31  1  1  0  0  0
 22 23  1  0  0  0  0
 23 24  1  6  0  0  0
 23 25  1  0  0  0  0
 25 26  1  6  0  0  0
 25 27  1  0  0  0  0
 27 28  1  1  0  0  0
 27 29  1  0  0  0  0
 29 30  1  6  0  0  0
 31 32  1  0  0  0  0
 33 34  1  0  0  0  0
 33 38  1  0  0  0  0
 33 39  1  1  0  0  0
 34 35  1  0  0  0  0
 35 36  1  0  0  0  0
 35 40  1  1  0  0  0
 36 24  1  6  0  0  0
 36 37  1  0  0  0  0
 37 38  1  0  0  0  0
 37 41  1  1  0  0  0
 38 42  1  6  0  0  0
M  CHG  6  14   1  20   1  26   1  32   1  39   1  40   1
M  END
>  <CHROM.1>
-63.29654847,52.85215569,-71.04253320,-64.79240861,-166.31527824,-52.17405400
178.16783678,-28.60606332,-59.74177636,57.32861503,-70.89499152,73.92080123
117.35525992,-78.89296888,177.78438683,-175.83814495,49.88913467,70.68658955
66.07061984,69.17723765,121.69514201,-54.57332606,10.42128615,0.58664542
-0.90060556,2.00188925,-0.37093432,-2.78881818

>  <Name>


>  <RI>
0

>  <Rbt.Current_Directory>
/home/itssahil/PROJECTS/Mol_Feturizer/New_Systems/rnas/1qd3

>  <Rbt.Executable>
rbdock ($Id: //depot/dev/client3/rdock/2013.1/src/exe/rbdock.cxx#4 $)

>  <Rbt.Library>
libRbt.so (2013.1, Build901 2013/11/27)

>  <Rbt.Parameter_File>
/export/apps/rDock/src/rDock_2013.1_src/data/scripts/dock_solv.prm

>  <Rbt.Receptor>
prm/pocket_docking_8.prm

>  <SCORE>
-54.6076

>  <SCORE.INTER>
-34.4064

>  <SCORE.INTER.CONST>
1

>  <SCORE.INTER.POLAR>
-6.25602

>  <SCORE.INTER.ROT>
9

>  <SCORE.INTER.SOLV>
22.036

>  <SCORE.INTER.VDW>
-19.0295

>  <SCORE.INTER.norm>
-0.819199

>  <SCORE.INTRA>
-20.2012

>  <SCORE.INTRA.DIHEDRAL>
-18.1943

>  <SCORE.INTRA.DIHEDRAL.0>
40.6252

>  <SCORE.INTRA.POLAR>
0.0870599

>  <SCORE.INTRA.POLAR.0>
-1.20161

>  <SCORE.INTRA.REPUL>
-0.115675

>  <SCORE.INTRA.REPUL.0>
0.115675

>  <SCORE.INTRA.SOLV>
-9.86278

>  <SCORE.INTRA.SOLV.lig_0>
-154.895

>  <SCORE.INTRA.VDW>
-5.89032

>  <SCORE.INTRA.VDW.0>
2.2925

>  <SCORE.INTRA.norm>
-0.480982

>  <SCORE.RESTR>
0

>  <SCORE.RESTR.CAVITY>
0

>  <SCORE.RESTR.norm>
0

>  <SCORE.SYSTEM>
0

>  <SCORE.SYSTEM.CONST>
0

>  <SCORE.SYSTEM.DIHEDRAL>
0

>  <SCORE.SYSTEM.SOLV>
0

>  <SCORE.SYSTEM.norm>
0

>  <SCORE.heavy>
42

>  <SCORE.norm>
-1.30018

>  <RMSD>
5.455

$$$$

 OpenBabel11021811413D
libRbt.so/2013.1/901 2013/11/27
 42 45  0  0  0  0  0  0  0  0999 V2000
    5.8362   -2.4979   -2.8645 O   0  0  0  0  0  0  0  0  0  0  0  0
    5.9536   -1.8416   -1.6102 C   0  0  0  0  0  0  0  0  0  0  0  0
    7.0563   -0.7845   -1.6802 C   0  0  1  0  0  0  0  0  0  0  0  0
    6.9665    0.1419   -0.5760 O   0  0  0  0  0  0  0  0  0  0  0  0
    8.4575   -1.3691   -1.6161 C   0  0  2  0  0  0  0  0  0  0  0  0
    9.2517   -0.1408   -1.2045 C   0  0  1  0  0  0  0  0  0  0  0  0
    9.4381    0.7106   -2.3298 O   0  0  0  0  0  0  0  0  0  0  0  0
    8.3078    0.5333   -0.1880 C   0  0  2  0  0  0  0  0  0  0  0  0
    7.8725   -5.3714   -3.3758 C   0  0  2  0  0  0  0  0  0  0  0  0
    7.8061   -3.9378   -3.4200 O   0  0  0  0  0  0  0  0  0  0  0  0
    8.9962   -3.3279   -2.8886 C   0  0  2  0  0  0  0  0  0  0  0  0
    8.8730   -1.8904   -2.8938 O   0  0  0  0  0  0  0  0  0  0  0  0
   10.2338   -3.7608   -3.6932 C   0  0  2  0  0  0  0  0  0  0  0  0
   10.2967   -3.0558   -4.9602 N   0  3  0  0  0  0  0  0  0  0  0  0
   10.3033   -5.2759   -3.9176 C   0  0  1  0  0  0  0  0  0  0  0  0
   10.7539   -5.9077   -2.7299 O   0  0  0  0  0  0  0  0  0  0  0  0
    8.9553   -5.8622   -4.3284 C   0  0  2  0  0  0  0  0  0  0  0  0
    8.6449   -5.4778   -5.6627 O   0  0  0  0  0  0  0  0  0  0  0  0
    6.5200   -5.9836   -3.7289 C   0  0  0  0  0  0  0  0  0  0  0  0
    6.4983   -7.3940   -3.3898 N   0  3  0  0  0  0  0  0  0  0  0  0
   11.6596    4.2963   -0.8028 C   0  0  1  0  0  0  0  0  0  0  0  0
   10.6517    3.2967   -1.0617 O   0  0  0  0  0  0  0  0  0  0  0  0
   10.8416    2.0814   -0.3011 C   0  0  2  0  0  0  0  0  0  0  0  0
   10.6782    2.2999    1.1220 O   0  0  0  0  0  0  0  0  0  0  0  0
   12.2078    1.4576   -0.6113 C   0  0  2  0  0  0  0  0  0  0  0  0
   12.4733    0.3650    0.3060 N   0  3  0  0  0  0  0  0  0  0  0  0
   13.3327    2.4817   -0.5099 C   0  0  1  0  0  0  0  0  0  0  0  0
   14.5317    1.9277   -1.0293 O   0  0  0  0  0  0  0  0  0  0  0  0
   13.0251    3.7846   -1.2316 C   0  0  2  0  0  0  0  0  0  0  0  0
   14.0206    4.7555   -0.9434 O   0  0  0  0  0  0  0  0  0  0  0  0
   11.3635    5.5576   -1.6092 C   0  0  0  0  0  0  0  0  0  0  0  0
   12.0624    6.7006   -1.0509 N   0  3  0  0  0  0  0  0  0  0  0  0
    7.4578    2.4470    3.8981 C   0  0  2  0  0  0  0  0  0  0  0  0
    7.7815    3.7047    3.1160 C   0  0  0  0  0  0  0  0  0  0  0  0
    9.1639    3.6053    2.4981 C   0  0  1  0  0  0  0  0  0  0  0  0
    9.2874    2.4415    1.5136 C   0  0  2  0  0  0  0  0  0  0  0  0
    8.7817    1.1247    2.1470 C   0  0  1  0  0  0  0  0  0  0  0  0
    7.5061    1.2227    2.9941 C   0  0  1  0  0  0  0  0  0  0  0  0
    6.1358    2.5698    4.4823 N   0  3  0  0  0  0  0  0  0  0  0  0
    9.4796    4.8608    1.8452 N   0  3  0  0  0  0  0  0  0  0  0  0
    8.6392    0.0782    1.1554 O   0  0  0  0  0  0  0  0  0  0  0  0
    7.3550    0.0424    3.7759 O   0  0  0  0  0  0  0  0  0  0  0  0
  1  2  1  0  0  0  0
  3  2  1  1  0  0  0
  3  4  1  0  0  0  0
  3  5  1  0  0  0  0
  4  8  1  0  0  0  0
  5  6  1  0  0  0  0
  5 12  1  6  0  0  0
  6  7  1  6  0  0  0
  6  8  1  0  0  0  0
  8 41  1  1  0  0  0
  9 10  1  0  0  0  0
  9 17  1  0  0  0  0
  9 19  1  6  0  0  0
 10 11  1  0  0  0  0
 11 12  1  6  0  0  0
 11 13  1  0  0  0  0
 13 14  1  6  0  0  0
 13 15  1  0  0  0  0
 15 16  1  1  0  0  0
 15 17  1  0  0  0  0
 17 18  1  6  0  0  0
 19 20  1  0  0  0  0
 21 22  1  0  0  0  0
 21 29  1  0  0  0  0
 21 31  1  6  0  0  0
 22 23  1  0  0  0  0
 23 24  1  1  0  0  0
 23 25  1  0  0  0  0
 25 26  1  1  0  0  0
 25 27  1  0  0  0  0
 27 28  1  6  0  0  0
 27 29  1  0  0  0  0
 29 30  1  1  0  0  0
 31 32  1  0  0  0  0
 33 34  1  0  0  0  0
 33 38  1  0  0  0  0
 33 39  1  6  0  0  0
 34 35  1  0  0  0  0
 35 36  1  0  0  0  0
 35 40  1  6  0  0  0
 36 24  1  1  0  0  0
 36 37  1  0  0  0  0
 37 38  1  0  0  0  0
 37 41  1  6  0  0  0
 38 42  1  1  0  0  0
M  CHG  6  14   1  20   1  26   1  32   1  39   1  40   1
M  END
>  <CHROM.1>
174.50793668,164.17378166,-111.99233917,-53.50587016,-111.65854817,-166.89979272
97.20307159,-171.83673963,-57.97351025,177.75488876,-175.74894738,160.77717702
75.68625597,-136.27949163,-177.81370533,63.22223121,68.19574672,-53.12207282
64.55389914,-39.00653646,-30.21886969,-50.72945300,9.42752312,-0.04362677
-0.91077140,1.85521520,-0.60194270,-2.48675262

>  <Name>


>  <RI>
0

>  <Rbt.Current_Directory>
/home/itssahil/PROJECTS/Mol_Feturizer/New_Systems/rnas/1qd3

>  <Rbt.Executable>
rbdock ($Id: //depot/dev/client3/rdock/2013.1/src/exe/rbdock.cxx#4 $)

>  <Rbt.Library>
libRbt.so (2013.1, Build901 2013/11/27)

>  <Rbt.Parameter_File>
/export/apps/rDock/src/rDock_2013.1_src/data/scripts/dock_solv.prm

>  <Rbt.Receptor>
prm/pocket_docking_5.prm

>  <SCORE>
-37.5102

>  <SCORE.INTER>
-27.372

>  <SCORE.INTER.CONST>
1

>  <SCORE.INTER.POLAR>
-3.00165

>  <SCORE.INTER.ROT>
9

>  <SCORE.INTER.SOLV>
30.9208

>  <SCORE.INTER.VDW>
-28.1494

>  <SCORE.INTER.norm>
-0.651715

>  <SCORE.INTRA>
-11.3822

>  <SCORE.INTRA.DIHEDRAL>
-4.98977

>  <SCORE.INTRA.DIHEDRAL.0>
40.6252

>  <SCORE.INTRA.POLAR>
0.858633

>  <SCORE.INTRA.POLAR.0>
-1.20161

>  <SCORE.INTRA.REPUL>
-0.115675

>  <SCORE.INTRA.REPUL.0>
0.115675

>  <SCORE.INTRA.SOLV>
-7.93633

>  <SCORE.INTRA.SOLV.lig_0>
-154.895

>  <SCORE.INTRA.VDW>
-7.26015

>  <SCORE.INTRA.VDW.0>
2.2925

>  <SCORE.INTRA.norm>
-0.271005

>  <SCORE.RESTR>
1.24408

>  <SCORE.RESTR.CAVITY>
1.24408

>  <SCORE.RESTR.norm>
0.0296209

>  <SCORE.SYSTEM>
0

>  <SCORE.SYSTEM.CONST>
0

>  <SCORE.SYSTEM.DIHEDRAL>
0

>  <SCORE.SYSTEM.SOLV>
0

>  <SCORE.SYSTEM.norm>
0

>  <SCORE.heavy>
42

>  <SCORE.norm>
-0.893099

>  <RMSD>
5.504

$$$$

 OpenBabel11021811413D
libRbt.so/2013.1/901 2013/11/27
 42 45  0  0  0  0  0  0  0  0999 V2000
    4.8156   -3.7689   -2.9008 O   0  0  0  0  0  0  0  0  0  0  0  0
    5.8982   -4.0923   -3.7616 C   0  0  0  0  0  0  0  0  0  0  0  0
    7.2145   -4.0233   -2.9863 C   0  0  1  0  0  0  0  0  0  0  0  0
    7.4800   -2.6823   -2.5208 O   0  0  0  0  0  0  0  0  0  0  0  0
    7.2312   -4.9019   -1.7464 C   0  0  2  0  0  0  0  0  0  0  0  0
    8.3699   -4.2628   -0.9693 C   0  0  1  0  0  0  0  0  0  0  0  0
    9.6170   -4.6685   -1.5227 O   0  0  0  0  0  0  0  0  0  0  0  0
    8.1434   -2.7603   -1.2336 C   0  0  2  0  0  0  0  0  0  0  0  0
    6.4377   -6.6672   -5.5527 C   0  0  2  0  0  0  0  0  0  0  0  0
    7.2420   -6.2713   -4.4312 O   0  0  0  0  0  0  0  0  0  0  0  0
    6.6971   -6.7429   -3.1856 C   0  0  2  0  0  0  0  0  0  0  0  0
    7.4955   -6.2795   -2.0769 O   0  0  0  0  0  0  0  0  0  0  0  0
    6.6118   -8.2789   -3.1773 C   0  0  2  0  0  0  0  0  0  0  0  0
    7.9215   -8.8660   -2.9619 N   0  3  0  0  0  0  0  0  0  0  0  0
    5.9690   -8.8507   -4.4464 C   0  0  1  0  0  0  0  0  0  0  0  0
    4.5611   -8.6912   -4.3740 O   0  0  0  0  0  0  0  0  0  0  0  0
    6.4946   -8.1810   -5.7132 C   0  0  2  0  0  0  0  0  0  0  0  0
    7.8321   -8.5970   -5.9632 O   0  0  0  0  0  0  0  0  0  0  0  0
    6.9075   -5.9679   -6.8251 C   0  0  0  0  0  0  0  0  0  0  0  0
    6.0281   -6.2883   -7.9336 N   0  3  0  0  0  0  0  0  0  0  0  0
   12.6797   -0.9182   -1.7045 C   0  0  1  0  0  0  0  0  0  0  0  0
   11.9669    0.2873   -1.3568 O   0  0  0  0  0  0  0  0  0  0  0  0
   10.5353    0.1761   -1.5289 C   0  0  2  0  0  0  0  0  0  0  0  0
    9.9509   -0.7835   -0.6139 O   0  0  0  0  0  0  0  0  0  0  0  0
   10.1909   -0.1662   -2.9835 C   0  0  2  0  0  0  0  0  0  0  0  0
    8.7789   -0.4812   -3.0973 N   0  3  0  0  0  0  0  0  0  0  0  0
   11.0102   -1.3456   -3.4957 C   0  0  1  0  0  0  0  0  0  0  0  0
   10.8355   -1.4757   -4.8981 O   0  0  0  0  0  0  0  0  0  0  0  0
   12.4935   -1.2276   -3.1809 C   0  0  2  0  0  0  0  0  0  0  0  0
   13.1660   -2.4333   -3.5136 O   0  0  0  0  0  0  0  0  0  0  0  0
   14.1736   -0.7320   -1.4551 C   0  0  0  0  0  0  0  0  0  0  0  0
   14.4822   -0.8835   -0.0449 N   0  3  0  0  0  0  0  0  0  0  0  0
    7.6815    0.0572    2.8851 C   0  0  2  0  0  0  0  0  0  0  0  0
    8.2424    1.2278    2.1020 C   0  0  0  0  0  0  0  0  0  0  0  0
    9.3306    0.7601    1.1533 C   0  0  1  0  0  0  0  0  0  0  0  0
    8.8199   -0.2449    0.1198 C   0  0  2  0  0  0  0  0  0  0  0  0
    8.0397   -1.3923    0.8022 C   0  0  1  0  0  0  0  0  0  0  0  0
    7.0989   -0.9901    1.9456 C   0  0  1  0  0  0  0  0  0  0  0  0
    6.6491    0.5311    3.7870 N   0  3  0  0  0  0  0  0  0  0  0  0
    9.9121    1.9149    0.4972 N   0  3  0  0  0  0  0  0  0  0  0  0
    7.3261   -2.1994   -0.1665 O   0  0  0  0  0  0  0  0  0  0  0  0
    6.7220   -2.1448    2.6884 O   0  0  0  0  0  0  0  0  0  0  0  0
  1  2  1  0  0  0  0
  3  2  1  1  0  0  0
  3  4  1  0  0  0  0
  3  5  1  0  0  0  0
  4  8  1  0  0  0  0
  5  6  1  0  0  0  0
  5 12  1  6  0  0  0
  6  7  1  6  0  0  0
  6  8  1  0  0  0  0
  8 41  1  1  0  0  0
  9 10  1  0  0  0  0
  9 17  1  0  0  0  0
  9 19  1  6  0  0  0
 10 11  1  0  0  0  0
 11 12  1  1  0  0  0
 11 13  1  0  0  0  0
 13 14  1  6  0  0  0
 13 15  1  0  0  0  0
 15 16  1  1  0  0  0
 15 17  1  0  0  0  0
 17 18  1  1  0  0  0
 19 20  1  0  0  0  0
 21 22  1  0  0  0  0
 21 29  1  0  0  0  0
 21 31  1  6  0  0  0
 22 23  1  0  0  0  0
 23 24  1  1  0  0  0
 23 25  1  0  0  0  0
 25 26  1  1  0  0  0
 25 27  1  0  0  0  0
 27 28  1  6  0  0  0
 27 29  1  0  0  0  0
 29 30  1  1  0  0  0
 31 32  1  0  0  0  0
 33 34  1  0  0  0  0
 33 38  1  0  0  0  0
 33 39  1  1  0  0  0
 34 35  1  0  0  0  0
 35 36  1  0  0  0  0
 35 40  1  6  0  0  0
 36 24  1  1  0  0  0
 36 37  1  0  0  0  0
 37 38  1  0  0  0  0
 37 41  1  6  0  0  0
 38 42  1  1  0  0  0
M  CHG  6  14   1  20   1  26   1  32   1  39   1  40   1
M  END
>  <CHROM.1>
174.95911652,-63.60171879,-46.86412019,60.10926743,-138.61801101,-175.50312626
78.05837803,-178.17440835,58.60859878,-61.60580509,-93.47479126,79.30164786
128.94493286,-72.00998080,154.86205986,-67.93125945,173.25794399,76.11089475
150.74611583,64.67676089,55.37894332,-173.24166099,8.54811647,-3.19385325
-2.08156425,2.01412349,-0.52074635,-2.29926017

>  <Name>


>  <RI>
0

>  <Rbt.Current_Directory>
/home/itssahil/PROJECTS/Mol_Feturizer/New_Systems/rnas/1qd3

>  <Rbt.Executable>
rbdock ($Id: //depot/dev/client3/rdock/2013.1/src/exe/rbdock.cxx#4 $)

>  <Rbt.Library>
libRbt.so (2013.1, Build901 2013/11/27)

>  <Rbt.Parameter_File>
/export/apps/rDock/src/rDock_2013.1_src/data/scripts/dock_solv.prm

>  <Rbt.Receptor>
prm/pocket_docking_3.prm

>  <SCORE>
-48.4671

>  <SCORE.INTER>
-36.311

>  <SCORE.INTER.CONST>
1

>  <SCORE.INTER.POLAR>
-5.84395

>  <SCORE.INTER.ROT>
9

>  <SCORE.INTER.SOLV>
32.5964

>  <SCORE.INTER.VDW>
-25.1929

>  <SCORE.INTER.norm>
-0.864548

>  <SCORE.INTRA>
-14.7118

>  <SCORE.INTRA.DIHEDRAL>
-16.3925

>  <SCORE.INTRA.DIHEDRAL.0>
40.6252

>  <SCORE.INTRA.POLAR>
-0.42339

>  <SCORE.INTRA.POLAR.0>
-1.20161

>  <SCORE.INTRA.REPUL>
-0.0804775

>  <SCORE.INTRA.REPUL.0>
0.115675

>  <SCORE.INTRA.SOLV>
-7.74078

>  <SCORE.INTRA.SOLV.lig_0>
-154.895

>  <SCORE.INTRA.VDW>
-0.803229

>  <SCORE.INTRA.VDW.0>
2.2925

>  <SCORE.INTRA.norm>
-0.35028

>  <SCORE.RESTR>
2.55565

>  <SCORE.RESTR.CAVITY>
2.55565

>  <SCORE.RESTR.norm>
0.0608489

>  <SCORE.SYSTEM>
0

>  <SCORE.SYSTEM.CONST>
0

>  <SCORE.SYSTEM.DIHEDRAL>
0

>  <SCORE.SYSTEM.SOLV>
0

>  <SCORE.SYSTEM.norm>
0

>  <SCORE.heavy>
42

>  <SCORE.norm>
-1.15398

>  <RMSD>
5.513

$$$$

 OpenBabel11021811413D
libRbt.so/2013.1/901 2013/11/27
 42 45  0  0  0  0  0  0  0  0999 V2000
    6.2995   -2.4315    0.6156 O   0  0  0  0  0  0  0  0  0  0  0  0
    7.5248   -1.7151    0.5610 C   0  0  0  0  0  0  0  0  0  0  0  0
    7.9720   -1.5644   -0.8935 C   0  0  1  0  0  0  0  0  0  0  0  0
    9.1969   -0.8056   -0.9903 O   0  0  0  0  0  0  0  0  0  0  0  0
    8.2528   -2.8913   -1.5790 C   0  0  2  0  0  0  0  0  0  0  0  0
    9.1146   -2.4261   -2.7408 C   0  0  1  0  0  0  0  0  0  0  0  0
    8.2921   -1.8472   -3.7480 O   0  0  0  0  0  0  0  0  0  0  0  0
    9.9863   -1.3357   -2.0852 C   0  0  2  0  0  0  0  0  0  0  0  0
    7.7019   -6.8160   -3.4676 C   0  0  2  0  0  0  0  0  0  0  0  0
    7.4112   -5.8224   -2.4727 O   0  0  0  0  0  0  0  0  0  0  0  0
    7.2701   -4.5109   -3.0478 C   0  0  2  0  0  0  0  0  0  0  0  0
    7.0368   -3.5292   -2.0166 O   0  0  0  0  0  0  0  0  0  0  0  0
    6.1253   -4.4889   -4.0751 C   0  0  2  0  0  0  0  0  0  0  0  0
    4.8361   -4.4638   -3.4089 N   0  3  0  0  0  0  0  0  0  0  0  0
    6.1919   -5.6515   -5.0724 C   0  0  1  0  0  0  0  0  0  0  0  0
    7.1830   -5.3772   -6.0499 O   0  0  0  0  0  0  0  0  0  0  0  0
    6.5012   -6.9815   -4.3904 C   0  0  2  0  0  0  0  0  0  0  0  0
    5.3698   -7.4211   -3.6481 O   0  0  0  0  0  0  0  0  0  0  0  0
    8.0693   -8.1435   -2.8107 C   0  0  0  0  0  0  0  0  0  0  0  0
    8.6749   -9.0376   -3.7796 N   0  3  0  0  0  0  0  0  0  0  0  0
   14.0682    0.4964    1.0945 C   0  0  1  0  0  0  0  0  0  0  0  0
   12.8345   -0.0635    0.5980 O   0  0  0  0  0  0  0  0  0  0  0  0
   12.3874    0.5411   -0.6374 C   0  0  2  0  0  0  0  0  0  0  0  0
   13.2942    0.2698   -1.7345 O   0  0  0  0  0  0  0  0  0  0  0  0
   12.1753    2.0489   -0.4553 C   0  0  2  0  0  0  0  0  0  0  0  0
   11.9337    2.6742   -1.7423 N   0  3  0  0  0  0  0  0  0  0  0  0
   13.3777    2.7129    0.2064 C   0  0  1  0  0  0  0  0  0  0  0  0
   13.0490    4.0453    0.5680 O   0  0  0  0  0  0  0  0  0  0  0  0
   13.8759    1.9655    1.4338 C   0  0  2  0  0  0  0  0  0  0  0  0
   15.0998    2.5237    1.8886 O   0  0  0  0  0  0  0  0  0  0  0  0
   14.4910   -0.2226    2.3724 C   0  0  0  0  0  0  0  0  0  0  0  0
   14.9851   -1.5542    2.0736 N   0  3  0  0  0  0  0  0  0  0  0  0
   13.8943   -3.2919   -3.9826 C   0  0  2  0  0  0  0  0  0  0  0  0
   15.0581   -2.7575   -3.1713 C   0  0  0  0  0  0  0  0  0  0  0  0
   14.8111   -1.3137   -2.7747 C   0  0  1  0  0  0  0  0  0  0  0  0
   13.5653   -1.1463   -1.9036 C   0  0  2  0  0  0  0  0  0  0  0  0
   12.3435   -1.8437   -2.5453 C   0  0  1  0  0  0  0  0  0  0  0  0
   12.6002   -3.2151   -3.1839 C   0  0  1  0  0  0  0  0  0  0  0  0
   14.1575   -4.6693   -4.3533 N   0  3  0  0  0  0  0  0  0  0  0  0
   15.9839   -0.8059   -2.0898 N   0  3  0  0  0  0  0  0  0  0  0  0
   11.2326   -1.9281   -1.6193 O   0  0  0  0  0  0  0  0  0  0  0  0
   11.5010   -3.5729   -4.0152 O   0  0  0  0  0  0  0  0  0  0  0  0
  1  2  1  0  0  0  0
  3  2  1  1  0  0  0
  3  4  1  0  0  0  0
  3  5  1  0  0  0  0
  4  8  1  0  0  0  0
  5  6  1  0  0  0  0
  5 12  1  6  0  0  0
  6  7  1  6  0  0  0
  6  8  1  0  0  0  0
  8 41  1  1  0  0  0
  9 10  1  0  0  0  0
  9 17  1  0  0  0  0
  9 19  1  1  0  0  0
 10 11  1  0  0  0  0
 11 12  1  1  0  0  0
 11 13  1  0  0  0  0
 13 14  1  1  0  0  0
 13 15  1  0  0  0  0
 15 16  1  6  0  0  0
 15 17  1  0  0  0  0
 17 18  1  1  0  0  0
 19 20  1  0  0  0  0
 21 22  1  0  0  0  0
 21 29  1  0  0  0  0
 21 31  1  1  0  0  0
 22 23  1  0  0  0  0
 23 24  1  6  0  0  0
 23 25  1  0  0  0  0
 25 26  1  6  0  0  0
 25 27  1  0  0  0  0
 27 28  1  1  0  0  0
 27 29  1  0  0  0  0
 29 30  1  6  0  0  0
 31 32  1  0  0  0  0
 33 34  1  0  0  0  0
 33 38  1  0  0  0  0
 33 39  1  1  0  0  0
 34 35  1  0  0  0  0
 35 36  1  0  0  0  0
 35 40  1  1  0  0  0
 36 24  1  6  0  0  0
 36 37  1  0  0  0  0
 37 38  1  0  0  0  0
 37 41  1  1  0  0  0
 38 42  1  6  0  0  0
M  CHG  6  14   1  20   1  26   1  32   1  39   1  40   1
M  END
>  <CHROM.1>
-76.44840737,178.32108311,159.68002068,165.07445046,-149.04322070,-165.93813219
94.34590111,127.27413198,-48.49194921,162.39097055,57.41419446,72.99473696
53.23817444,-163.42890930,-145.10168940,60.36808547,-179.34108555,-165.75860316
-177.53494493,-52.19378906,123.85765026,-62.66065862,10.59848271,-2.30212390
-1.88646245,2.31120000,-0.11089356,-2.54604863

>  <Name>


>  <RI>
0

>  <Rbt.Current_Directory>
/home/itssahil/PROJECTS/Mol_Feturizer/New_Systems/rnas/1qd3

>  <Rbt.Executable>
rbdock ($Id: //depot/dev/client3/rdock/2013.1/src/exe/rbdock.cxx#4 $)

>  <Rbt.Library>
libRbt.so (2013.1, Build901 2013/11/27)

>  <Rbt.Parameter_File>
/export/apps/rDock/src/rDock_2013.1_src/data/scripts/dock_solv.prm

>  <Rbt.Receptor>
prm/pocket_docking_6.prm

>  <SCORE>
-46.9368

>  <SCORE.INTER>
-30.8477

>  <SCORE.INTER.CONST>
1

>  <SCORE.INTER.POLAR>
-7.71763

>  <SCORE.INTER.ROT>
9

>  <SCORE.INTER.SOLV>
23.8719

>  <SCORE.INTER.VDW>
-12.3971

>  <SCORE.INTER.norm>
-0.73447

>  <SCORE.INTRA>
-16.1098

>  <SCORE.INTRA.DIHEDRAL>
-9.9017

>  <SCORE.INTRA.DIHEDRAL.0>
40.6252

>  <SCORE.INTRA.POLAR>
1.17774

>  <SCORE.INTRA.POLAR.0>
-1.20161

>  <SCORE.INTRA.REPUL>
-0.115675

>  <SCORE.INTRA.REPUL.0>
0.115675

>  <SCORE.INTRA.SOLV>
-14.5469

>  <SCORE.INTRA.SOLV.lig_0>
-154.895

>  <SCORE.INTRA.VDW>
-7.3115

>  <SCORE.INTRA.VDW.0>
2.2925

>  <SCORE.INTRA.norm>
-0.383568

>  <SCORE.RESTR>
0.0208009

>  <SCORE.RESTR.CAVITY>
0.0208009

>  <SCORE.RESTR.norm>
0.00049526

>  <SCORE.SYSTEM>
0

>  <SCORE.SYSTEM.CONST>
0

>  <SCORE.SYSTEM.DIHEDRAL>
0

>  <SCORE.SYSTEM.SOLV>
0

>  <SCORE.SYSTEM.norm>
0

>  <SCORE.heavy>
42

>  <SCORE.norm>
-1.11754

>  <RMSD>
5.546

$$$$

 OpenBabel11021811413D
libRbt.so/2013.1/901 2013/11/27
 42 45  0  0  0  0  0  0  0  0999 V2000
    3.8595   -8.7716   -2.9535 O   0  0  0  0  0  0  0  0  0  0  0  0
    4.9241   -8.0321   -2.3725 C   0  0  0  0  0  0  0  0  0  0  0  0
    5.0756   -6.6910   -3.0915 C   0  0  1  0  0  0  0  0  0  0  0  0
    6.0297   -5.8401   -2.4198 O   0  0  0  0  0  0  0  0  0  0  0  0
    5.5760   -6.8255   -4.5201 C   0  0  2  0  0  0  0  0  0  0  0  0
    6.0881   -5.4165   -4.7681 C   0  0  1  0  0  0  0  0  0  0  0  0
    4.9921   -4.5435   -5.0179 O   0  0  0  0  0  0  0  0  0  0  0  0
    6.7416   -5.0636   -3.4164 C   0  0  2  0  0  0  0  0  0  0  0  0
    6.3307   -9.2260   -7.8516 C   0  0  2  0  0  0  0  0  0  0  0  0
    5.7782   -8.8148   -6.5917 O   0  0  0  0  0  0  0  0  0  0  0  0
    5.0039   -7.6079   -6.7126 C   0  0  2  0  0  0  0  0  0  0  0  0
    4.5127   -7.1911   -5.4216 O   0  0  0  0  0  0  0  0  0  0  0  0
    3.8332   -7.8094   -7.6899 C   0  0  2  0  0  0  0  0  0  0  0  0
    2.7667   -8.5707   -7.0658 N   0  3  0  0  0  0  0  0  0  0  0  0
    4.2593   -8.4641   -9.0092 C   0  0  1  0  0  0  0  0  0  0  0  0
    4.8875   -7.4956   -9.8341 O   0  0  0  0  0  0  0  0  0  0  0  0
    5.2061   -9.6413   -8.7915 C   0  0  2  0  0  0  0  0  0  0  0  0
    4.4922  -10.7437   -8.2441 O   0  0  0  0  0  0  0  0  0  0  0  0
    7.3247  -10.3673   -7.6561 C   0  0  0  0  0  0  0  0  0  0  0  0
    8.4647   -9.9187   -6.8790 N   0  3  0  0  0  0  0  0  0  0  0  0
    9.2727   -0.1230   -1.2167 C   0  0  1  0  0  0  0  0  0  0  0  0
   10.3385   -1.0957   -1.2007 O   0  0  0  0  0  0  0  0  0  0  0  0
    9.8697   -2.4606   -1.2938 C   0  0  2  0  0  0  0  0  0  0  0  0
    9.2432   -2.7341   -2.5715 O   0  0  0  0  0  0  0  0  0  0  0  0
    8.9228   -2.7872   -0.1326 C   0  0  2  0  0  0  0  0  0  0  0  0
    8.2982   -4.0787   -0.3509 N   0  3  0  0  0  0  0  0  0  0  0  0
    7.8388   -1.7271    0.0278 C   0  0  1  0  0  0  0  0  0  0  0  0
    7.1382   -1.9401    1.2436 O   0  0  0  0  0  0  0  0  0  0  0  0
    8.3802   -0.3061   -0.0001 C   0  0  2  0  0  0  0  0  0  0  0  0
    7.3117    0.6286   -0.0359 O   0  0  0  0  0  0  0  0  0  0  0  0
    9.8520    1.2875   -1.1580 C   0  0  0  0  0  0  0  0  0  0  0  0
   11.2306    1.2964   -1.6121 N   0  3  0  0  0  0  0  0  0  0  0  0
   10.6751   -4.4898   -6.1724 C   0  0  2  0  0  0  0  0  0  0  0  0
   11.6933   -3.9231   -5.2028 C   0  0  0  0  0  0  0  0  0  0  0  0
   11.0198   -3.0008   -4.2035 C   0  0  1  0  0  0  0  0  0  0  0  0
    9.9686   -3.7177   -3.3549 C   0  0  2  0  0  0  0  0  0  0  0  0
    8.9851   -4.5110   -4.2460 C   0  0  1  0  0  0  0  0  0  0  0  0
    9.5994   -5.2704   -5.4293 C   0  0  1  0  0  0  0  0  0  0  0  0
   11.3443   -5.3618   -7.1188 N   0  3  0  0  0  0  0  0  0  0  0  0
   12.0337   -2.4003   -3.3587 N   0  3  0  0  0  0  0  0  0  0  0  0
    8.1573   -5.4034   -3.4602 O   0  0  0  0  0  0  0  0  0  0  0  0
    8.5739   -5.6584   -6.3376 O   0  0  0  0  0  0  0  0  0  0  0  0
  1  2  1  0  0  0  0
  3  2  1  1  0  0  0
  3  4  1  0  0  0  0
  3  5  1  0  0  0  0
  4  8  1  0  0  0  0
  5  6  1  0  0  0  0
  5 12  1  6  0  0  0
  6  7  1  1  0  0  0
  6  8  1  0  0  0  0
  8 41  1  6  0  0  0
  9 10  1  0  0  0  0
  9 17  1  0  0  0  0
  9 19  1  1  0  0  0
 10 11  1  0  0  0  0
 11 12  1  1  0  0  0
 11 13  1  0  0  0  0
 13 14  1  1  0  0  0
 13 15  1  0  0  0  0
 15 16  1  6  0  0  0
 15 17  1  0  0  0  0
 17 18  1  1  0  0  0
 19 20  1  0  0  0  0
 21 22  1  0  0  0  0
 21 29  1  0  0  0  0
 21 31  1  1  0  0  0
 22 23  1  0  0  0  0
 23 24  1  6  0  0  0
 23 25  1  0  0  0  0
 25 26  1  6  0  0  0
 25 27  1  0  0  0  0
 27 28  1  1  0  0  0
 27 29  1  0  0  0  0
 29 30  1  6  0  0  0
 31 32  1  0  0  0  0
 33 34  1  0  0  0  0
 33 38  1  0  0  0  0
 33 39  1  6  0  0  0
 34 35  1  0  0  0  0
 35 36  1  0  0  0  0
 35 40  1  1  0  0  0
 36 24  1  6  0  0  0
 36 37  1  0  0  0  0
 37 38  1  0  0  0  0
 37 41  1  1  0  0  0
 38 42  1  6  0  0  0
M  CHG  6  14   1  20   1  26   1  32   1  39   1  40   1
M  END
>  <CHROM.1>
174.74531573,172.48949331,-167.29522508,-168.83125983,-169.08771275,-64.37703912
64.66638994,-77.54652580,-176.02327412,-67.37426659,-58.10014159,21.92503734
115.42761325,-88.52547529,178.69302290,-54.69990919,55.96514301,-36.05714529
49.56691231,-60.80212879,112.67994242,59.69435470,7.51273366,-5.13260512
-4.22660961,2.04144257,-0.46495531,-2.24742033

>  <Name>


>  <RI>
0

>  <Rbt.Current_Directory>
/home/itssahil/PROJECTS/Mol_Feturizer/New_Systems/rnas/1qd3

>  <Rbt.Executable>
rbdock ($Id: //depot/dev/client3/rdock/2013.1/src/exe/rbdock.cxx#4 $)

>  <Rbt.Library>
libRbt.so (2013.1, Build901 2013/11/27)

>  <Rbt.Parameter_File>
/export/apps/rDock/src/rDock_2013.1_src/data/scripts/dock_solv.prm

>  <Rbt.Receptor>
prm/pocket_docking_5.prm

>  <SCORE>
-47.5827

>  <SCORE.INTER>
-26.8962

>  <SCORE.INTER.CONST>
1

>  <SCORE.INTER.POLAR>
-4.11788

>  <SCORE.INTER.ROT>
9

>  <SCORE.INTER.SOLV>
23.1879

>  <SCORE.INTER.VDW>
-21.5338

>  <SCORE.INTER.norm>
-0.640385

>  <SCORE.INTRA>
-20.8307

>  <SCORE.INTRA.DIHEDRAL>
-13.0322

>  <SCORE.INTRA.DIHEDRAL.0>
40.6252

>  <SCORE.INTRA.POLAR>
-0.760523

>  <SCORE.INTRA.POLAR.0>
-1.20161

>  <SCORE.INTRA.REPUL>
-0.0846388

>  <SCORE.INTRA.REPUL.0>
0.115675

>  <SCORE.INTRA.SOLV>
-6.35145

>  <SCORE.INTRA.SOLV.lig_0>
-154.895

>  <SCORE.INTRA.VDW>
-8.12985

>  <SCORE.INTRA.VDW.0>
2.2925

>  <SCORE.INTRA.norm>
-0.495968

>  <SCORE.RESTR>
0.144114

>  <SCORE.RESTR.CAVITY>
0.144114

>  <SCORE.RESTR.norm>
0.00343129

>  <SCORE.SYSTEM>
0

>  <SCORE.SYSTEM.CONST>
0

>  <SCORE.SYSTEM.DIHEDRAL>
0

>  <SCORE.SYSTEM.SOLV>
0

>  <SCORE.SYSTEM.norm>
0

>  <SCORE.heavy>
42

>  <SCORE.norm>
-1.13292

>  <RMSD>
5.643

$$$$

 OpenBabel11021811413D
libRbt.so/2013.1/901 2013/11/27
 42 45  0  0  0  0  0  0  0  0999 V2000
    5.8187   -2.8323   -2.4347 O   0  0  0  0  0  0  0  0  0  0  0  0
    5.8373   -1.4385   -2.1615 C   0  0  0  0  0  0  0  0  0  0  0  0
    7.1796   -1.0507   -1.5400 C   0  0  1  0  0  0  0  0  0  0  0  0
    7.0724    0.1728   -0.7802 O   0  0  0  0  0  0  0  0  0  0  0  0
    7.7200   -2.0913   -0.5732 C   0  0  2  0  0  0  0  0  0  0  0  0
    8.7107   -1.2501    0.2140 C   0  0  1  0  0  0  0  0  0  0  0  0
    9.8924   -1.0539   -0.5548 O   0  0  0  0  0  0  0  0  0  0  0  0
    7.9565    0.0866    0.3660 C   0  0  2  0  0  0  0  0  0  0  0  0
    8.6892   -6.6888   -0.2999 C   0  0  2  0  0  0  0  0  0  0  0  0
    8.4956   -5.5421   -1.1420 O   0  0  0  0  0  0  0  0  0  0  0  0
    8.6119   -4.3101   -0.4076 C   0  0  2  0  0  0  0  0  0  0  0  0
    8.3549   -3.1818   -1.2693 O   0  0  0  0  0  0  0  0  0  0  0  0
   10.0063   -4.1881    0.2305 C   0  0  2  0  0  0  0  0  0  0  0  0
   10.9981   -3.8251   -0.7650 N   0  3  0  0  0  0  0  0  0  0  0  0
   10.4360   -5.4549    0.9797 C   0  0  1  0  0  0  0  0  0  0  0  0
    9.7768   -5.5060    2.2350 O   0  0  0  0  0  0  0  0  0  0  0  0
   10.1310   -6.7251    0.1903 C   0  0  2  0  0  0  0  0  0  0  0  0
   11.0212   -6.8359   -0.9141 O   0  0  0  0  0  0  0  0  0  0  0  0
    8.3374   -7.9713   -1.0484 C   0  0  0  0  0  0  0  0  0  0  0  0
    6.9434   -7.9571   -1.4504 N   0  3  0  0  0  0  0  0  0  0  0  0
   11.2234    4.4692    1.1947 C   0  0  1  0  0  0  0  0  0  0  0  0
    9.8141    4.5924    0.9103 O   0  0  0  0  0  0  0  0  0  0  0  0
    9.2364    3.3922    0.3471 C   0  0  2  0  0  0  0  0  0  0  0  0
    9.2498    2.2897    1.2873 O   0  0  0  0  0  0  0  0  0  0  0  0
    9.9444    3.0133   -0.9594 C   0  0  2  0  0  0  0  0  0  0  0  0
    9.5024    1.7035   -1.4006 N   0  3  0  0  0  0  0  0  0  0  0  0
   11.4605    3.0024   -0.7979 C   0  0  1  0  0  0  0  0  0  0  0  0
   12.0759    2.8822   -2.0711 O   0  0  0  0  0  0  0  0  0  0  0  0
   11.9978    4.2382   -0.0926 C   0  0  2  0  0  0  0  0  0  0  0  0
   13.3800    4.0817    0.1929 O   0  0  0  0  0  0  0  0  0  0  0  0
   11.7440    5.7586    1.8233 C   0  0  0  0  0  0  0  0  0  0  0  0
   11.5526    5.7429    3.2620 N   0  3  0  0  0  0  0  0  0  0  0  0
    7.3328    1.7543    5.0473 C   0  0  2  0  0  0  0  0  0  0  0  0
    7.4278    3.1611    4.4906 C   0  0  0  0  0  0  0  0  0  0  0  0
    8.4644    3.2260    3.3842 C   0  0  1  0  0  0  0  0  0  0  0  0
    8.1233    2.3169    2.2026 C   0  0  2  0  0  0  0  0  0  0  0  0
    7.7999    0.8831    2.6828 C   0  0  1  0  0  0  0  0  0  0  0  0
    6.9482    0.7667    3.9538 C   0  0  1  0  0  0  0  0  0  0  0  0
    6.3410    1.7207    6.1052 N   0  3  0  0  0  0  0  0  0  0  0  0
    8.6007    4.6014    2.9462 N   0  3  0  0  0  0  0  0  0  0  0  0
    7.2189    0.0856    1.6220 O   0  0  0  0  0  0  0  0  0  0  0  0
    7.0179   -0.5619    4.4607 O   0  0  0  0  0  0  0  0  0  0  0  0
  1  2  1  0  0  0  0
  3  2  1  1  0  0  0
  3  4  1  0  0  0  0
  3  5  1  0  0  0  0
  4  8  1  0  0  0  0
  5  6  1  0  0  0  0
  5 12  1  6  0  0  0
  6  7  1  6  0  0  0
  6  8  1  0  0  0  0
  8 41  1  1  0  0  0
  9 10  1  0  0  0  0
  9 17  1  0  0  0  0
  9 19  1  6  0  0  0
 10 11  1  0  0  0  0
 11 12  1  6  0  0  0
 11 13  1  0  0  0  0
 13 14  1  6  0  0  0
 13 15  1  0  0  0  0
 15 16  1  1  0  0  0
 15 17  1  0  0  0  0
 17 18  1  6  0  0  0
 19 20  1  0  0  0  0
 21 22  1  0  0  0  0
 21 29  1  0  0  0  0
 21 31  1  6  0  0  0
 22 23  1  0  0  0  0
 23 24  1  1  0  0  0
 23 25  1  0  0  0  0
 25 26  1  1  0  0  0
 25 27  1  0  0  0  0
 27 28  1  6  0  0  0
 27 29  1  0  0  0  0
 29 30  1  1  0  0  0
 31 32  1  0  0  0  0
 33 34  1  0  0  0  0
 33 38  1  0  0  0  0
 33 39  1  1  0  0  0
 34 35  1  0  0  0  0
 35 36  1  0  0  0  0
 35 40  1  6  0  0  0
 36 24  1  6  0  0  0
 36 37  1  0  0  0  0
 37 38  1  0  0  0  0
 37 41  1  6  0  0  0
 38 42  1  1  0  0  0
M  CHG  6  14   1  20   1  26   1  32   1  39   1  40   1
M  END
>  <CHROM.1>
-62.40760252,-157.25986082,-167.27616602,-167.35479318,-138.79668713,-61.16623613
146.87496605,78.22251108,63.11897659,54.54982045,171.27146654,86.49708375
83.51436323,-85.06255029,164.52049761,48.30319754,65.21868129,-115.29595766
68.95661924,174.53412939,50.79929818,94.96207772,9.02058329,-0.36152439,0.68588588
1.75980719,-0.85646240,-2.73502428

>  <Name>


>  <RI>
0

>  <Rbt.Current_Directory>
/home/itssahil/PROJECTS/Mol_Feturizer/New_Systems/rnas/1qd3

>  <Rbt.Executable>
rbdock ($Id: //depot/dev/client3/rdock/2013.1/src/exe/rbdock.cxx#4 $)

>  <Rbt.Library>
libRbt.so (2013.1, Build901 2013/11/27)

>  <Rbt.Parameter_File>
/export/apps/rDock/src/rDock_2013.1_src/data/scripts/dock_solv.prm

>  <Rbt.Receptor>
prm/pocket_docking_4.prm

>  <SCORE>
-42.9515

>  <SCORE.INTER>
-33.9162

>  <SCORE.INTER.CONST>
1

>  <SCORE.INTER.POLAR>
-4.96382

>  <SCORE.INTER.ROT>
9

>  <SCORE.INTER.SOLV>
38.4854

>  <SCORE.INTER.VDW>
-28.4932

>  <SCORE.INTER.norm>
-0.807529

>  <SCORE.INTRA>
-10.3482

>  <SCORE.INTRA.DIHEDRAL>
-7.53685

>  <SCORE.INTRA.DIHEDRAL.0>
40.6252

>  <SCORE.INTRA.POLAR>
-1.14042

>  <SCORE.INTRA.POLAR.0>
-1.20161

>  <SCORE.INTRA.REPUL>
-0.115675

>  <SCORE.INTRA.REPUL.0>
0.115675

>  <SCORE.INTRA.SOLV>
3.59999

>  <SCORE.INTRA.SOLV.lig_0>
-154.895

>  <SCORE.INTRA.VDW>
-3.92397

>  <SCORE.INTRA.VDW.0>
2.2925

>  <SCORE.INTRA.norm>
-0.246386

>  <SCORE.RESTR>
1.31291

>  <SCORE.RESTR.CAVITY>
1.31291

>  <SCORE.RESTR.norm>
0.0312597

>  <SCORE.SYSTEM>
0

>  <SCORE.SYSTEM.CONST>
0

>  <SCORE.SYSTEM.DIHEDRAL>
0

>  <SCORE.SYSTEM.SOLV>
0

>  <SCORE.SYSTEM.norm>
0

>  <SCORE.heavy>
42

>  <SCORE.norm>
-1.02265

>  <RMSD>
5.744

$$$$

 OpenBabel11021811413D
libRbt.so/2013.1/901 2013/11/27
 42 45  0  0  0  0  0  0  0  0999 V2000
    7.6118   -2.6136    0.6125 O   0  0  0  0  0  0  0  0  0  0  0  0
    6.7806   -2.0625   -0.3989 C   0  0  0  0  0  0  0  0  0  0  0  0
    7.4151   -0.7856   -0.9516 C   0  0  1  0  0  0  0  0  0  0  0  0
    7.4946    0.2417    0.0604 O   0  0  0  0  0  0  0  0  0  0  0  0
    8.8368   -0.9852   -1.4501 C   0  0  2  0  0  0  0  0  0  0  0  0
    9.3370    0.4495   -1.4428 C   0  0  1  0  0  0  0  0  0  0  0  0
    8.8211    1.1444   -2.5728 O   0  0  0  0  0  0  0  0  0  0  0  0
    8.7069    1.0089   -0.1510 C   0  0  2  0  0  0  0  0  0  0  0  0
    6.9570   -4.5402   -3.7192 C   0  0  2  0  0  0  0  0  0  0  0  0
    7.4220   -3.1820   -3.7376 O   0  0  0  0  0  0  0  0  0  0  0  0
    8.4559   -2.9545   -2.7629 C   0  0  2  0  0  0  0  0  0  0  0  0
    8.8590   -1.5691   -2.7675 O   0  0  0  0  0  0  0  0  0  0  0  0
    9.6668   -3.8639   -3.0336 C   0  0  2  0  0  0  0  0  0  0  0  0
   10.4468   -3.3638   -4.1506 N   0  3  0  0  0  0  0  0  0  0  0  0
    9.2769   -5.3288   -3.2638 C   0  0  1  0  0  0  0  0  0  0  0  0
    8.9925   -5.9420   -2.0164 O   0  0  0  0  0  0  0  0  0  0  0  0
    8.0706   -5.4678   -4.1884 C   0  0  2  0  0  0  0  0  0  0  0  0
    8.4433   -5.1491   -5.5241 O   0  0  0  0  0  0  0  0  0  0  0  0
    5.7159   -4.6957   -4.5935 C   0  0  0  0  0  0  0  0  0  0  0  0
    4.5158   -4.6702   -3.7786 N   0  3  0  0  0  0  0  0  0  0  0  0
   12.1036    4.4763   -1.0308 C   0  0  1  0  0  0  0  0  0  0  0  0
   11.4841    3.1856   -0.8506 O   0  0  0  0  0  0  0  0  0  0  0  0
   11.8482    2.5442    0.3933 C   0  0  2  0  0  0  0  0  0  0  0  0
   11.3518    3.2702    1.5449 O   0  0  0  0  0  0  0  0  0  0  0  0
   13.3669    2.3482    0.4760 C   0  0  2  0  0  0  0  0  0  0  0  0
   13.7371    1.9013    1.8061 N   0  3  0  0  0  0  0  0  0  0  0  0
   14.1210    3.6328    0.1511 C   0  0  1  0  0  0  0  0  0  0  0  0
   15.5047    3.3516    0.0077 O   0  0  0  0  0  0  0  0  0  0  0  0
   13.6142    4.3249   -1.1049 C   0  0  2  0  0  0  0  0  0  0  0  0
   14.2242    5.5994   -1.2464 O   0  0  0  0  0  0  0  0  0  0  0  0
   11.6360    5.1016   -2.3419 C   0  0  0  0  0  0  0  0  0  0  0  0
   12.0721    6.4827   -2.4371 N   0  3  0  0  0  0  0  0  0  0  0  0
    7.6849    2.7249    3.6320 C   0  0  2  0  0  0  0  0  0  0  0  0
    7.9812    4.0972    3.0599 C   0  0  0  0  0  0  0  0  0  0  0  0
    9.4546    4.2245    2.7198 C   0  0  1  0  0  0  0  0  0  0  0  0
    9.9064    3.2116    1.6668 C   0  0  2  0  0  0  0  0  0  0  0  0
    9.4677    1.7798    2.0520 C   0  0  1  0  0  0  0  0  0  0  0  0
    8.0564    1.6342    2.6365 C   0  0  1  0  0  0  0  0  0  0  0  0
    6.2736    2.6313    3.9534 N   0  3  0  0  0  0  0  0  0  0  0  0
    9.7196    5.5778    2.2721 N   0  3  0  0  0  0  0  0  0  0  0  0
    9.6463    0.8549    0.9513 O   0  0  0  0  0  0  0  0  0  0  0  0
    7.9184    0.3569    3.2500 O   0  0  0  0  0  0  0  0  0  0  0  0
  1  2  1  0  0  0  0
  3  2  1  1  0  0  0
  3  4  1  0  0  0  0
  3  5  1  0  0  0  0
  4  8  1  0  0  0  0
  5  6  1  0  0  0  0
  5 12  1  6  0  0  0
  6  7  1  6  0  0  0
  6  8  1  0  0  0  0
  8 41  1  1  0  0  0
  9 10  1  0  0  0  0
  9 17  1  0  0  0  0
  9 19  1  6  0  0  0
 10 11  1  0  0  0  0
 11 12  1  6  0  0  0
 11 13  1  0  0  0  0
 13 14  1  6  0  0  0
 13 15  1  0  0  0  0
 15 16  1  1  0  0  0
 15 17  1  0  0  0  0
 17 18  1  6  0  0  0
 19 20  1  0  0  0  0
 21 22  1  0  0  0  0
 21 29  1  0  0  0  0
 21 31  1  6  0  0  0
 22 23  1  0  0  0  0
 23 24  1  1  0  0  0
 23 25  1  0  0  0  0
 25 26  1  1  0  0  0
 25 27  1  0  0  0  0
 27 28  1  6  0  0  0
 27 29  1  0  0  0  0
 29 30  1  1  0  0  0
 31 32  1  0  0  0  0
 33 34  1  0  0  0  0
 33 38  1  0  0  0  0
 33 39  1  6  0  0  0
 34 35  1  0  0  0  0
 35 36  1  0  0  0  0
 35 40  1  6  0  0  0
 36 24  1  1  0  0  0
 36 37  1  0  0  0  0
 37 38  1  0  0  0  0
 37 41  1  6  0  0  0
 38 42  1  1  0  0  0
M  CHG  6  14   1  20   1  26   1  32   1  39   1  40   1
M  END
>  <CHROM.1>
178.70513387,-64.43952403,-71.23351643,-70.56866450,-87.56153512,-98.87672304
128.45531917,78.86679224,54.76555643,42.93781956,-127.66755357,170.67927097
69.02322308,-168.49739103,-35.29821027,62.00471363,64.96221970,53.31631303
57.83499368,-40.58041853,-71.95172356,-51.03681067,9.59970673,0.45451823
-0.68415171,2.07642303,-0.60419870,-2.38110869

>  <Name>


>  <RI>
0

>  <Rbt.Current_Directory>
/home/itssahil/PROJECTS/Mol_Feturizer/New_Systems/rnas/1qd3

>  <Rbt.Executable>
rbdock ($Id: //depot/dev/client3/rdock/2013.1/src/exe/rbdock.cxx#4 $)

>  <Rbt.Library>
libRbt.so (2013.1, Build901 2013/11/27)

>  <Rbt.Parameter_File>
/export/apps/rDock/src/rDock_2013.1_src/data/scripts/dock_solv.prm

>  <Rbt.Receptor>
prm/pocket_docking_8.prm

>  <SCORE>
-67.9703

>  <SCORE.INTER>
-48.4512

>  <SCORE.INTER.CONST>
1

>  <SCORE.INTER.POLAR>
-7.49111

>  <SCORE.INTER.ROT>
9

>  <SCORE.INTER.SOLV>
37.9448

>  <SCORE.INTER.VDW>
-29.5787

>  <SCORE.INTER.norm>
-1.1536

>  <SCORE.INTRA>
-19.5194

>  <SCORE.INTRA.DIHEDRAL>
-14.4592

>  <SCORE.INTRA.DIHEDRAL.0>
40.6252

>  <SCORE.INTRA.POLAR>
0.427265

>  <SCORE.INTRA.POLAR.0>
-1.20161

>  <SCORE.INTRA.REPUL>
-0.115675

>  <SCORE.INTRA.REPUL.0>
0.115675

>  <SCORE.INTRA.SOLV>
-12.6276

>  <SCORE.INTRA.SOLV.lig_0>
-154.895

>  <SCORE.INTRA.VDW>
-6.85028

>  <SCORE.INTRA.VDW.0>
2.2925

>  <SCORE.INTRA.norm>
-0.464747

>  <SCORE.RESTR>
0.000285459

>  <SCORE.RESTR.CAVITY>
0.000285459

>  <SCORE.RESTR.norm>
6.79664e-06

>  <SCORE.SYSTEM>
0

>  <SCORE.SYSTEM.CONST>
0

>  <SCORE.SYSTEM.DIHEDRAL>
0

>  <SCORE.SYSTEM.SOLV>
0

>  <SCORE.SYSTEM.norm>
0

>  <SCORE.heavy>
42

>  <SCORE.norm>
-1.61834

>  <RMSD>
5.758

$$$$

 OpenBabel11021811413D
libRbt.so/2013.1/901 2013/11/27
 42 45  0  0  0  0  0  0  0  0999 V2000
   14.8092   -1.4364   -4.0170 O   0  0  0  0  0  0  0  0  0  0  0  0
   15.5687   -2.3923   -3.2910 C   0  0  0  0  0  0  0  0  0  0  0  0
   14.9309   -2.6278   -1.9212 C   0  0  1  0  0  0  0  0  0  0  0  0
   14.7510   -1.3865   -1.2054 O   0  0  0  0  0  0  0  0  0  0  0  0
   13.5528   -3.2636   -1.9985 C   0  0  2  0  0  0  0  0  0  0  0  0
   13.0067   -2.9091   -0.6256 C   0  0  1  0  0  0  0  0  0  0  0  0
   13.5735   -3.7714    0.3547 O   0  0  0  0  0  0  0  0  0  0  0  0
   13.5311   -1.4725   -0.4261 C   0  0  2  0  0  0  0  0  0  0  0  0
   15.5729   -6.0510   -4.9892 C   0  0  2  0  0  0  0  0  0  0  0  0
   15.1982   -5.7476   -3.6368 O   0  0  0  0  0  0  0  0  0  0  0  0
   13.9546   -5.0264   -3.5724 C   0  0  2  0  0  0  0  0  0  0  0  0
   13.6372   -4.6872   -2.2065 O   0  0  0  0  0  0  0  0  0  0  0  0
   12.8158   -5.8512   -4.1964 C   0  0  2  0  0  0  0  0  0  0  0  0
   12.3877   -6.9036   -3.2933 N   0  3  0  0  0  0  0  0  0  0  0  0
   13.1791   -6.4344   -5.5670 C   0  0  1  0  0  0  0  0  0  0  0  0
   13.0898   -5.4161   -6.5508 O   0  0  0  0  0  0  0  0  0  0  0  0
   14.5797   -7.0406   -5.5848 C   0  0  2  0  0  0  0  0  0  0  0  0
   14.5929   -8.2545   -4.8425 O   0  0  0  0  0  0  0  0  0  0  0  0
   16.9927   -6.6079   -5.0419 C   0  0  0  0  0  0  0  0  0  0  0  0
   17.9429   -5.6184   -4.5694 N   0  3  0  0  0  0  0  0  0  0  0  0
    9.4062    0.2601   -0.3459 C   0  0  1  0  0  0  0  0  0  0  0  0
   10.1908    1.4614   -0.4988 O   0  0  0  0  0  0  0  0  0  0  0  0
   10.6365    2.0184    0.7592 C   0  0  2  0  0  0  0  0  0  0  0  0
   11.5699    1.1440    1.4404 O   0  0  0  0  0  0  0  0  0  0  0  0
    9.4388    2.3546    1.6560 C   0  0  2  0  0  0  0  0  0  0  0  0
    9.8996    2.7114    2.9849 N   0  3  0  0  0  0  0  0  0  0  0  0
    8.4653    1.1858    1.7602 C   0  0  1  0  0  0  0  0  0  0  0  0
    7.2708    1.6139    2.3960 O   0  0  0  0  0  0  0  0  0  0  0  0
    8.1256    0.5657    0.4136 C   0  0  2  0  0  0  0  0  0  0  0  0
    7.3717   -0.6240    0.5942 O   0  0  0  0  0  0  0  0  0  0  0  0
    9.0132   -0.2849   -1.7160 C   0  0  0  0  0  0  0  0  0  0  0  0
    9.4782    0.5955   -2.7722 N   0  3  0  0  0  0  0  0  0  0  0  0
   14.6095    2.6604   -1.1211 C   0  0  2  0  0  0  0  0  0  0  0  0
   14.8156    2.7789    0.3761 C   0  0  0  0  0  0  0  0  0  0  0  0
   13.5042    2.5725    1.1112 C   0  0  1  0  0  0  0  0  0  0  0  0
   12.9029    1.1877    0.8670 C   0  0  2  0  0  0  0  0  0  0  0  0
   12.8367    0.8720   -0.6452 C   0  0  1  0  0  0  0  0  0  0  0  0
   14.0533    1.2896   -1.4817 C   0  0  1  0  0  0  0  0  0  0  0  0
   15.8748    2.8671   -1.7995 N   0  3  0  0  0  0  0  0  0  0  0  0
   13.7186    2.7924    2.5283 N   0  3  0  0  0  0  0  0  0  0  0  0
   12.5260   -0.5228   -0.8838 O   0  0  0  0  0  0  0  0  0  0  0  0
   13.7211    1.2552   -2.8658 O   0  0  0  0  0  0  0  0  0  0  0  0
  1  2  1  0  0  0  0
  3  2  1  6  0  0  0
  3  4  1  0  0  0  0
  3  5  1  0  0  0  0
  4  8  1  0  0  0  0
  5  6  1  0  0  0  0
  5 12  1  1  0  0  0
  6  7  1  1  0  0  0
  6  8  1  0  0  0  0
  8 41  1  6  0  0  0
  9 10  1  0  0  0  0
  9 17  1  0  0  0  0
  9 19  1  1  0  0  0
 10 11  1  0  0  0  0
 11 12  1  1  0  0  0
 11 13  1  0  0  0  0
 13 14  1  1  0  0  0
 13 15  1  0  0  0  0
 15 16  1  6  0  0  0
 15 17  1  0  0  0  0
 17 18  1  1  0  0  0
 19 20  1  0  0  0  0
 21 22  1  0  0  0  0
 21 29  1  0  0  0  0
 21 31  1  6  0  0  0
 22 23  1  0  0  0  0
 23 24  1  1  0  0  0
 23 25  1  0  0  0  0
 25 26  1  1  0  0  0
 25 27  1  0  0  0  0
 27 28  1  6  0  0  0
 27 29  1  0  0  0  0
 29 30  1  1  0  0  0
 31 32  1  0  0  0  0
 33 34  1  0  0  0  0
 33 38  1  0  0  0  0
 33 39  1  6  0  0  0
 34 35  1  0  0  0  0
 35 36  1  0  0  0  0
 35 40  1  1  0  0  0
 36 24  1  6  0  0  0
 36 37  1  0  0  0  0
 37 38  1  0  0  0  0
 37 41  1  1  0  0  0
 38 42  1  6  0  0  0
M  CHG  6  14   1  20   1  26   1  32   1  39   1  40   1
M  END
>  <CHROM.1>
-172.80485018,-54.04032939,-77.00640508,-55.20299181,-68.41153885,-62.64419791
118.89651536,81.20789112,63.19427056,-172.65120157,53.64426200,-3.02373140
76.85275352,66.74876635,-51.54572557,-58.15983443,55.29415282,120.38931502
63.41065172,69.81055882,-64.58938646,60.85128644,12.79294855,-1.48990827
-1.53812395,-1.13467331,0.25943747,0.49688358

>  <Name>


>  <RI>
0

>  <Rbt.Current_Directory>
/home/itssahil/PROJECTS/Mol_Feturizer/New_Systems/rnas/1qd3

>  <Rbt.Executable>
rbdock ($Id: //depot/dev/client3/rdock/2013.1/src/exe/rbdock.cxx#4 $)

>  <Rbt.Library>
libRbt.so (2013.1, Build901 2013/11/27)

>  <Rbt.Parameter_File>
/export/apps/rDock/src/rDock_2013.1_src/data/scripts/dock_solv.prm

>  <Rbt.Receptor>
prm/pocket_docking_8.prm

>  <SCORE>
-33.43

>  <SCORE.INTER>
-15.0486

>  <SCORE.INTER.CONST>
1

>  <SCORE.INTER.POLAR>
-3.7303

>  <SCORE.INTER.ROT>
9

>  <SCORE.INTER.SOLV>
21.1269

>  <SCORE.INTER.VDW>
-14.2404

>  <SCORE.INTER.norm>
-0.3583

>  <SCORE.INTRA>
-18.3814

>  <SCORE.INTRA.DIHEDRAL>
-17.9238

>  <SCORE.INTRA.DIHEDRAL.0>
40.6252

>  <SCORE.INTRA.POLAR>
0.948417

>  <SCORE.INTRA.POLAR.0>
-1.20161

>  <SCORE.INTRA.REPUL>
-0.115675

>  <SCORE.INTRA.REPUL.0>
0.115675

>  <SCORE.INTRA.SOLV>
-9.21313

>  <SCORE.INTRA.SOLV.lig_0>
-154.895

>  <SCORE.INTRA.VDW>
-7.45917

>  <SCORE.INTRA.VDW.0>
2.2925

>  <SCORE.INTRA.norm>
-0.437653

>  <SCORE.RESTR>
0

>  <SCORE.RESTR.CAVITY>
0

>  <SCORE.RESTR.norm>
0

>  <SCORE.SYSTEM>
0

>  <SCORE.SYSTEM.CONST>
0

>  <SCORE.SYSTEM.DIHEDRAL>
0

>  <SCORE.SYSTEM.SOLV>
0

>  <SCORE.SYSTEM.norm>
0

>  <SCORE.heavy>
42

>  <SCORE.norm>
-0.795953

>  <RMSD>
5.776

$$$$

 OpenBabel11021811413D
libRbt.so/2013.1/901 2013/11/27
 42 45  0  0  0  0  0  0  0  0999 V2000
    6.2695   -1.7780    2.0123 O   0  0  0  0  0  0  0  0  0  0  0  0
    6.9657   -2.2291    0.8592 C   0  0  0  0  0  0  0  0  0  0  0  0
    7.3294   -1.0361   -0.0256 C   0  0  1  0  0  0  0  0  0  0  0  0
    7.5192    0.1612    0.7593 O   0  0  0  0  0  0  0  0  0  0  0  0
    8.6221   -1.2314   -0.8003 C   0  0  2  0  0  0  0  0  0  0  0  0
    8.9604    0.2099   -1.1427 C   0  0  1  0  0  0  0  0  0  0  0  0
    8.1427    0.6528   -2.2202 O   0  0  0  0  0  0  0  0  0  0  0  0
    8.5706    0.9534    0.1510 C   0  0  2  0  0  0  0  0  0  0  0  0
    7.2364   -5.4565   -2.5202 C   0  0  2  0  0  0  0  0  0  0  0  0
    7.6315   -4.1093   -2.8205 O   0  0  0  0  0  0  0  0  0  0  0  0
    8.0853   -3.4082   -1.6486 C   0  0  2  0  0  0  0  0  0  0  0  0
    8.4189   -2.0427   -1.9739 O   0  0  0  0  0  0  0  0  0  0  0  0
    9.2982   -4.1204   -1.0256 C   0  0  2  0  0  0  0  0  0  0  0  0
   10.5010   -3.8557   -1.7935 N   0  3  0  0  0  0  0  0  0  0  0  0
    9.0877   -5.6301   -0.8607 C   0  0  1  0  0  0  0  0  0  0  0  0
    8.2639   -5.8700    0.2692 O   0  0  0  0  0  0  0  0  0  0  0  0
    8.4565   -6.2645   -2.0971 C   0  0  2  0  0  0  0  0  0  0  0  0
    9.4049   -6.3108   -3.1568 O   0  0  0  0  0  0  0  0  0  0  0  0
    6.5513   -6.0971   -3.7240 C   0  0  0  0  0  0  0  0  0  0  0  0
    5.2961   -5.4272   -4.0083 N   0  3  0  0  0  0  0  0  0  0  0  0
   12.0252    5.3327   -0.6218 C   0  0  1  0  0  0  0  0  0  0  0  0
   11.3035    4.0875   -0.7249 O   0  0  0  0  0  0  0  0  0  0  0  0
   11.6147    3.1555    0.3362 C   0  0  2  0  0  0  0  0  0  0  0  0
   11.1787    3.6401    1.6304 O   0  0  0  0  0  0  0  0  0  0  0  0
   13.1126    2.8270    0.3448 C   0  0  2  0  0  0  0  0  0  0  0  0
   13.4457    2.0641    1.5334 N   0  3  0  0  0  0  0  0  0  0  0  0
   13.9680    4.0884    0.3030 C   0  0  1  0  0  0  0  0  0  0  0  0
   15.3244    3.7387    0.0748 O   0  0  0  0  0  0  0  0  0  0  0  0
   13.5186    5.0835   -0.7558 C   0  0  2  0  0  0  0  0  0  0  0  0
   14.2297    6.3050   -0.6185 O   0  0  0  0  0  0  0  0  0  0  0  0
   11.6095    6.2724   -1.7501 C   0  0  0  0  0  0  0  0  0  0  0  0
   10.7506    7.3295   -1.2485 N   0  3  0  0  0  0  0  0  0  0  0  0
    7.8446    2.4816    4.0054 C   0  0  2  0  0  0  0  0  0  0  0  0
    7.9058    3.9148    3.5152 C   0  0  0  0  0  0  0  0  0  0  0  0
    9.3086    4.2575    3.0487 C   0  0  1  0  0  0  0  0  0  0  0  0
    9.7725    3.3830    1.8830 C   0  0  2  0  0  0  0  0  0  0  0  0
    9.5589    1.8840    2.1965 C   0  0  1  0  0  0  0  0  0  0  0  0
    8.2450    1.5158    2.8983 C   0  0  1  0  0  0  0  0  0  0  0  0
    6.4969    2.1816    4.4501 N   0  3  0  0  0  0  0  0  0  0  0  0
    9.3542    5.6600    2.6834 N   0  3  0  0  0  0  0  0  0  0  0  0
    9.7373    1.0634    1.0160 O   0  0  0  0  0  0  0  0  0  0  0  0
    8.3322    0.1947    3.4220 O   0  0  0  0  0  0  0  0  0  0  0  0
  1  2  1  0  0  0  0
  3  2  1  1  0  0  0
  3  4  1  0  0  0  0
  3  5  1  0  0  0  0
  4  8  1  0  0  0  0
  5  6  1  0  0  0  0
  5 12  1  6  0  0  0
  6  7  1  6  0  0  0
  6  8  1  0  0  0  0
  8 41  1  1  0  0  0
  9 10  1  0  0  0  0
  9 17  1  0  0  0  0
  9 19  1  6  0  0  0
 10 11  1  0  0  0  0
 11 12  1  6  0  0  0
 11 13  1  0  0  0  0
 13 14  1  6  0  0  0
 13 15  1  0  0  0  0
 15 16  1  1  0  0  0
 15 17  1  0  0  0  0
 17 18  1  6  0  0  0
 19 20  1  0  0  0  0
 21 22  1  0  0  0  0
 21 29  1  0  0  0  0
 21 31  1  6  0  0  0
 22 23  1  0  0  0  0
 23 24  1  1  0  0  0
 23 25  1  0  0  0  0
 25 26  1  1  0  0  0
 25 27  1  0  0  0  0
 27 28  1  6  0  0  0
 27 29  1  0  0  0  0
 29 30  1  1  0  0  0
 31 32  1  0  0  0  0
 33 34  1  0  0  0  0
 33 38  1  0  0  0  0
 33 39  1  6  0  0  0
 34 35  1  0  0  0  0
 35 36  1  0  0  0  0
 35 40  1  6  0  0  0
 36 24  1  1  0  0  0
 36 37  1  0  0  0  0
 37 38  1  0  0  0  0
 37 41  1  6  0  0  0
 38 42  1  1  0  0  0
M  CHG  6  14   1  20   1  26   1  32   1  39   1  40   1
M  END
>  <CHROM.1>
61.18574870,29.47452055,-67.40422151,58.85064762,-70.40270290,-65.81785591
168.46096536,78.22397466,58.50502926,179.61329953,140.70814592,105.57875456
82.46440124,-163.82096516,64.77475367,59.92858657,-62.75362040,81.00907244
-62.17055856,-166.45355684,-83.61215993,60.05128195,9.49996435,0.42116583
0.03499301,2.06224893,-0.67738297,-2.54639541

>  <Name>


>  <RI>
0

>  <Rbt.Current_Directory>
/home/itssahil/PROJECTS/Mol_Feturizer/New_Systems/rnas/1qd3

>  <Rbt.Executable>
rbdock ($Id: //depot/dev/client3/rdock/2013.1/src/exe/rbdock.cxx#4 $)

>  <Rbt.Library>
libRbt.so (2013.1, Build901 2013/11/27)

>  <Rbt.Parameter_File>
/export/apps/rDock/src/rDock_2013.1_src/data/scripts/dock_solv.prm

>  <Rbt.Receptor>
prm/pocket_docking_7.prm

>  <SCORE>
-58.4222

>  <SCORE.INTER>
-38.6999

>  <SCORE.INTER.CONST>
1

>  <SCORE.INTER.POLAR>
-5.75941

>  <SCORE.INTER.ROT>
9

>  <SCORE.INTER.SOLV>
31.4744

>  <SCORE.INTER.VDW>
-26.6933

>  <SCORE.INTER.norm>
-0.921427

>  <SCORE.INTRA>
-19.7223

>  <SCORE.INTRA.DIHEDRAL>
-21.2007

>  <SCORE.INTRA.DIHEDRAL.0>
40.6252

>  <SCORE.INTRA.POLAR>
1.19349

>  <SCORE.INTRA.POLAR.0>
-1.20161

>  <SCORE.INTRA.REPUL>
-0.115675

>  <SCORE.INTRA.REPUL.0>
0.115675

>  <SCORE.INTRA.SOLV>
-13.2912

>  <SCORE.INTRA.SOLV.lig_0>
-154.895

>  <SCORE.INTRA.VDW>
-5.95583

>  <SCORE.INTRA.VDW.0>
2.2925

>  <SCORE.INTRA.norm>
-0.469578

>  <SCORE.RESTR>
0

>  <SCORE.RESTR.CAVITY>
0

>  <SCORE.RESTR.norm>
0

>  <SCORE.SYSTEM>
0

>  <SCORE.SYSTEM.CONST>
0

>  <SCORE.SYSTEM.DIHEDRAL>
0

>  <SCORE.SYSTEM.SOLV>
0

>  <SCORE.SYSTEM.norm>
0

>  <SCORE.heavy>
42

>  <SCORE.norm>
-1.391

>  <RMSD>
5.854

$$$$

 OpenBabel11021811413D
libRbt.so/2013.1/901 2013/11/27
 42 45  0  0  0  0  0  0  0  0999 V2000
    6.2577   -2.7463   -2.6999 O   0  0  0  0  0  0  0  0  0  0  0  0
    6.1169   -1.8610   -1.5980 C   0  0  0  0  0  0  0  0  0  0  0  0
    7.1368   -0.7273   -1.7113 C   0  0  1  0  0  0  0  0  0  0  0  0
    6.9249    0.2734   -0.6918 O   0  0  0  0  0  0  0  0  0  0  0  0
    8.5745   -1.1900   -1.5434 C   0  0  2  0  0  0  0  0  0  0  0  0
    9.2516    0.1272   -1.2036 C   0  0  1  0  0  0  0  0  0  0  0  0
    9.4235    0.8990   -2.3871 O   0  0  0  0  0  0  0  0  0  0  0  0
    8.2126    0.8013   -0.2845 C   0  0  2  0  0  0  0  0  0  0  0  0
    9.7755   -5.1377   -1.5015 C   0  0  2  0  0  0  0  0  0  0  0  0
    9.0358   -3.9473   -1.8138 O   0  0  0  0  0  0  0  0  0  0  0  0
    9.8426   -2.9801   -2.5097 C   0  0  2  0  0  0  0  0  0  0  0  0
    9.0875   -1.7757   -2.7562 O   0  0  0  0  0  0  0  0  0  0  0  0
   10.3667   -3.5623   -3.8337 C   0  0  2  0  0  0  0  0  0  0  0  0
    9.3185   -3.5842   -4.8372 N   0  3  0  0  0  0  0  0  0  0  0  0
   10.9855   -4.9559   -3.6727 C   0  0  1  0  0  0  0  0  0  0  0  0
   12.2856   -4.8326   -3.1182 O   0  0  0  0  0  0  0  0  0  0  0  0
   10.1374   -5.8667   -2.7892 C   0  0  2  0  0  0  0  0  0  0  0  0
    8.9562   -6.2526   -3.4822 O   0  0  0  0  0  0  0  0  0  0  0  0
    8.9711   -6.0426   -0.5726 C   0  0  0  0  0  0  0  0  0  0  0  0
    8.7449   -5.3874    0.7020 N   0  3  0  0  0  0  0  0  0  0  0  0
   12.9639    2.1152    1.9151 C   0  0  1  0  0  0  0  0  0  0  0  0
   12.2390    3.3541    1.7669 O   0  0  0  0  0  0  0  0  0  0  0  0
   11.6155    3.5013    0.4703 C   0  0  2  0  0  0  0  0  0  0  0  0
   10.5687    2.5224    0.2563 O   0  0  0  0  0  0  0  0  0  0  0  0
   12.6664    3.4396   -0.6448 C   0  0  2  0  0  0  0  0  0  0  0  0
   12.0127    3.3761   -1.9388 N   0  3  0  0  0  0  0  0  0  0  0  0
   13.5862    2.2337   -0.4884 C   0  0  1  0  0  0  0  0  0  0  0  0
   14.6764    2.3439   -1.3903 O   0  0  0  0  0  0  0  0  0  0  0  0
   14.1173    2.0635    0.9266 C   0  0  2  0  0  0  0  0  0  0  0  0
   14.8078    0.8287    1.0493 O   0  0  0  0  0  0  0  0  0  0  0  0
   13.5530    2.0197    3.3196 C   0  0  0  0  0  0  0  0  0  0  0  0
   12.6110    2.5141    4.3069 N   0  3  0  0  0  0  0  0  0  0  0  0
    8.3361    3.1472    3.8235 C   0  0  2  0  0  0  0  0  0  0  0  0
    8.4790    4.3092    2.8603 C   0  0  0  0  0  0  0  0  0  0  0  0
    9.6067    4.0501    1.8784 C   0  0  1  0  0  0  0  0  0  0  0  0
    9.3679    2.8063    1.0212 C   0  0  2  0  0  0  0  0  0  0  0  0
    9.0040    1.5886    1.9019 C   0  0  1  0  0  0  0  0  0  0  0  0
    8.0464    1.8557    3.0707 C   0  0  1  0  0  0  0  0  0  0  0  0
    7.2573    3.4220    4.7533 N   0  3  0  0  0  0  0  0  0  0  0  0
    9.7805    5.2207    1.0408 N   0  3  0  0  0  0  0  0  0  0  0  0
    8.5159    0.4823    1.1039 O   0  0  0  0  0  0  0  0  0  0  0  0
    8.0720    0.7566    3.9754 O   0  0  0  0  0  0  0  0  0  0  0  0
  1  2  1  0  0  0  0
  3  2  1  1  0  0  0
  3  4  1  0  0  0  0
  3  5  1  0  0  0  0
  4  8  1  0  0  0  0
  5  6  1  0  0  0  0
  5 12  1  6  0  0  0
  6  7  1  6  0  0  0
  6  8  1  0  0  0  0
  8 41  1  1  0  0  0
  9 10  1  0  0  0  0
  9 17  1  0  0  0  0
  9 19  1  1  0  0  0
 10 11  1  0  0  0  0
 11 12  1  6  0  0  0
 11 13  1  0  0  0  0
 13 14  1  6  0  0  0
 13 15  1  0  0  0  0
 15 16  1  1  0  0  0
 15 17  1  0  0  0  0
 17 18  1  6  0  0  0
 19 20  1  0  0  0  0
 21 22  1  0  0  0  0
 21 29  1  0  0  0  0
 21 31  1  1  0  0  0
 22 23  1  0  0  0  0
 23 24  1  6  0  0  0
 23 25  1  0  0  0  0
 25 26  1  6  0  0  0
 25 27  1  0  0  0  0
 27 28  1  6  0  0  0
 27 29  1  0  0  0  0
 29 30  1  6  0  0  0
 31 32  1  0  0  0  0
 33 34  1  0  0  0  0
 33 38  1  0  0  0  0
 33 39  1  1  0  0  0
 34 35  1  0  0  0  0
 35 36  1  0  0  0  0
 35 40  1  6  0  0  0
 36 24  1  1  0  0  0
 36 37  1  0  0  0  0
 37 38  1  0  0  0  0
 37 41  1  6  0  0  0
 38 42  1  1  0  0  0
M  CHG  6  14   1  20   1  26   1  32   1  39   1  40   1
M  END
>  <CHROM.1>
-58.60266014,173.49674875,-136.92555039,51.11348493,-133.03335119,-63.83171835
57.33982112,50.72308526,60.93278413,-178.20961995,-162.34696876,40.33203351
73.60237375,-2.27493483,112.49588857,55.64958778,-74.78431936,-23.79518361
69.82598306,-25.72249714,-11.64355628,61.53108476,10.02449296,-0.02984370
-0.18298923,1.76142006,-0.30326355,-2.52376495

>  <Name>


>  <RI>
0

>  <Rbt.Current_Directory>
/home/itssahil/PROJECTS/Mol_Feturizer/New_Systems/rnas/1qd3

>  <Rbt.Executable>
rbdock ($Id: //depot/dev/client3/rdock/2013.1/src/exe/rbdock.cxx#4 $)

>  <Rbt.Library>
libRbt.so (2013.1, Build901 2013/11/27)

>  <Rbt.Parameter_File>
/export/apps/rDock/src/rDock_2013.1_src/data/scripts/dock_solv.prm

>  <Rbt.Receptor>
prm/pocket_docking_6.prm

>  <SCORE>
-38.9445

>  <SCORE.INTER>
-38.7677

>  <SCORE.INTER.CONST>
1

>  <SCORE.INTER.POLAR>
-6.08224

>  <SCORE.INTER.ROT>
9

>  <SCORE.INTER.SOLV>
40.1955

>  <SCORE.INTER.VDW>
-28.5695

>  <SCORE.INTER.norm>
-0.92304

>  <SCORE.INTRA>
-0.176774

>  <SCORE.INTRA.DIHEDRAL>
-1.11201

>  <SCORE.INTRA.DIHEDRAL.0>
40.6252

>  <SCORE.INTRA.POLAR>
0.792077

>  <SCORE.INTRA.POLAR.0>
-1.20161

>  <SCORE.INTRA.REPUL>
-0.115675

>  <SCORE.INTRA.REPUL.0>
0.115675

>  <SCORE.INTRA.SOLV>
-9.5747

>  <SCORE.INTRA.SOLV.lig_0>
-154.895

>  <SCORE.INTRA.VDW>
3.0519

>  <SCORE.INTRA.VDW.0>
2.2925

>  <SCORE.INTRA.norm>
-0.00420889

>  <SCORE.RESTR>
0

>  <SCORE.RESTR.CAVITY>
0

>  <SCORE.RESTR.norm>
0

>  <SCORE.SYSTEM>
0

>  <SCORE.SYSTEM.CONST>
0

>  <SCORE.SYSTEM.DIHEDRAL>
0

>  <SCORE.SYSTEM.SOLV>
0

>  <SCORE.SYSTEM.norm>
0

>  <SCORE.heavy>
42

>  <SCORE.norm>
-0.927249

>  <RMSD>
5.887

$$$$

 OpenBabel11021811413D
libRbt.so/2013.1/901 2013/11/27
 42 45  0  0  0  0  0  0  0  0999 V2000
    6.7165   -2.9475   -0.7997 O   0  0  0  0  0  0  0  0  0  0  0  0
    7.7491   -2.4718    0.0518 C   0  0  0  0  0  0  0  0  0  0  0  0
    7.8512   -0.9500   -0.0588 C   0  0  1  0  0  0  0  0  0  0  0  0
    7.4287   -0.3053    1.1625 O   0  0  0  0  0  0  0  0  0  0  0  0
    9.2652   -0.4573   -0.3181 C   0  0  2  0  0  0  0  0  0  0  0  0
    9.1378    0.9927    0.1179 C   0  0  1  0  0  0  0  0  0  0  0  0
    8.4729    1.7421   -0.8931 O   0  0  0  0  0  0  0  0  0  0  0  0
    8.2374    0.8812    1.3651 C   0  0  2  0  0  0  0  0  0  0  0  0
    9.2606   -4.0417   -2.8336 C   0  0  2  0  0  0  0  0  0  0  0  0
    8.9042   -2.6831   -2.5361 O   0  0  0  0  0  0  0  0  0  0  0  0
   10.0283   -1.9262   -2.0520 C   0  0  2  0  0  0  0  0  0  0  0  0
    9.6239   -0.5846   -1.7081 O   0  0  0  0  0  0  0  0  0  0  0  0
   11.1527   -1.8927   -3.1013 C   0  0  2  0  0  0  0  0  0  0  0  0
   10.8345   -0.9607   -4.1674 N   0  3  0  0  0  0  0  0  0  0  0  0
   11.4775   -3.2763   -3.6766 C   0  0  1  0  0  0  0  0  0  0  0  0
   12.2602   -4.0028   -2.7425 O   0  0  0  0  0  0  0  0  0  0  0  0
   10.2196   -4.0710   -4.0168 C   0  0  2  0  0  0  0  0  0  0  0  0
    9.5932   -3.5188   -5.1689 O   0  0  0  0  0  0  0  0  0  0  0  0
    8.0144   -4.8734   -3.1237 C   0  0  0  0  0  0  0  0  0  0  0  0
    8.3149   -6.2891   -3.0211 N   0  3  0  0  0  0  0  0  0  0  0  0
   10.6846    5.7976    0.3964 C   0  0  1  0  0  0  0  0  0  0  0  0
    9.8296    4.6627    0.1452 O   0  0  0  0  0  0  0  0  0  0  0  0
   10.2972    3.4443    0.7682 C   0  0  2  0  0  0  0  0  0  0  0  0
   10.2596    3.5243    2.2145 O   0  0  0  0  0  0  0  0  0  0  0  0
   11.7034    3.0880    0.2706 C   0  0  2  0  0  0  0  0  0  0  0  0
   12.2426    1.9912    1.0530 N   0  3  0  0  0  0  0  0  0  0  0  0
   12.6517    4.2787    0.3568 C   0  0  1  0  0  0  0  0  0  0  0  0
   13.8594    3.9781   -0.3254 O   0  0  0  0  0  0  0  0  0  0  0  0
   12.0588    5.5603   -0.2082 C   0  0  2  0  0  0  0  0  0  0  0  0
   12.9096    6.6626    0.0706 O   0  0  0  0  0  0  0  0  0  0  0  0
   10.1004    7.0466   -0.2574 C   0  0  0  0  0  0  0  0  0  0  0  0
   10.9223    8.2084    0.0277 N   0  3  0  0  0  0  0  0  0  0  0  0
    7.4597    2.8194    5.3391 C   0  0  2  0  0  0  0  0  0  0  0  0
    7.2762    4.0583    4.4849 C   0  0  0  0  0  0  0  0  0  0  0  0
    8.5469    4.3656    3.7144 C   0  0  1  0  0  0  0  0  0  0  0  0
    8.9448    3.2388    2.7599 C   0  0  2  0  0  0  0  0  0  0  0  0
    8.9617    1.8756    3.4895 C   0  0  1  0  0  0  0  0  0  0  0  0
    7.8146    1.6167    4.4752 C   0  0  1  0  0  0  0  0  0  0  0  0
    6.2348    2.5512    6.0684 N   0  3  0  0  0  0  0  0  0  0  0  0
    8.3694    5.6087    2.9895 N   0  3  0  0  0  0  0  0  0  0  0  0
    9.0706    0.7739    2.5550 O   0  0  0  0  0  0  0  0  0  0  0  0
    8.1351    0.5062    5.3066 O   0  0  0  0  0  0  0  0  0  0  0  0
  1  2  1  0  0  0  0
  3  2  1  1  0  0  0
  3  4  1  0  0  0  0
  3  5  1  0  0  0  0
  4  8  1  0  0  0  0
  5  6  1  0  0  0  0
  5 12  1  6  0  0  0
  6  7  1  6  0  0  0
  6  8  1  0  0  0  0
  8 41  1  1  0  0  0
  9 10  1  0  0  0  0
  9 17  1  0  0  0  0
  9 19  1  6  0  0  0
 10 11  1  0  0  0  0
 11 12  1  6  0  0  0
 11 13  1  0  0  0  0
 13 14  1  6  0  0  0
 13 15  1  0  0  0  0
 15 16  1  1  0  0  0
 15 17  1  0  0  0  0
 17 18  1  6  0  0  0
 19 20  1  0  0  0  0
 21 22  1  0  0  0  0
 21 29  1  0  0  0  0
 21 31  1  6  0  0  0
 22 23  1  0  0  0  0
 23 24  1  1  0  0  0
 23 25  1  0  0  0  0
 25 26  1  1  0  0  0
 25 27  1  0  0  0  0
 27 28  1  6  0  0  0
 27 29  1  0  0  0  0
 29 30  1  1  0  0  0
 31 32  1  0  0  0  0
 33 34  1  0  0  0  0
 33 38  1  0  0  0  0
 33 39  1  6  0  0  0
 34 35  1  0  0  0  0
 35 36  1  0  0  0  0
 35 40  1  6  0  0  0
 36 24  1  1  0  0  0
 36 37  1  0  0  0  0
 37 38  1  0  0  0  0
 37 41  1  6  0  0  0
 38 42  1  1  0  0  0
M  CHG  6  14   1  20   1  26   1  32   1  39   1  40   1
M  END
>  <CHROM.1>
-163.70400244,111.45759560,-80.60841406,-45.45630677,-127.52650999,-162.65291350
92.83275623,93.11513762,-60.93065651,-174.42767603,58.77331153,177.86616200
82.56096014,-128.64128920,83.67253877,-173.77504379,71.15757016,-53.65329017
-52.31429761,81.47525251,-43.12410487,61.24870116,9.60261404,1.04374481,0.17437174
1.61700806,-0.86741756,-2.54669689

>  <Name>


>  <RI>
0

>  <Rbt.Current_Directory>
/home/itssahil/PROJECTS/Mol_Feturizer/New_Systems/rnas/1qd3

>  <Rbt.Executable>
rbdock ($Id: //depot/dev/client3/rdock/2013.1/src/exe/rbdock.cxx#4 $)

>  <Rbt.Library>
libRbt.so (2013.1, Build901 2013/11/27)

>  <Rbt.Parameter_File>
/export/apps/rDock/src/rDock_2013.1_src/data/scripts/dock_solv.prm

>  <Rbt.Receptor>
prm/pocket_docking_5.prm

>  <SCORE>
-37.9034

>  <SCORE.INTER>
-27.0334

>  <SCORE.INTER.CONST>
1

>  <SCORE.INTER.POLAR>
-5.52908

>  <SCORE.INTER.ROT>
9

>  <SCORE.INTER.SOLV>
40.2154

>  <SCORE.INTER.VDW>
-22.5971

>  <SCORE.INTER.norm>
-0.643651

>  <SCORE.INTRA>
-11.8228

>  <SCORE.INTRA.DIHEDRAL>
-3.23395

>  <SCORE.INTRA.DIHEDRAL.0>
40.6252

>  <SCORE.INTRA.POLAR>
0.567435

>  <SCORE.INTRA.POLAR.0>
-1.20161

>  <SCORE.INTRA.REPUL>
-0.115675

>  <SCORE.INTRA.REPUL.0>
0.115675

>  <SCORE.INTRA.SOLV>
-7.5256

>  <SCORE.INTRA.SOLV.lig_0>
-154.895

>  <SCORE.INTRA.VDW>
-7.7939

>  <SCORE.INTRA.VDW.0>
2.2925

>  <SCORE.INTRA.norm>
-0.281494

>  <SCORE.RESTR>
0.952694

>  <SCORE.RESTR.CAVITY>
0.952694

>  <SCORE.RESTR.norm>
0.0226832

>  <SCORE.SYSTEM>
0

>  <SCORE.SYSTEM.CONST>
0

>  <SCORE.SYSTEM.DIHEDRAL>
0

>  <SCORE.SYSTEM.SOLV>
0

>  <SCORE.SYSTEM.norm>
0

>  <SCORE.heavy>
42

>  <SCORE.norm>
-0.902463

>  <RMSD>
5.934

$$$$

 OpenBabel11021811413D
libRbt.so/2013.1/901 2013/11/27
 42 45  0  0  0  0  0  0  0  0999 V2000
   13.8803   -6.1263   -7.2956 O   0  0  0  0  0  0  0  0  0  0  0  0
   12.5711   -6.5197   -6.9097 C   0  0  0  0  0  0  0  0  0  0  0  0
   12.4150   -6.3832   -5.3947 C   0  0  1  0  0  0  0  0  0  0  0  0
   12.5764   -5.0118   -4.9717 O   0  0  0  0  0  0  0  0  0  0  0  0
   11.0486   -6.8137   -4.8877 C   0  0  2  0  0  0  0  0  0  0  0  0
   11.0223   -6.1181   -3.5370 C   0  0  1  0  0  0  0  0  0  0  0  0
   11.8212   -6.8420   -2.6077 O   0  0  0  0  0  0  0  0  0  0  0  0
   11.6861   -4.7626   -3.8544 C   0  0  2  0  0  0  0  0  0  0  0  0
    7.3140   -8.5448   -4.6816 C   0  0  2  0  0  0  0  0  0  0  0  0
    8.6194   -8.1823   -5.1571 O   0  0  0  0  0  0  0  0  0  0  0  0
    9.6614   -8.6774   -4.2970 C   0  0  2  0  0  0  0  0  0  0  0  0
   10.9546   -8.2471   -4.7704 O   0  0  0  0  0  0  0  0  0  0  0  0
    9.6087  -10.2122   -4.2083 C   0  0  2  0  0  0  0  0  0  0  0  0
   10.1525  -10.8164   -5.4106 N   0  3  0  0  0  0  0  0  0  0  0  0
    8.2002  -10.7487   -3.9274 C   0  0  1  0  0  0  0  0  0  0  0  0
    7.8968  -10.5777   -2.5520 O   0  0  0  0  0  0  0  0  0  0  0  0
    7.1374  -10.0550   -4.7752 C   0  0  2  0  0  0  0  0  0  0  0  0
    7.2445  -10.4777   -6.1295 O   0  0  0  0  0  0  0  0  0  0  0  0
    6.2316   -7.8209   -5.4773 C   0  0  0  0  0  0  0  0  0  0  0  0
    4.9140   -8.2120   -5.0124 N   0  3  0  0  0  0  0  0  0  0  0  0
    8.1100   -2.2368   -2.6268 C   0  0  1  0  0  0  0  0  0  0  0  0
    8.8639   -1.2888   -3.4110 O   0  0  0  0  0  0  0  0  0  0  0  0
    9.8939   -0.6109   -2.6553 C   0  0  2  0  0  0  0  0  0  0  0  0
   10.9334   -1.5201   -2.2166 O   0  0  0  0  0  0  0  0  0  0  0  0
    9.2842    0.1455   -1.4688 C   0  0  2  0  0  0  0  0  0  0  0  0
   10.3380    0.6424   -0.6037 N   0  3  0  0  0  0  0  0  0  0  0  0
    8.3449   -0.7394   -0.6569 C   0  0  1  0  0  0  0  0  0  0  0  0
    7.6287    0.0540    0.2769 O   0  0  0  0  0  0  0  0  0  0  0  0
    7.3610   -1.5179   -1.5166 C   0  0  2  0  0  0  0  0  0  0  0  0
    6.6482   -2.4563   -0.7242 O   0  0  0  0  0  0  0  0  0  0  0  0
    7.0766   -2.9364   -3.5050 C   0  0  0  0  0  0  0  0  0  0  0  0
    7.7152   -3.9017   -4.3808 N   0  3  0  0  0  0  0  0  0  0  0  0
   12.6508   -1.1543   -6.0917 C   0  0  2  0  0  0  0  0  0  0  0  0
   13.4974   -0.7598   -4.8977 C   0  0  0  0  0  0  0  0  0  0  0  0
   12.6271   -0.5660   -3.6697 C   0  0  1  0  0  0  0  0  0  0  0  0
   11.8820   -1.8397   -3.2681 C   0  0  2  0  0  0  0  0  0  0  0  0
   11.1402   -2.4520   -4.4787 C   0  0  1  0  0  0  0  0  0  0  0  0
   11.8963   -2.4474   -5.8139 C   0  0  1  0  0  0  0  0  0  0  0  0
   13.5044   -1.3275   -7.2515 N   0  3  0  0  0  0  0  0  0  0  0  0
   13.4535   -0.0926   -2.5764 N   0  3  0  0  0  0  0  0  0  0  0  0
   10.6575   -3.7864   -4.1869 O   0  0  0  0  0  0  0  0  0  0  0  0
   10.9920   -2.7144   -6.8807 O   0  0  0  0  0  0  0  0  0  0  0  0
  1  2  1  0  0  0  0
  3  2  1  6  0  0  0
  3  4  1  0  0  0  0
  3  5  1  0  0  0  0
  4  8  1  0  0  0  0
  5  6  1  0  0  0  0
  5 12  1  1  0  0  0
  6  7  1  1  0  0  0
  6  8  1  0  0  0  0
  8 41  1  6  0  0  0
  9 10  1  0  0  0  0
  9 17  1  0  0  0  0
  9 19  1  6  0  0  0
 10 11  1  0  0  0  0
 11 12  1  6  0  0  0
 11 13  1  0  0  0  0
 13 14  1  6  0  0  0
 13 15  1  0  0  0  0
 15 16  1  1  0  0  0
 15 17  1  0  0  0  0
 17 18  1  6  0  0  0
 19 20  1  0  0  0  0
 21 22  1  0  0  0  0
 21 29  1  0  0  0  0
 21 31  1  6  0  0  0
 22 23  1  0  0  0  0
 23 24  1  1  0  0  0
 23 25  1  0  0  0  0
 25 26  1  1  0  0  0
 25 27  1  0  0  0  0
 27 28  1  1  0  0  0
 27 29  1  0  0  0  0
 29 30  1  1  0  0  0
 31 32  1  0  0  0  0
 33 34  1  0  0  0  0
 33 38  1  0  0  0  0
 33 39  1  6  0  0  0
 34 35  1  0  0  0  0
 35 36  1  0  0  0  0
 35 40  1  1  0  0  0
 36 24  1  1  0  0  0
 36 37  1  0  0  0  0
 37 38  1  0  0  0  0
 37 41  1  1  0  0  0
 38 42  1  6  0  0  0
M  CHG  6  14   1  20   1  26   1  32   1  39   1  40   1
M  END
>  <CHROM.1>
176.36234430,62.14742672,-179.68844006,-177.27928097,-64.49703966,178.77970786
56.54026290,-79.29048645,65.77313090,-50.64037572,140.69561368,74.00792687
79.08983822,64.25879935,-50.83536986,-155.28386764,-162.83866605,18.43922714
-59.50675694,-158.68599173,-60.88268875,69.39388255,9.97733816,-4.65031923
-4.01634893,-1.83732842,0.52984694,0.37213390

>  <Name>


>  <RI>
0

>  <Rbt.Current_Directory>
/home/itssahil/PROJECTS/Mol_Feturizer/New_Systems/rnas/1qd3

>  <Rbt.Executable>
rbdock ($Id: //depot/dev/client3/rdock/2013.1/src/exe/rbdock.cxx#4 $)

>  <Rbt.Library>
libRbt.so (2013.1, Build901 2013/11/27)

>  <Rbt.Parameter_File>
/export/apps/rDock/src/rDock_2013.1_src/data/scripts/dock_solv.prm

>  <Rbt.Receptor>
prm/pocket_docking_7.prm

>  <SCORE>
-45.2943

>  <SCORE.INTER>
-19.6818

>  <SCORE.INTER.CONST>
1

>  <SCORE.INTER.POLAR>
-4.20756

>  <SCORE.INTER.ROT>
9

>  <SCORE.INTER.SOLV>
16.4617

>  <SCORE.INTER.VDW>
-14.1832

>  <SCORE.INTER.norm>
-0.468614

>  <SCORE.INTRA>
-25.6125

>  <SCORE.INTRA.DIHEDRAL>
-24.1526

>  <SCORE.INTRA.DIHEDRAL.0>
40.6252

>  <SCORE.INTRA.POLAR>
-0.524869

>  <SCORE.INTRA.POLAR.0>
-1.20161

>  <SCORE.INTRA.REPUL>
-0.115675

>  <SCORE.INTRA.REPUL.0>
0.115675

>  <SCORE.INTRA.SOLV>
-7.27826

>  <SCORE.INTRA.SOLV.lig_0>
-154.895

>  <SCORE.INTRA.VDW>
-7.53416

>  <SCORE.INTRA.VDW.0>
2.2925

>  <SCORE.INTRA.norm>
-0.609822

>  <SCORE.RESTR>
0

>  <SCORE.RESTR.CAVITY>
0

>  <SCORE.RESTR.norm>
0

>  <SCORE.SYSTEM>
0

>  <SCORE.SYSTEM.CONST>
0

>  <SCORE.SYSTEM.DIHEDRAL>
0

>  <SCORE.SYSTEM.SOLV>
0

>  <SCORE.SYSTEM.norm>
0

>  <SCORE.heavy>
42

>  <SCORE.norm>
-1.07844

>  <RMSD>
5.982

$$$$

 OpenBabel11021811413D
libRbt.so/2013.1/901 2013/11/27
 42 45  0  0  0  0  0  0  0  0999 V2000
   12.1079   -8.1596    1.8042 O   0  0  0  0  0  0  0  0  0  0  0  0
   11.0449   -7.2567    2.0733 C   0  0  0  0  0  0  0  0  0  0  0  0
    9.7404   -7.8053    1.4938 C   0  0  1  0  0  0  0  0  0  0  0  0
    8.6676   -6.8462    1.6151 O   0  0  0  0  0  0  0  0  0  0  0  0
    9.8308   -8.1390    0.0140 C   0  0  2  0  0  0  0  0  0  0  0  0
    8.3574   -8.1542   -0.3572 C   0  0  1  0  0  0  0  0  0  0  0  0
    7.7617   -9.3675    0.0886 O   0  0  0  0  0  0  0  0  0  0  0  0
    7.8028   -6.9678    0.4575 C   0  0  2  0  0  0  0  0  0  0  0  0
   10.1959   -9.3063   -3.8459 C   0  0  2  0  0  0  0  0  0  0  0  0
    9.8600   -9.0809   -2.4683 O   0  0  0  0  0  0  0  0  0  0  0  0
   10.8619   -9.6049   -1.5780 C   0  0  2  0  0  0  0  0  0  0  0  0
   10.4664   -9.4140   -0.2037 O   0  0  0  0  0  0  0  0  0  0  0  0
   12.2231   -8.9378   -1.8397 C   0  0  2  0  0  0  0  0  0  0  0  0
   12.2569   -7.5995   -1.2792 N   0  3  0  0  0  0  0  0  0  0  0  0
   12.6004   -8.9076   -3.3255 C   0  0  1  0  0  0  0  0  0  0  0  0
   13.0614  -10.1899   -3.7205 O   0  0  0  0  0  0  0  0  0  0  0  0
   11.4294   -8.4904   -4.2111 C   0  0  2  0  0  0  0  0  0  0  0  0
   11.1653   -7.1022   -4.0449 O   0  0  0  0  0  0  0  0  0  0  0  0
    9.0206   -8.9491   -4.7514 C   0  0  0  0  0  0  0  0  0  0  0  0
    9.1734   -9.5762   -6.0508 N   0  3  0  0  0  0  0  0  0  0  0  0
    8.9881   -1.4545   -2.1393 C   0  0  1  0  0  0  0  0  0  0  0  0
    9.0788   -2.6606   -1.3523 O   0  0  0  0  0  0  0  0  0  0  0  0
    7.9396   -2.8660   -0.4855 C   0  0  2  0  0  0  0  0  0  0  0  0
    6.7210   -3.0967   -1.2350 O   0  0  0  0  0  0  0  0  0  0  0  0
    7.7782   -1.6882    0.4832 C   0  0  2  0  0  0  0  0  0  0  0  0
    6.5206   -1.8032    1.1979 N   0  3  0  0  0  0  0  0  0  0  0  0
    7.8207   -0.3487   -0.2439 C   0  0  1  0  0  0  0  0  0  0  0  0
    7.9061    0.7060    0.7019 O   0  0  0  0  0  0  0  0  0  0  0  0
    8.9737   -0.2371   -1.2294 C   0  0  2  0  0  0  0  0  0  0  0  0
    8.8485    0.9469   -2.0034 O   0  0  0  0  0  0  0  0  0  0  0  0
   10.2039   -1.3349   -3.0538 C   0  0  0  0  0  0  0  0  0  0  0  0
   10.1632   -2.3428   -4.0974 N   0  3  0  0  0  0  0  0  0  0  0  0
    5.1851   -6.6676   -2.9640 C   0  0  2  0  0  0  0  0  0  0  0  0
    5.5363   -5.5212   -3.8917 C   0  0  0  0  0  0  0  0  0  0  0  0
    5.6745   -4.2279   -3.1100 C   0  0  1  0  0  0  0  0  0  0  0  0
    6.7853   -4.2891   -2.0606 C   0  0  2  0  0  0  0  0  0  0  0  0
    6.6431   -5.5500   -1.1770 C   0  0  1  0  0  0  0  0  0  0  0  0
    6.2591   -6.8480   -1.8997 C   0  0  1  0  0  0  0  0  0  0  0  0
    5.0534   -7.8888   -3.7354 N   0  3  0  0  0  0  0  0  0  0  0  0
    5.9096   -3.1391   -4.0381 N   0  3  0  0  0  0  0  0  0  0  0  0
    7.8229   -5.7654   -0.3643 O   0  0  0  0  0  0  0  0  0  0  0  0
    5.8356   -7.8209   -0.9504 O   0  0  0  0  0  0  0  0  0  0  0  0
  1  2  1  0  0  0  0
  3  2  1  6  0  0  0
  3  4  1  0  0  0  0
  3  5  1  0  0  0  0
  4  8  1  0  0  0  0
  5  6  1  0  0  0  0
  5 12  1  1  0  0  0
  6  7  1  1  0  0  0
  6  8  1  0  0  0  0
  8 41  1  6  0  0  0
  9 10  1  0  0  0  0
  9 17  1  0  0  0  0
  9 19  1  6  0  0  0
 10 11  1  0  0  0  0
 11 12  1  1  0  0  0
 11 13  1  0  0  0  0
 13 14  1  6  0  0  0
 13 15  1  0  0  0  0
 15 16  1  6  0  0  0
 15 17  1  0  0  0  0
 17 18  1  1  0  0  0
 19 20  1  0  0  0  0
 21 22  1  0  0  0  0
 21 29  1  0  0  0  0
 21 31  1  6  0  0  0
 22 23  1  0  0  0  0
 23 24  1  6  0  0  0
 23 25  1  0  0  0  0
 25 26  1  6  0  0  0
 25 27  1  0  0  0  0
 27 28  1  1  0  0  0
 27 29  1  0  0  0  0
 29 30  1  6  0  0  0
 31 32  1  0  0  0  0
 33 34  1  0  0  0  0
 33 38  1  0  0  0  0
 33 39  1  6  0  0  0
 34 35  1  0  0  0  0
 35 36  1  0  0  0  0
 35 40  1  6  0  0  0
 36 24  1  1  0  0  0
 36 37  1  0  0  0  0
 37 38  1  0  0  0  0
 37 41  1  6  0  0  0
 38 42  1  1  0  0  0
M  CHG  6  14   1  20   1  26   1  32   1  39   1  40   1
M  END
>  <CHROM.1>
-71.18936338,-173.50580812,-165.61861709,66.33962170,-155.22528079,-160.92246394
-39.34369629,73.32596196,-177.45459647,-67.99823771,-62.63378684,69.49943530
61.75060978,-162.92103526,49.04328348,167.74303626,48.67493440,71.39173734
178.02752462,-64.58622402,-177.32448131,67.75045747,8.79974745,-5.80180862
-1.63102890,-1.04640801,-0.83059020,0.53989591

>  <Name>


>  <RI>
0

>  <Rbt.Current_Directory>
/home/itssahil/PROJECTS/Mol_Feturizer/New_Systems/rnas/1qd3

>  <Rbt.Executable>
rbdock ($Id: //depot/dev/client3/rdock/2013.1/src/exe/rbdock.cxx#4 $)

>  <Rbt.Library>
libRbt.so (2013.1, Build901 2013/11/27)

>  <Rbt.Parameter_File>
/export/apps/rDock/src/rDock_2013.1_src/data/scripts/dock_solv.prm

>  <Rbt.Receptor>
prm/pocket_docking_6.prm

>  <SCORE>
-48.8875

>  <SCORE.INTER>
-27.9343

>  <SCORE.INTER.CONST>
1

>  <SCORE.INTER.POLAR>
-4.97856

>  <SCORE.INTER.ROT>
9

>  <SCORE.INTER.SOLV>
32.5137

>  <SCORE.INTER.VDW>
-22.4655

>  <SCORE.INTER.norm>
-0.665101

>  <SCORE.INTRA>
-20.9886

>  <SCORE.INTRA.DIHEDRAL>
-26.1655

>  <SCORE.INTRA.DIHEDRAL.0>
40.6252

>  <SCORE.INTRA.POLAR>
0.0321163

>  <SCORE.INTRA.POLAR.0>
-1.20161

>  <SCORE.INTRA.REPUL>
-0.115675

>  <SCORE.INTRA.REPUL.0>
0.115675

>  <SCORE.INTRA.SOLV>
-7.7783

>  <SCORE.INTRA.SOLV.lig_0>
-154.895

>  <SCORE.INTRA.VDW>
-3.54753

>  <SCORE.INTRA.VDW.0>
2.2925

>  <SCORE.INTRA.norm>
-0.499728

>  <SCORE.RESTR>
0.0353302

>  <SCORE.RESTR.CAVITY>
0.0353302

>  <SCORE.RESTR.norm>
0.000841195

>  <SCORE.SYSTEM>
0

>  <SCORE.SYSTEM.CONST>
0

>  <SCORE.SYSTEM.DIHEDRAL>
0

>  <SCORE.SYSTEM.SOLV>
0

>  <SCORE.SYSTEM.norm>
0

>  <SCORE.heavy>
42

>  <SCORE.norm>
-1.16399

>  <RMSD>
6.045

$$$$

 OpenBabel11021811413D
libRbt.so/2013.1/901 2013/11/27
 42 45  0  0  0  0  0  0  0  0999 V2000
   12.0197   -5.3304   -6.8622 O   0  0  0  0  0  0  0  0  0  0  0  0
   12.2759   -6.5232   -6.1347 C   0  0  0  0  0  0  0  0  0  0  0  0
   12.0866   -6.2680   -4.6389 C   0  0  1  0  0  0  0  0  0  0  0  0
   12.9538   -5.2114   -4.1727 O   0  0  0  0  0  0  0  0  0  0  0  0
   10.6761   -5.8358   -4.2743 C   0  0  2  0  0  0  0  0  0  0  0  0
   10.9237   -5.1981   -2.9175 C   0  0  1  0  0  0  0  0  0  0  0  0
   11.0867   -6.2121   -1.9320 O   0  0  0  0  0  0  0  0  0  0  0  0
   12.2617   -4.4641   -3.1405 C   0  0  2  0  0  0  0  0  0  0  0  0
    6.3368   -6.2458   -5.1881 C   0  0  2  0  0  0  0  0  0  0  0  0
    7.6976   -6.6918   -5.2918 O   0  0  0  0  0  0  0  0  0  0  0  0
    8.4028   -6.5608   -4.0443 C   0  0  2  0  0  0  0  0  0  0  0  0
    9.7801   -6.9621   -4.1977 O   0  0  0  0  0  0  0  0  0  0  0  0
    7.7225   -7.3956   -2.9458 C   0  0  2  0  0  0  0  0  0  0  0  0
    8.0290   -8.8051   -3.1061 N   0  3  0  0  0  0  0  0  0  0  0  0
    6.2059   -7.1798   -2.8812 C   0  0  1  0  0  0  0  0  0  0  0  0
    5.9327   -5.9498   -2.2289 O   0  0  0  0  0  0  0  0  0  0  0  0
    5.5625   -7.1781   -4.2652 C   0  0  2  0  0  0  0  0  0  0  0  0
    5.5529   -8.4975   -4.7978 O   0  0  0  0  0  0  0  0  0  0  0  0
    5.6853   -6.1815   -6.5666 C   0  0  0  0  0  0  0  0  0  0  0  0
    5.9242   -4.8886   -7.1800 N   0  3  0  0  0  0  0  0  0  0  0  0
   14.4827   -1.1711    1.4728 C   0  0  1  0  0  0  0  0  0  0  0  0
   14.4209   -0.3303    0.3017 O   0  0  0  0  0  0  0  0  0  0  0  0
   14.3536   -1.0758   -0.9357 C   0  0  2  0  0  0  0  0  0  0  0  0
   13.1206   -1.8283   -1.0504 O   0  0  0  0  0  0  0  0  0  0  0  0
   15.5754   -1.9909   -1.0825 C   0  0  2  0  0  0  0  0  0  0  0  0
   15.3943   -2.8815   -2.2137 N   0  3  0  0  0  0  0  0  0  0  0  0
   15.8149   -2.8197    0.1746 C   0  0  1  0  0  0  0  0  0  0  0  0
   17.0748   -3.4672    0.0873 O   0  0  0  0  0  0  0  0  0  0  0  0
   15.7568   -1.9998    1.4542 C   0  0  2  0  0  0  0  0  0  0  0  0
   15.7988   -2.8524    2.5891 O   0  0  0  0  0  0  0  0  0  0  0  0
   14.5083   -0.3106    2.7328 C   0  0  0  0  0  0  0  0  0  0  0  0
   14.4173   -1.1376    3.9221 N   0  3  0  0  0  0  0  0  0  0  0  0
    9.2238   -0.7538   -2.3771 C   0  0  2  0  0  0  0  0  0  0  0  0
   10.1699    0.3591   -1.9717 C   0  0  0  0  0  0  0  0  0  0  0  0
   11.3281   -0.1959   -1.1634 C   0  0  1  0  0  0  0  0  0  0  0  0
   12.1640   -1.2076   -1.9487 C   0  0  2  0  0  0  0  0  0  0  0  0
   11.2644   -2.2895   -2.5900 C   0  0  1  0  0  0  0  0  0  0  0  0
    9.9494   -1.8008   -3.2114 C   0  0  1  0  0  0  0  0  0  0  0  0
    8.1245   -0.1970   -3.1422 N   0  3  0  0  0  0  0  0  0  0  0  0
   12.1553    0.9046   -0.7083 N   0  3  0  0  0  0  0  0  0  0  0  0
   11.9980   -3.0910   -3.5484 O   0  0  0  0  0  0  0  0  0  0  0  0
    9.0869   -2.9088   -3.4473 O   0  0  0  0  0  0  0  0  0  0  0  0
  1  2  1  0  0  0  0
  3  2  1  6  0  0  0
  3  4  1  0  0  0  0
  3  5  1  0  0  0  0
  4  8  1  0  0  0  0
  5  6  1  0  0  0  0
  5 12  1  1  0  0  0
  6  7  1  1  0  0  0
  6  8  1  0  0  0  0
  8 41  1  6  0  0  0
  9 10  1  0  0  0  0
  9 17  1  0  0  0  0
  9 19  1  6  0  0  0
 10 11  1  0  0  0  0
 11 12  1  6  0  0  0
 11 13  1  0  0  0  0
 13 14  1  6  0  0  0
 13 15  1  0  0  0  0
 15 16  1  6  0  0  0
 15 17  1  0  0  0  0
 17 18  1  6  0  0  0
 19 20  1  0  0  0  0
 21 22  1  0  0  0  0
 21 29  1  0  0  0  0
 21 31  1  1  0  0  0
 22 23  1  0  0  0  0
 23 24  1  1  0  0  0
 23 25  1  0  0  0  0
 25 26  1  6  0  0  0
 25 27  1  0  0  0  0
 27 28  1  6  0  0  0
 27 29  1  0  0  0  0
 29 30  1  1  0  0  0
 31 32  1  0  0  0  0
 33 34  1  0  0  0  0
 33 38  1  0  0  0  0
 33 39  1  6  0  0  0
 34 35  1  0  0  0  0
 35 36  1  0  0  0  0
 35 40  1  6  0  0  0
 36 24  1  1  0  0  0
 36 37  1  0  0  0  0
 37 38  1  0  0  0  0
 37 41  1  6  0  0  0
 38 42  1  1  0  0  0
M  CHG  6  14   1  20   1  26   1  32   1  39   1  40   1
M  END
>  <CHROM.1>
-65.15032562,-58.05377391,-171.62128626,65.09885845,177.83555480,-87.85760808
103.08552442,163.25038061,56.84333547,50.97299280,40.84354862,173.52814769
103.14663854,-87.02648531,-52.36818982,-63.30280806,-173.72621961,164.78630886
26.03730865,-62.88622385,109.53875083,173.99827149,11.03261422,-3.84336030
-2.46574432,-2.41689365,-0.35525990,0.43106301

>  <Name>


>  <RI>
0

>  <Rbt.Current_Directory>
/home/itssahil/PROJECTS/Mol_Feturizer/New_Systems/rnas/1qd3

>  <Rbt.Executable>
rbdock ($Id: //depot/dev/client3/rdock/2013.1/src/exe/rbdock.cxx#4 $)

>  <Rbt.Library>
libRbt.so (2013.1, Build901 2013/11/27)

>  <Rbt.Parameter_File>
/export/apps/rDock/src/rDock_2013.1_src/data/scripts/dock_solv.prm

>  <Rbt.Receptor>
prm/pocket_docking_7.prm

>  <SCORE>
-42.6278

>  <SCORE.INTER>
-24.8881

>  <SCORE.INTER.CONST>
1

>  <SCORE.INTER.POLAR>
-6.12434

>  <SCORE.INTER.ROT>
9

>  <SCORE.INTER.SOLV>
30.8647

>  <SCORE.INTER.VDW>
-16.0658

>  <SCORE.INTER.norm>
-0.592573

>  <SCORE.INTRA>
-17.7398

>  <SCORE.INTRA.DIHEDRAL>
-9.80849

>  <SCORE.INTRA.DIHEDRAL.0>
40.6252

>  <SCORE.INTRA.POLAR>
-0.609197

>  <SCORE.INTRA.POLAR.0>
-1.20161

>  <SCORE.INTRA.REPUL>
-0.115675

>  <SCORE.INTRA.REPUL.0>
0.115675

>  <SCORE.INTRA.SOLV>
-7.4136

>  <SCORE.INTRA.SOLV.lig_0>
-154.895

>  <SCORE.INTRA.VDW>
-6.47906

>  <SCORE.INTRA.VDW.0>
2.2925

>  <SCORE.INTRA.norm>
-0.422375

>  <SCORE.RESTR>
0

>  <SCORE.RESTR.CAVITY>
0

>  <SCORE.RESTR.norm>
0

>  <SCORE.SYSTEM>
0

>  <SCORE.SYSTEM.CONST>
0

>  <SCORE.SYSTEM.DIHEDRAL>
0

>  <SCORE.SYSTEM.SOLV>
0

>  <SCORE.SYSTEM.norm>
0

>  <SCORE.heavy>
42

>  <SCORE.norm>
-1.01495

>  <RMSD>
6.083

$$$$

 OpenBabel11021811413D
libRbt.so/2013.1/901 2013/11/27
 42 45  0  0  0  0  0  0  0  0999 V2000
    9.2192   -8.2357   -2.6460 O   0  0  0  0  0  0  0  0  0  0  0  0
    8.3996   -7.8216   -1.5623 C   0  0  0  0  0  0  0  0  0  0  0  0
    9.1760   -6.8568   -0.6653 C   0  0  1  0  0  0  0  0  0  0  0  0
    9.7141   -5.7521   -1.4241 O   0  0  0  0  0  0  0  0  0  0  0  0
    8.3249   -6.2315    0.4275 C   0  0  2  0  0  0  0  0  0  0  0  0
    9.1752   -5.0237    0.7841 C   0  0  1  0  0  0  0  0  0  0  0  0
   10.2747   -5.4311    1.5910 O   0  0  0  0  0  0  0  0  0  0  0  0
    9.6819   -4.5613   -0.5973 C   0  0  2  0  0  0  0  0  0  0  0  0
    8.1664  -10.6203    0.4628 C   0  0  2  0  0  0  0  0  0  0  0  0
    8.6675   -9.3545    0.9193 O   0  0  0  0  0  0  0  0  0  0  0  0
    7.6087   -8.4053    1.1401 C   0  0  2  0  0  0  0  0  0  0  0  0
    8.1495   -7.1292    1.5412 O   0  0  0  0  0  0  0  0  0  0  0  0
    6.6253   -8.9262    2.2022 C   0  0  2  0  0  0  0  0  0  0  0  0
    7.1855   -8.7888    3.5340 N   0  3  0  0  0  0  0  0  0  0  0  0
    6.1834  -10.3729    1.9520 C   0  0  1  0  0  0  0  0  0  0  0  0
    5.2089  -10.3961    0.9212 O   0  0  0  0  0  0  0  0  0  0  0  0
    7.3525  -11.2770    1.5704 C   0  0  2  0  0  0  0  0  0  0  0  0
    8.1742  -11.5140    2.7075 O   0  0  0  0  0  0  0  0  0  0  0  0
    9.3133  -11.5253    0.0219 C   0  0  0  0  0  0  0  0  0  0  0  0
   10.3955  -11.4785    0.9871 N   0  3  0  0  0  0  0  0  0  0  0  0
    7.8491   -0.8474   -1.0965 C   0  0  1  0  0  0  0  0  0  0  0  0
    8.3241   -0.7333   -2.4542 O   0  0  0  0  0  0  0  0  0  0  0  0
    9.7078   -0.3224   -2.5442 C   0  0  2  0  0  0  0  0  0  0  0  0
   10.6075   -1.3207   -2.0025 O   0  0  0  0  0  0  0  0  0  0  0  0
    9.9137    1.0357   -1.8624 C   0  0  2  0  0  0  0  0  0  0  0  0
   11.3307    1.3358   -1.7738 N   0  3  0  0  0  0  0  0  0  0  0  0
    9.3072    1.0636   -0.4639 C   0  0  1  0  0  0  0  0  0  0  0  0
    9.3102    2.3934    0.0320 O   0  0  0  0  0  0  0  0  0  0  0  0
    7.8918    0.5092   -0.4123 C   0  0  2  0  0  0  0  0  0  0  0  0
    7.4578    0.3885    0.9344 O   0  0  0  0  0  0  0  0  0  0  0  0
    6.3996   -1.3246   -1.0886 C   0  0  0  0  0  0  0  0  0  0  0  0
    5.9034   -1.4836   -2.4433 N   0  3  0  0  0  0  0  0  0  0  0  0
    9.0682   -4.0256   -4.9030 C   0  0  2  0  0  0  0  0  0  0  0  0
   10.5476   -3.6981   -4.9494 C   0  0  0  0  0  0  0  0  0  0  0  0
   10.8414   -2.4498   -4.1381 C   0  0  1  0  0  0  0  0  0  0  0  0
   10.4810   -2.6086   -2.6603 C   0  0  2  0  0  0  0  0  0  0  0  0
    9.0399   -3.1446   -2.4966 C   0  0  1  0  0  0  0  0  0  0  0  0
    8.6109   -4.2519   -3.4683 C   0  0  1  0  0  0  0  0  0  0  0  0
    8.8136   -5.2174   -5.6895 N   0  3  0  0  0  0  0  0  0  0  0  0
   12.2430   -2.1099   -4.2872 N   0  3  0  0  0  0  0  0  0  0  0  0
    8.7766   -3.5532   -1.1318 O   0  0  0  0  0  0  0  0  0  0  0  0
    7.1955   -4.4018   -3.4335 O   0  0  0  0  0  0  0  0  0  0  0  0
  1  2  1  0  0  0  0
  3  2  1  6  0  0  0
  3  4  1  0  0  0  0
  3  5  1  0  0  0  0
  4  8  1  0  0  0  0
  5  6  1  0  0  0  0
  5 12  1  1  0  0  0
  6  7  1  1  0  0  0
  6  8  1  0  0  0  0
  8 41  1  6  0  0  0
  9 10  1  0  0  0  0
  9 17  1  0  0  0  0
  9 19  1  1  0  0  0
 10 11  1  0  0  0  0
 11 12  1  1  0  0  0
 11 13  1  0  0  0  0
 13 14  1  1  0  0  0
 13 15  1  0  0  0  0
 15 16  1  6  0  0  0
 15 17  1  0  0  0  0
 17 18  1  1  0  0  0
 19 20  1  0  0  0  0
 21 22  1  0  0  0  0
 21 29  1  0  0  0  0
 21 31  1  6  0  0  0
 22 23  1  0  0  0  0
 23 24  1  1  0  0  0
 23 25  1  0  0  0  0
 25 26  1  1  0  0  0
 25 27  1  0  0  0  0
 27 28  1  6  0  0  0
 27 29  1  0  0  0  0
 29 30  1  1  0  0  0
 31 32  1  0  0  0  0
 33 34  1  0  0  0  0
 33 38  1  0  0  0  0
 33 39  1  6  0  0  0
 34 35  1  0  0  0  0
 35 36  1  0  0  0  0
 35 40  1  1  0  0  0
 36 24  1  1  0  0  0
 36 37  1  0  0  0  0
 37 38  1  0  0  0  0
 37 41  1  1  0  0  0
 38 42  1  6  0  0  0
M  CHG  6  14   1  20   1  26   1  32   1  39   1  40   1
M  END
>  <CHROM.1>
-45.27141723,53.93791417,-54.90728171,61.11031434,-55.98090500,44.70272301
94.57175208,-40.17883525,-179.67584893,-175.20681156,44.41407362,-1.86784524
58.01586755,61.75047387,-169.04219757,59.32413717,57.13844380,-98.92008885
-85.73642308,-58.67904381,-57.03343580,175.47561438,8.73802697,-4.88269742
-0.90156621,-1.92547956,1.16589014,-0.00210993

>  <Name>


>  <RI>
0

>  <Rbt.Current_Directory>
/home/itssahil/PROJECTS/Mol_Feturizer/New_Systems/rnas/1qd3

>  <Rbt.Executable>
rbdock ($Id: //depot/dev/client3/rdock/2013.1/src/exe/rbdock.cxx#4 $)

>  <Rbt.Library>
libRbt.so (2013.1, Build901 2013/11/27)

>  <Rbt.Parameter_File>
/export/apps/rDock/src/rDock_2013.1_src/data/scripts/dock_solv.prm

>  <Rbt.Receptor>
prm/pocket_docking_7.prm

>  <SCORE>
-46.9531

>  <SCORE.INTER>
-28.9023

>  <SCORE.INTER.CONST>
1

>  <SCORE.INTER.POLAR>
-4.37036

>  <SCORE.INTER.ROT>
9

>  <SCORE.INTER.SOLV>
24.2483

>  <SCORE.INTER.VDW>
-22.3831

>  <SCORE.INTER.norm>
-0.688149

>  <SCORE.INTRA>
-18.0508

>  <SCORE.INTRA.DIHEDRAL>
-21.9234

>  <SCORE.INTRA.DIHEDRAL.0>
40.6252

>  <SCORE.INTRA.POLAR>
0.110382

>  <SCORE.INTRA.POLAR.0>
-1.20161

>  <SCORE.INTRA.REPUL>
-0.115675

>  <SCORE.INTRA.REPUL.0>
0.115675

>  <SCORE.INTRA.SOLV>
-7.3121

>  <SCORE.INTRA.SOLV.lig_0>
-154.895

>  <SCORE.INTRA.VDW>
-3.22999

>  <SCORE.INTRA.VDW.0>
2.2925

>  <SCORE.INTRA.norm>
-0.429782

>  <SCORE.RESTR>
0

>  <SCORE.RESTR.CAVITY>
0

>  <SCORE.RESTR.norm>
0

>  <SCORE.SYSTEM>
0

>  <SCORE.SYSTEM.CONST>
0

>  <SCORE.SYSTEM.DIHEDRAL>
0

>  <SCORE.SYSTEM.SOLV>
0

>  <SCORE.SYSTEM.norm>
0

>  <SCORE.heavy>
42

>  <SCORE.norm>
-1.11793

>  <RMSD>
6.104

$$$$

 OpenBabel11021811413D
libRbt.so/2013.1/901 2013/11/27
 42 45  0  0  0  0  0  0  0  0999 V2000
    7.5101   -2.2493    1.2343 O   0  0  0  0  0  0  0  0  0  0  0  0
    6.7986   -1.7570    0.1077 C   0  0  0  0  0  0  0  0  0  0  0  0
    7.5900   -0.6261   -0.5506 C   0  0  1  0  0  0  0  0  0  0  0  0
    7.7860    0.4771    0.3606 O   0  0  0  0  0  0  0  0  0  0  0  0
    8.9807   -1.0441   -0.9984 C   0  0  2  0  0  0  0  0  0  0  0  0
    9.6532    0.3133   -1.1172 C   0  0  1  0  0  0  0  0  0  0  0  0
    9.2365    0.9529   -2.3185 O   0  0  0  0  0  0  0  0  0  0  0  0
    9.0850    1.0675    0.1023 C   0  0  2  0  0  0  0  0  0  0  0  0
    6.9211   -4.6537   -3.1697 C   0  0  2  0  0  0  0  0  0  0  0  0
    7.5642   -3.3753   -3.2874 O   0  0  0  0  0  0  0  0  0  0  0  0
    8.3587   -3.0645   -2.1286 C   0  0  2  0  0  0  0  0  0  0  0  0
    8.9428   -1.7512   -2.2537 O   0  0  0  0  0  0  0  0  0  0  0  0
    9.4583   -4.1209   -1.9250 C   0  0  2  0  0  0  0  0  0  0  0  0
   10.5437   -3.9225   -2.8678 N   0  3  0  0  0  0  0  0  0  0  0  0
    8.9314   -5.5584   -2.0072 C   0  0  1  0  0  0  0  0  0  0  0  0
    8.2754   -5.8896   -0.7936 O   0  0  0  0  0  0  0  0  0  0  0  0
    7.9718   -5.7567   -3.1774 C   0  0  2  0  0  0  0  0  0  0  0  0
    8.6920   -5.7386   -4.4044 O   0  0  0  0  0  0  0  0  0  0  0  0
    5.9138   -4.8550   -4.2983 C   0  0  0  0  0  0  0  0  0  0  0  0
    4.5582   -4.7571   -3.7907 N   0  3  0  0  0  0  0  0  0  0  0  0
   13.7723    3.1635   -0.8811 C   0  0  1  0  0  0  0  0  0  0  0  0
   12.7273    2.1935   -0.6596 O   0  0  0  0  0  0  0  0  0  0  0  0
   12.7257    1.6491    0.6802 C   0  0  2  0  0  0  0  0  0  0  0  0
   12.4078    2.6539    1.6747 O   0  0  0  0  0  0  0  0  0  0  0  0
   14.0655    0.9699    0.9892 C   0  0  2  0  0  0  0  0  0  0  0  0
   14.1294    0.6170    2.3953 N   0  3  0  0  0  0  0  0  0  0  0  0
   15.2475    1.8689    0.6440 C   0  0  1  0  0  0  0  0  0  0  0  0
   16.4530    1.1237    0.7202 O   0  0  0  0  0  0  0  0  0  0  0  0
   15.1349    2.5065   -0.7322 C   0  0  2  0  0  0  0  0  0  0  0  0
   16.1618    3.4700   -0.9153 O   0  0  0  0  0  0  0  0  0  0  0  0
   13.6781    3.7180   -2.2996 C   0  0  0  0  0  0  0  0  0  0  0  0
   13.9296    2.6749   -3.2771 N   0  3  0  0  0  0  0  0  0  0  0  0
    8.6373    3.8574    3.2350 C   0  0  2  0  0  0  0  0  0  0  0  0
    9.4648    4.8908    2.4966 C   0  0  0  0  0  0  0  0  0  0  0  0
   10.9044    4.4277    2.3705 C   0  0  1  0  0  0  0  0  0  0  0  0
   11.0376    3.1245    1.5812 C   0  0  2  0  0  0  0  0  0  0  0  0
   10.0719    2.0466    2.1256 C   0  0  1  0  0  0  0  0  0  0  0  0
    8.6627    2.5228    2.5023 C   0  0  1  0  0  0  0  0  0  0  0  0
    7.2691    4.3260    3.3469 N   0  3  0  0  0  0  0  0  0  0  0  0
   11.6857    5.4806    1.7515 N   0  3  0  0  0  0  0  0  0  0  0  0
    9.9886    0.9082    1.2334 O   0  0  0  0  0  0  0  0  0  0  0  0
    8.0132    1.5302    3.2898 O   0  0  0  0  0  0  0  0  0  0  0  0
  1  2  1  0  0  0  0
  3  2  1  1  0  0  0
  3  4  1  0  0  0  0
  3  5  1  0  0  0  0
  4  8  1  0  0  0  0
  5  6  1  0  0  0  0
  5 12  1  6  0  0  0
  6  7  1  6  0  0  0
  6  8  1  0  0  0  0
  8 41  1  1  0  0  0
  9 10  1  0  0  0  0
  9 17  1  0  0  0  0
  9 19  1  6  0  0  0
 10 11  1  0  0  0  0
 11 12  1  6  0  0  0
 11 13  1  0  0  0  0
 13 14  1  6  0  0  0
 13 15  1  0  0  0  0
 15 16  1  1  0  0  0
 15 17  1  0  0  0  0
 17 18  1  6  0  0  0
 19 20  1  0  0  0  0
 21 22  1  0  0  0  0
 21 29  1  0  0  0  0
 21 31  1  6  0  0  0
 22 23  1  0  0  0  0
 23 24  1  1  0  0  0
 23 25  1  0  0  0  0
 25 26  1  1  0  0  0
 25 27  1  0  0  0  0
 27 28  1  6  0  0  0
 27 29  1  0  0  0  0
 29 30  1  1  0  0  0
 31 32  1  0  0  0  0
 33 34  1  0  0  0  0
 33 38  1  0  0  0  0
 33 39  1  6  0  0  0
 34 35  1  0  0  0  0
 35 36  1  0  0  0  0
 35 40  1  6  0  0  0
 36 24  1  1  0  0  0
 36 37  1  0  0  0  0
 37 38  1  0  0  0  0
 37 41  1  6  0  0  0
 38 42  1  1  0  0  0
M  CHG  6  14   1  20   1  26   1  32   1  39   1  40   1
M  END
>  <CHROM.1>
-170.84163189,-60.87039225,-70.56756515,58.72647643,-96.99634439,-107.52355319
142.64560643,170.54522881,-55.75117037,44.45889226,-33.56056495,-64.70624628
67.56805441,-164.04194897,-144.36576299,51.90582953,-178.81997592,87.94431082
34.64619381,-54.37668392,-81.84870938,-60.23163976,10.21982400,0.06366386
-0.37060086,2.15471381,-0.30095511,-2.49663847

>  <Name>


>  <RI>
0

>  <Rbt.Current_Directory>
/home/itssahil/PROJECTS/Mol_Feturizer/New_Systems/rnas/1qd3

>  <Rbt.Executable>
rbdock ($Id: //depot/dev/client3/rdock/2013.1/src/exe/rbdock.cxx#4 $)

>  <Rbt.Library>
libRbt.so (2013.1, Build901 2013/11/27)

>  <Rbt.Parameter_File>
/export/apps/rDock/src/rDock_2013.1_src/data/scripts/dock_solv.prm

>  <Rbt.Receptor>
prm/pocket_docking_8.prm

>  <SCORE>
-57.1536

>  <SCORE.INTER>
-42.4935

>  <SCORE.INTER.CONST>
1

>  <SCORE.INTER.POLAR>
-7.49991

>  <SCORE.INTER.ROT>
9

>  <SCORE.INTER.SOLV>
33.5665

>  <SCORE.INTER.VDW>
-24.1182

>  <SCORE.INTER.norm>
-1.01175

>  <SCORE.INTRA>
-14.66

>  <SCORE.INTRA.DIHEDRAL>
-12.0185

>  <SCORE.INTRA.DIHEDRAL.0>
40.6252

>  <SCORE.INTRA.POLAR>
1.16621

>  <SCORE.INTRA.POLAR.0>
-1.20161

>  <SCORE.INTRA.REPUL>
-0.112454

>  <SCORE.INTRA.REPUL.0>
0.115675

>  <SCORE.INTRA.SOLV>
-13.2749

>  <SCORE.INTRA.SOLV.lig_0>
-154.895

>  <SCORE.INTRA.VDW>
-5.41616

>  <SCORE.INTRA.VDW.0>
2.2925

>  <SCORE.INTRA.norm>
-0.349048

>  <SCORE.RESTR>
0

>  <SCORE.RESTR.CAVITY>
0

>  <SCORE.RESTR.norm>
0

>  <SCORE.SYSTEM>
0

>  <SCORE.SYSTEM.CONST>
0

>  <SCORE.SYSTEM.DIHEDRAL>
0

>  <SCORE.SYSTEM.SOLV>
0

>  <SCORE.SYSTEM.norm>
0

>  <SCORE.heavy>
42

>  <SCORE.norm>
-1.3608

>  <RMSD>
6.111

$$$$

 OpenBabel11021811413D
libRbt.so/2013.1/901 2013/11/27
 42 45  0  0  0  0  0  0  0  0999 V2000
    8.0763   -5.2159   -0.5296 O   0  0  0  0  0  0  0  0  0  0  0  0
    7.9512   -4.9441   -1.9182 C   0  0  0  0  0  0  0  0  0  0  0  0
    7.1082   -3.6852   -2.1254 C   0  0  1  0  0  0  0  0  0  0  0  0
    7.4973   -2.6366   -1.2118 O   0  0  0  0  0  0  0  0  0  0  0  0
    7.2430   -3.0911   -3.5176 C   0  0  2  0  0  0  0  0  0  0  0  0
    6.7476   -1.6771   -3.2647 C   0  0  1  0  0  0  0  0  0  0  0  0
    5.3268   -1.6735   -3.1790 O   0  0  0  0  0  0  0  0  0  0  0  0
    7.3567   -1.3593   -1.8839 C   0  0  2  0  0  0  0  0  0  0  0  0
    6.5123   -7.4440   -4.2810 C   0  0  2  0  0  0  0  0  0  0  0  0
    6.0355   -6.1014   -4.1033 O   0  0  0  0  0  0  0  0  0  0  0  0
    6.9049   -5.1360   -4.7220 C   0  0  2  0  0  0  0  0  0  0  0  0
    6.4293   -3.7963   -4.4755 O   0  0  0  0  0  0  0  0  0  0  0  0
    7.0138   -5.3942   -6.2346 C   0  0  2  0  0  0  0  0  0  0  0  0
    5.8210   -4.9353   -6.9224 N   0  3  0  0  0  0  0  0  0  0  0  0
    7.2980   -6.8623   -6.5734 C   0  0  1  0  0  0  0  0  0  0  0  0
    8.6702   -7.1412   -6.3448 O   0  0  0  0  0  0  0  0  0  0  0  0
    6.4382   -7.8216   -5.7549 C   0  0  2  0  0  0  0  0  0  0  0  0
    5.0899   -7.7709   -6.2064 O   0  0  0  0  0  0  0  0  0  0  0  0
    5.7042   -8.4189   -3.4292 C   0  0  0  0  0  0  0  0  0  0  0  0
    5.8866   -8.1309   -2.0189 N   0  3  0  0  0  0  0  0  0  0  0  0
   11.1413   -2.6755   -3.1624 C   0  0  1  0  0  0  0  0  0  0  0  0
   10.9624   -2.4239   -1.7529 O   0  0  0  0  0  0  0  0  0  0  0  0
   11.8561   -1.4124   -1.2337 C   0  0  2  0  0  0  0  0  0  0  0  0
   11.5867   -0.1064   -1.8005 O   0  0  0  0  0  0  0  0  0  0  0  0
   13.3184   -1.8193   -1.4528 C   0  0  2  0  0  0  0  0  0  0  0  0
   14.1956   -0.7115   -1.1227 N   0  3  0  0  0  0  0  0  0  0  0  0
   13.5754   -2.2501   -2.8925 C   0  0  1  0  0  0  0  0  0  0  0  0
   14.8637   -2.8367   -2.9932 O   0  0  0  0  0  0  0  0  0  0  0  0
   12.5346   -3.2246   -3.4222 C   0  0  2  0  0  0  0  0  0  0  0  0
   12.7215   -3.4381   -4.8137 O   0  0  0  0  0  0  0  0  0  0  0  0
   10.1358   -3.7201   -3.6383 C   0  0  0  0  0  0  0  0  0  0  0  0
   10.2518   -3.9308   -5.0697 N   0  3  0  0  0  0  0  0  0  0  0  0
    8.9879    0.6820    1.4743 C   0  0  2  0  0  0  0  0  0  0  0  0
    9.9898    1.7517    1.0870 C   0  0  0  0  0  0  0  0  0  0  0  0
   11.0743    1.1683    0.2003 C   0  0  1  0  0  0  0  0  0  0  0  0
   10.5237    0.5993   -1.1081 C   0  0  2  0  0  0  0  0  0  0  0  0
    9.3415   -0.3607   -0.8399 C   0  0  1  0  0  0  0  0  0  0  0  0
    8.3394    0.0773    0.2363 C   0  0  1  0  0  0  0  0  0  0  0  0
    7.9668    1.2634    2.3248 N   0  3  0  0  0  0  0  0  0  0  0  0
   12.0662    2.1916   -0.0665 N   0  3  0  0  0  0  0  0  0  0  0  0
    8.6408   -0.6956   -2.0629 O   0  0  0  0  0  0  0  0  0  0  0  0
    7.5232   -1.0268    0.6127 O   0  0  0  0  0  0  0  0  0  0  0  0
  1  2  1  0  0  0  0
  3  2  1  6  0  0  0
  3  4  1  0  0  0  0
  3  5  1  0  0  0  0
  4  8  1  0  0  0  0
  5  6  1  0  0  0  0
  5 12  1  6  0  0  0
  6  7  1  1  0  0  0
  6  8  1  0  0  0  0
  8 41  1  6  0  0  0
  9 10  1  0  0  0  0
  9 17  1  0  0  0  0
  9 19  1  1  0  0  0
 10 11  1  0  0  0  0
 11 12  1  6  0  0  0
 11 13  1  0  0  0  0
 13 14  1  6  0  0  0
 13 15  1  0  0  0  0
 15 16  1  1  0  0  0
 15 17  1  0  0  0  0
 17 18  1  6  0  0  0
 19 20  1  0  0  0  0
 21 22  1  0  0  0  0
 21 29  1  0  0  0  0
 21 31  1  1  0  0  0
 22 23  1  0  0  0  0
 23 24  1  6  0  0  0
 23 25  1  0  0  0  0
 25 26  1  6  0  0  0
 25 27  1  0  0  0  0
 27 28  1  1  0  0  0
 27 29  1  0  0  0  0
 29 30  1  6  0  0  0
 31 32  1  0  0  0  0
 33 34  1  0  0  0  0
 33 38  1  0  0  0  0
 33 39  1  1  0  0  0
 34 35  1  0  0  0  0
 35 36  1  0  0  0  0
 35 40  1  6  0  0  0
 36 24  1  1  0  0  0
 36 37  1  0  0  0  0
 37 38  1  0  0  0  0
 37 41  1  6  0  0  0
 38 42  1  1  0  0  0
M  CHG  6  14   1  20   1  26   1  32   1  39   1  40   1
M  END
>  <CHROM.1>
55.80938221,44.39964295,-68.32427924,-178.53704829,-61.96527565,-63.79958946
106.77936049,53.27485344,64.93413822,-173.70583879,173.75342019,176.80952363
84.17511774,77.25106437,-179.02272777,62.63166319,-173.65772087,29.87032112
178.48845014,-55.95848757,-167.62090201,53.19098267,8.96345597,-3.02123601
-2.62914329,2.10301080,-0.20968245,-2.41941687

>  <Name>


>  <RI>
0

>  <Rbt.Current_Directory>
/home/itssahil/PROJECTS/Mol_Feturizer/New_Systems/rnas/1qd3

>  <Rbt.Executable>
rbdock ($Id: //depot/dev/client3/rdock/2013.1/src/exe/rbdock.cxx#4 $)

>  <Rbt.Library>
libRbt.so (2013.1, Build901 2013/11/27)

>  <Rbt.Parameter_File>
/export/apps/rDock/src/rDock_2013.1_src/data/scripts/dock_solv.prm

>  <Rbt.Receptor>
prm/pocket_docking_3.prm

>  <SCORE>
-43.1929

>  <SCORE.INTER>
-30.9702

>  <SCORE.INTER.CONST>
1

>  <SCORE.INTER.POLAR>
-5.41037

>  <SCORE.INTER.ROT>
9

>  <SCORE.INTER.SOLV>
27.3516

>  <SCORE.INTER.VDW>
-21.3295

>  <SCORE.INTER.norm>
-0.737387

>  <SCORE.INTRA>
-15.2187

>  <SCORE.INTRA.DIHEDRAL>
-22.8382

>  <SCORE.INTRA.DIHEDRAL.0>
40.6252

>  <SCORE.INTRA.POLAR>
0.141335

>  <SCORE.INTRA.POLAR.0>
-1.20161

>  <SCORE.INTRA.REPUL>
0.103827

>  <SCORE.INTRA.REPUL.0>
0.115675

>  <SCORE.INTRA.SOLV>
-5.02389

>  <SCORE.INTRA.SOLV.lig_0>
-154.895

>  <SCORE.INTRA.VDW>
-2.28729

>  <SCORE.INTRA.VDW.0>
2.2925

>  <SCORE.INTRA.norm>
-0.362349

>  <SCORE.RESTR>
2.996

>  <SCORE.RESTR.CAVITY>
2.996

>  <SCORE.RESTR.norm>
0.0713334

>  <SCORE.SYSTEM>
0

>  <SCORE.SYSTEM.CONST>
0

>  <SCORE.SYSTEM.DIHEDRAL>
0

>  <SCORE.SYSTEM.SOLV>
0

>  <SCORE.SYSTEM.norm>
0

>  <SCORE.heavy>
42

>  <SCORE.norm>
-1.0284

>  <RMSD>
6.117

$$$$

 OpenBabel11021811413D
libRbt.so/2013.1/901 2013/11/27
 42 45  0  0  0  0  0  0  0  0999 V2000
    4.3465   -4.8251   -5.0835 O   0  0  0  0  0  0  0  0  0  0  0  0
    5.3566   -5.1809   -4.1504 C   0  0  0  0  0  0  0  0  0  0  0  0
    6.4670   -4.1295   -4.1636 C   0  0  1  0  0  0  0  0  0  0  0  0
    6.0640   -2.9314   -3.4653 O   0  0  0  0  0  0  0  0  0  0  0  0
    7.7451   -4.5932   -3.4847 C   0  0  2  0  0  0  0  0  0  0  0  0
    8.4150   -3.2567   -3.2129 C   0  0  1  0  0  0  0  0  0  0  0  0
    8.9929   -2.7556   -4.4132 O   0  0  0  0  0  0  0  0  0  0  0  0
    7.2225   -2.3720   -2.7961 C   0  0  2  0  0  0  0  0  0  0  0  0
    6.4577   -8.0442   -5.8529 C   0  0  2  0  0  0  0  0  0  0  0  0
    7.0997   -6.7709   -5.6857 O   0  0  0  0  0  0  0  0  0  0  0  0
    7.9467   -6.7446   -4.5226 C   0  0  2  0  0  0  0  0  0  0  0  0
    8.5296   -5.4359   -4.3515 O   0  0  0  0  0  0  0  0  0  0  0  0
    9.0502   -7.8109   -4.6304 C   0  0  2  0  0  0  0  0  0  0  0  0
   10.0930   -7.3822   -5.5443 N   0  3  0  0  0  0  0  0  0  0  0  0
    8.5146   -9.1894   -5.0350 C   0  0  1  0  0  0  0  0  0  0  0  0
    7.9124   -9.8095   -3.9100 O   0  0  0  0  0  0  0  0  0  0  0  0
    7.5027   -9.1050   -6.1745 C   0  0  2  0  0  0  0  0  0  0  0  0
    8.1671   -8.7849   -7.3913 O   0  0  0  0  0  0  0  0  0  0  0  0
    5.3999   -7.9732   -6.9506 C   0  0  0  0  0  0  0  0  0  0  0  0
    4.0723   -7.8954   -6.3707 N   0  3  0  0  0  0  0  0  0  0  0  0
   10.5524   -3.5652   -1.3068 C   0  0  1  0  0  0  0  0  0  0  0  0
   10.9308   -2.2277   -0.9192 O   0  0  0  0  0  0  0  0  0  0  0  0
   10.8834   -1.2801   -2.0105 C   0  0  2  0  0  0  0  0  0  0  0  0
    9.5327   -1.0737   -2.4929 O   0  0  0  0  0  0  0  0  0  0  0  0
   11.8155   -1.7176   -3.1470 C   0  0  2  0  0  0  0  0  0  0  0  0
   11.6020   -0.8803   -4.3129 N   0  3  0  0  0  0  0  0  0  0  0  0
   11.5931   -3.1764   -3.5303 C   0  0  1  0  0  0  0  0  0  0  0  0
   12.6236   -3.6023   -4.4083 O   0  0  0  0  0  0  0  0  0  0  0  0
   11.5347   -4.1098   -2.3308 C   0  0  2  0  0  0  0  0  0  0  0  0
   11.1408   -5.4121   -2.7377 O   0  0  0  0  0  0  0  0  0  0  0  0
   10.5876   -4.4902   -0.0936 C   0  0  0  0  0  0  0  0  0  0  0  0
   11.8582   -4.3807    0.5996 N   0  3  0  0  0  0  0  0  0  0  0  0
    8.3127   -0.1619    1.4795 C   0  0  2  0  0  0  0  0  0  0  0  0
    8.6800    0.9903    0.5654 C   0  0  0  0  0  0  0  0  0  0  0  0
    9.4584    0.4879   -0.6365 C   0  0  1  0  0  0  0  0  0  0  0  0
    8.6576   -0.4989   -1.4872 C   0  0  2  0  0  0  0  0  0  0  0  0
    8.0529   -1.6207   -0.6115 C   0  0  1  0  0  0  0  0  0  0  0  0
    7.4665   -1.1887    0.7390 C   0  0  1  0  0  0  0  0  0  0  0  0
    7.5756    0.3450    2.6213 N   0  3  0  0  0  0  0  0  0  0  0  0
    9.8791    1.6236   -1.4337 N   0  3  0  0  0  0  0  0  0  0  0  0
    7.0803   -2.4031   -1.3469 O   0  0  0  0  0  0  0  0  0  0  0  0
    7.2661   -2.3311    1.5649 O   0  0  0  0  0  0  0  0  0  0  0  0
  1  2  1  0  0  0  0
  3  2  1  1  0  0  0
  3  4  1  0  0  0  0
  3  5  1  0  0  0  0
  4  8  1  0  0  0  0
  5  6  1  0  0  0  0
  5 12  1  6  0  0  0
  6  7  1  6  0  0  0
  6  8  1  0  0  0  0
  8 41  1  1  0  0  0
  9 10  1  0  0  0  0
  9 17  1  0  0  0  0
  9 19  1  6  0  0  0
 10 11  1  0  0  0  0
 11 12  1  6  0  0  0
 11 13  1  0  0  0  0
 13 14  1  6  0  0  0
 13 15  1  0  0  0  0
 15 16  1  1  0  0  0
 15 17  1  0  0  0  0
 17 18  1  6  0  0  0
 19 20  1  0  0  0  0
 21 22  1  0  0  0  0
 21 29  1  0  0  0  0
 21 31  1  1  0  0  0
 22 23  1  0  0  0  0
 23 24  1  6  0  0  0
 23 25  1  0  0  0  0
 25 26  1  6  0  0  0
 25 27  1  0  0  0  0
 27 28  1  6  0  0  0
 27 29  1  0  0  0  0
 29 30  1  6  0  0  0
 31 32  1  0  0  0  0
 33 34  1  0  0  0  0
 33 38  1  0  0  0  0
 33 39  1  1  0  0  0
 34 35  1  0  0  0  0
 35 36  1  0  0  0  0
 35 40  1  6  0  0  0
 36 24  1  6  0  0  0
 36 37  1  0  0  0  0
 37 38  1  0  0  0  0
 37 41  1  6  0  0  0
 38 42  1  1  0  0  0
M  CHG  6  14   1  20   1  26   1  32   1  39   1  40   1
M  END
>  <CHROM.1>
-170.47920972,76.02492066,-72.64754706,156.78861315,-167.68459843,-102.64919931
92.82585518,166.59219573,-54.10982134,50.71216420,-69.32461242,-51.33744809
62.92363241,35.74696498,179.46641815,-72.23744531,-65.33376964,-63.59040163
-105.17733806,-75.56076112,22.95324015,-178.84158041,8.63254865,-3.95964466
-2.93605862,1.81489012,-0.01828517,-2.48981832

>  <Name>


>  <RI>
0

>  <Rbt.Current_Directory>
/home/itssahil/PROJECTS/Mol_Feturizer/New_Systems/rnas/1qd3

>  <Rbt.Executable>
rbdock ($Id: //depot/dev/client3/rdock/2013.1/src/exe/rbdock.cxx#4 $)

>  <Rbt.Library>
libRbt.so (2013.1, Build901 2013/11/27)

>  <Rbt.Parameter_File>
/export/apps/rDock/src/rDock_2013.1_src/data/scripts/dock_solv.prm

>  <Rbt.Receptor>
prm/pocket_docking_3.prm

>  <SCORE>
-36.6307

>  <SCORE.INTER>
-29.6043

>  <SCORE.INTER.CONST>
1

>  <SCORE.INTER.POLAR>
-4.8158

>  <SCORE.INTER.ROT>
9

>  <SCORE.INTER.SOLV>
32.6954

>  <SCORE.INTER.VDW>
-24.182

>  <SCORE.INTER.norm>
-0.704865

>  <SCORE.INTRA>
-8.22247

>  <SCORE.INTRA.DIHEDRAL>
-11.9898

>  <SCORE.INTRA.DIHEDRAL.0>
40.6252

>  <SCORE.INTRA.POLAR>
0.91462

>  <SCORE.INTRA.POLAR.0>
-1.20161

>  <SCORE.INTRA.REPUL>
-0.115675

>  <SCORE.INTRA.REPUL.0>
0.115675

>  <SCORE.INTRA.SOLV>
-4.95505

>  <SCORE.INTRA.SOLV.lig_0>
-154.895

>  <SCORE.INTRA.VDW>
-2.28138

>  <SCORE.INTRA.VDW.0>
2.2925

>  <SCORE.INTRA.norm>
-0.195773

>  <SCORE.RESTR>
1.19613

>  <SCORE.RESTR.CAVITY>
1.19613

>  <SCORE.RESTR.norm>
0.0284792

>  <SCORE.SYSTEM>
0

>  <SCORE.SYSTEM.CONST>
0

>  <SCORE.SYSTEM.DIHEDRAL>
0

>  <SCORE.SYSTEM.SOLV>
0

>  <SCORE.SYSTEM.norm>
0

>  <SCORE.heavy>
42

>  <SCORE.norm>
-0.872159

>  <RMSD>
6.133

$$$$

 OpenBabel11021811413D
libRbt.so/2013.1/901 2013/11/27
 42 45  0  0  0  0  0  0  0  0999 V2000
    6.1598   -1.3010    1.8919 O   0  0  0  0  0  0  0  0  0  0  0  0
    7.0631   -1.8390    0.9368 C   0  0  0  0  0  0  0  0  0  0  0  0
    7.6451   -0.7121    0.0825 C   0  0  1  0  0  0  0  0  0  0  0  0
    7.7279    0.5223    0.8275 O   0  0  0  0  0  0  0  0  0  0  0  0
    9.0555   -0.9938   -0.4082 C   0  0  2  0  0  0  0  0  0  0  0  0
    9.5164    0.4134   -0.7494 C   0  0  1  0  0  0  0  0  0  0  0  0
    8.9469    0.8186   -1.9893 O   0  0  0  0  0  0  0  0  0  0  0  0
    8.9116    1.2435    0.4012 C   0  0  2  0  0  0  0  0  0  0  0  0
    8.6344   -5.4951   -1.5277 C   0  0  2  0  0  0  0  0  0  0  0  0
    8.4272   -4.1235   -1.8979 O   0  0  0  0  0  0  0  0  0  0  0  0
    9.3260   -3.2381   -1.2057 C   0  0  2  0  0  0  0  0  0  0  0  0
    9.0528   -1.8654   -1.5559 O   0  0  0  0  0  0  0  0  0  0  0  0
   10.7888   -3.5902   -1.5263 C   0  0  2  0  0  0  0  0  0  0  0  0
   11.1542   -3.1173   -2.8489 N   0  3  0  0  0  0  0  0  0  0  0  0
   11.0892   -5.0874   -1.3892 C   0  0  1  0  0  0  0  0  0  0  0  0
   11.2259   -5.4164   -0.0159 O   0  0  0  0  0  0  0  0  0  0  0  0
   10.0018   -5.9553   -2.0167 C   0  0  2  0  0  0  0  0  0  0  0  0
   10.0694   -5.8682   -3.4353 O   0  0  0  0  0  0  0  0  0  0  0  0
    7.5282   -6.3789   -2.0968 C   0  0  0  0  0  0  0  0  0  0  0  0
    6.2778   -6.1358   -1.4023 N   0  3  0  0  0  0  0  0  0  0  0  0
   13.6140    2.0885    2.0319 C   0  0  1  0  0  0  0  0  0  0  0  0
   12.5300    2.0509    2.9836 O   0  0  0  0  0  0  0  0  0  0  0  0
   11.9753    3.3550    3.2717 C   0  0  2  0  0  0  0  0  0  0  0  0
   11.3280    3.9381    2.1138 O   0  0  0  0  0  0  0  0  0  0  0  0
   13.0547    4.2899    3.8308 C   0  0  2  0  0  0  0  0  0  0  0  0
   12.5411    5.6444    3.9163 N   0  3  0  0  0  0  0  0  0  0  0  0
   14.3106    4.2838    2.9665 C   0  0  1  0  0  0  0  0  0  0  0  0
   15.3567    4.9682    3.6385 O   0  0  0  0  0  0  0  0  0  0  0  0
   14.7787    2.8844    2.5979 C   0  0  2  0  0  0  0  0  0  0  0  0
   15.8305    2.9505    1.6461 O   0  0  0  0  0  0  0  0  0  0  0  0
   14.1126    0.6736    1.7520 C   0  0  0  0  0  0  0  0  0  0  0  0
   14.4532   -0.0055    2.9887 N   0  3  0  0  0  0  0  0  0  0  0  0
    7.5625    3.1335    3.9232 C   0  0  2  0  0  0  0  0  0  0  0  0
    7.7867    4.5094    3.3275 C   0  0  0  0  0  0  0  0  0  0  0  0
    9.2667    4.7557    3.1004 C   0  0  1  0  0  0  0  0  0  0  0  0
    9.8877    3.7564    2.1233 C   0  0  2  0  0  0  0  0  0  0  0  0
    9.5425    2.3034    2.5237 C   0  0  1  0  0  0  0  0  0  0  0  0
    8.1057    2.0514    2.9998 C   0  0  1  0  0  0  0  0  0  0  0  0
    6.1428    2.9258    4.1354 N   0  3  0  0  0  0  0  0  0  0  0  0
    9.4513    6.1136    2.6268 N   0  3  0  0  0  0  0  0  0  0  0  0
    9.8886    1.3663    1.4744 O   0  0  0  0  0  0  0  0  0  0  0  0
    8.0272    0.7851    3.6459 O   0  0  0  0  0  0  0  0  0  0  0  0
  1  2  1  0  0  0  0
  3  2  1  1  0  0  0
  3  4  1  0  0  0  0
  3  5  1  0  0  0  0
  4  8  1  0  0  0  0
  5  6  1  0  0  0  0
  5 12  1  6  0  0  0
  6  7  1  6  0  0  0
  6  8  1  0  0  0  0
  8 41  1  1  0  0  0
  9 10  1  0  0  0  0
  9 17  1  0  0  0  0
  9 19  1  6  0  0  0
 10 11  1  0  0  0  0
 11 12  1  6  0  0  0
 11 13  1  0  0  0  0
 13 14  1  6  0  0  0
 13 15  1  0  0  0  0
 15 16  1  1  0  0  0
 15 17  1  0  0  0  0
 17 18  1  6  0  0  0
 19 20  1  0  0  0  0
 21 22  1  0  0  0  0
 21 29  1  0  0  0  0
 21 31  1  1  0  0  0
 22 23  1  0  0  0  0
 23 24  1  6  0  0  0
 23 25  1  0  0  0  0
 25 26  1  6  0  0  0
 25 27  1  0  0  0  0
 27 28  1  1  0  0  0
 27 29  1  0  0  0  0
 29 30  1  6  0  0  0
 31 32  1  0  0  0  0
 33 34  1  0  0  0  0
 33 38  1  0  0  0  0
 33 39  1  6  0  0  0
 34 35  1  0  0  0  0
 35 36  1  0  0  0  0
 35 40  1  6  0  0  0
 36 24  1  1  0  0  0
 36 37  1  0  0  0  0
 37 38  1  0  0  0  0
 37 41  1  6  0  0  0
 38 42  1  1  0  0  0
M  CHG  6  14   1  20   1  26   1  32   1  39   1  40   1
M  END
>  <CHROM.1>
-175.07969681,30.24534556,-98.92769885,-177.40722337,-72.94970526,-71.09954703
135.98705892,-77.74448158,-64.64213814,-59.16433403,-159.56649180,-53.78887116
98.31791563,77.25515517,-52.42242954,60.82486511,173.25966638,-69.73911598
173.13828939,97.40240077,-81.87646763,-59.23410748,10.19511199,0.24704715
1.04107017,1.87241517,-0.05338554,-2.62037824

>  <Name>


>  <RI>
0

>  <Rbt.Current_Directory>
/home/itssahil/PROJECTS/Mol_Feturizer/New_Systems/rnas/1qd3

>  <Rbt.Executable>
rbdock ($Id: //depot/dev/client3/rdock/2013.1/src/exe/rbdock.cxx#4 $)

>  <Rbt.Library>
libRbt.so (2013.1, Build901 2013/11/27)

>  <Rbt.Parameter_File>
/export/apps/rDock/src/rDock_2013.1_src/data/scripts/dock_solv.prm

>  <Rbt.Receptor>
prm/pocket_docking_7.prm

>  <SCORE>
-51.2378

>  <SCORE.INTER>
-37.5995

>  <SCORE.INTER.CONST>
1

>  <SCORE.INTER.POLAR>
-5.91258

>  <SCORE.INTER.ROT>
9

>  <SCORE.INTER.SOLV>
33.1321

>  <SCORE.INTER.VDW>
-26.0018

>  <SCORE.INTER.norm>
-0.895227

>  <SCORE.INTRA>
-13.6383

>  <SCORE.INTRA.DIHEDRAL>
-9.90614

>  <SCORE.INTRA.DIHEDRAL.0>
40.6252

>  <SCORE.INTRA.POLAR>
0.613748

>  <SCORE.INTRA.POLAR.0>
-1.20161

>  <SCORE.INTRA.REPUL>
-0.115675

>  <SCORE.INTRA.REPUL.0>
0.115675

>  <SCORE.INTRA.SOLV>
-7.81632

>  <SCORE.INTRA.SOLV.lig_0>
-154.895

>  <SCORE.INTRA.VDW>
-6.28546

>  <SCORE.INTRA.VDW.0>
2.2925

>  <SCORE.INTRA.norm>
-0.324722

>  <SCORE.RESTR>
0

>  <SCORE.RESTR.CAVITY>
0

>  <SCORE.RESTR.norm>
0

>  <SCORE.SYSTEM>
0

>  <SCORE.SYSTEM.CONST>
0

>  <SCORE.SYSTEM.DIHEDRAL>
0

>  <SCORE.SYSTEM.SOLV>
0

>  <SCORE.SYSTEM.norm>
0

>  <SCORE.heavy>
42

>  <SCORE.norm>
-1.21995

>  <RMSD>
6.165

$$$$

 OpenBabel11021811413D
libRbt.so/2013.1/901 2013/11/27
 42 45  0  0  0  0  0  0  0  0999 V2000
    9.1953   -4.8933   -0.1749 O   0  0  0  0  0  0  0  0  0  0  0  0
    8.8810   -4.3680   -1.4566 C   0  0  0  0  0  0  0  0  0  0  0  0
    7.9673   -3.1509   -1.3075 C   0  0  1  0  0  0  0  0  0  0  0  0
    8.6311   -2.0792   -0.6029 O   0  0  0  0  0  0  0  0  0  0  0  0
    7.5267   -2.5607   -2.6367 C   0  0  2  0  0  0  0  0  0  0  0  0
    7.1038   -1.1694   -2.1956 C   0  0  1  0  0  0  0  0  0  0  0  0
    5.8279   -1.2311   -1.5677 O   0  0  0  0  0  0  0  0  0  0  0  0
    8.1841   -0.8144   -1.1536 C   0  0  2  0  0  0  0  0  0  0  0  0
    7.6409   -6.6575   -4.0480 C   0  0  2  0  0  0  0  0  0  0  0  0
    7.1278   -5.5744   -3.2574 O   0  0  0  0  0  0  0  0  0  0  0  0
    6.8980   -4.3938   -4.0475 C   0  0  2  0  0  0  0  0  0  0  0  0
    6.4389   -3.3093   -3.2141 O   0  0  0  0  0  0  0  0  0  0  0  0
    5.8786   -4.6778   -5.1641 C   0  0  2  0  0  0  0  0  0  0  0  0
    4.5299   -4.7256   -4.6299 N   0  3  0  0  0  0  0  0  0  0  0  0
    6.1907   -5.9568   -5.9499 C   0  0  1  0  0  0  0  0  0  0  0  0
    7.2442   -5.7018   -6.8653 O   0  0  0  0  0  0  0  0  0  0  0  0
    6.5769   -7.1171   -5.0366 C   0  0  2  0  0  0  0  0  0  0  0  0
    5.4301   -7.5879   -4.3382 O   0  0  0  0  0  0  0  0  0  0  0  0
    8.0870   -7.8113   -3.1545 C   0  0  0  0  0  0  0  0  0  0  0  0
    8.8209   -8.7959   -3.9271 N   0  3  0  0  0  0  0  0  0  0  0  0
   12.6023   -0.9749   -4.6007 C   0  0  1  0  0  0  0  0  0  0  0  0
   11.3614   -1.0130   -3.8652 O   0  0  0  0  0  0  0  0  0  0  0  0
   11.5317   -1.3619   -2.4721 C   0  0  2  0  0  0  0  0  0  0  0  0
   12.2718   -0.3502   -1.7451 O   0  0  0  0  0  0  0  0  0  0  0  0
   12.1965   -2.7372   -2.3368 C   0  0  2  0  0  0  0  0  0  0  0  0
   12.5520   -2.9814   -0.9513 N   0  3  0  0  0  0  0  0  0  0  0  0
   13.4469   -2.8481   -3.2020 C   0  0  1  0  0  0  0  0  0  0  0  0
   13.8904   -4.1959   -3.2307 O   0  0  0  0  0  0  0  0  0  0  0  0
   13.2372   -2.3557   -4.6257 C   0  0  2  0  0  0  0  0  0  0  0  0
   14.4755   -2.3089   -5.3192 O   0  0  0  0  0  0  0  0  0  0  0  0
   12.3405   -0.5593   -6.0455 C   0  0  0  0  0  0  0  0  0  0  0  0
   13.5663   -0.1134   -6.6822 N   0  3  0  0  0  0  0  0  0  0  0  0
   10.3850    2.7614    0.4588 C   0  0  2  0  0  0  0  0  0  0  0  0
   11.5914    3.1186   -0.3868 C   0  0  0  0  0  0  0  0  0  0  0  0
   12.3639    1.8685   -0.7656 C   0  0  1  0  0  0  0  0  0  0  0  0
   11.5312    0.8893   -1.5942 C   0  0  2  0  0  0  0  0  0  0  0  0
   10.1693    0.6103   -0.9173 C   0  0  1  0  0  0  0  0  0  0  0  0
    9.4572    1.8193   -0.2965 C   0  0  1  0  0  0  0  0  0  0  0  0
    9.6683    3.9722    0.8116 N   0  3  0  0  0  0  0  0  0  0  0  0
   13.5618    2.2548   -1.4853 N   0  3  0  0  0  0  0  0  0  0  0  0
    9.2677   -0.0931   -1.8069 O   0  0  0  0  0  0  0  0  0  0  0  0
    8.4172    1.3744    0.5681 O   0  0  0  0  0  0  0  0  0  0  0  0
  1  2  1  0  0  0  0
  3  2  1  6  0  0  0
  3  4  1  0  0  0  0
  3  5  1  0  0  0  0
  4  8  1  0  0  0  0
  5  6  1  0  0  0  0
  5 12  1  1  0  0  0
  6  7  1  1  0  0  0
  6  8  1  0  0  0  0
  8 41  1  6  0  0  0
  9 10  1  0  0  0  0
  9 17  1  0  0  0  0
  9 19  1  1  0  0  0
 10 11  1  0  0  0  0
 11 12  1  1  0  0  0
 11 13  1  0  0  0  0
 13 14  1  1  0  0  0
 13 15  1  0  0  0  0
 15 16  1  6  0  0  0
 15 17  1  0  0  0  0
 17 18  1  1  0  0  0
 19 20  1  0  0  0  0
 21 22  1  0  0  0  0
 21 29  1  0  0  0  0
 21 31  1  6  0  0  0
 22 23  1  0  0  0  0
 23 24  1  6  0  0  0
 23 25  1  0  0  0  0
 25 26  1  1  0  0  0
 25 27  1  0  0  0  0
 27 28  1  6  0  0  0
 27 29  1  0  0  0  0
 29 30  1  1  0  0  0
 31 32  1  0  0  0  0
 33 34  1  0  0  0  0
 33 38  1  0  0  0  0
 33 39  1  6  0  0  0
 34 35  1  0  0  0  0
 35 36  1  0  0  0  0
 35 40  1  6  0  0  0
 36 24  1  1  0  0  0
 36 37  1  0  0  0  0
 37 38  1  0  0  0  0
 37 41  1  6  0  0  0
 38 42  1  1  0  0  0
M  CHG  6  14   1  20   1  26   1  32   1  39   1  40   1
M  END
>  <CHROM.1>
-59.47395725,63.53824197,-88.71637695,179.10563748,-78.91562263,-169.72898752
86.81192533,1.63174858,-175.62973797,-67.45442497,173.13011057,162.21705406
68.63215117,177.52712438,-60.66602947,-64.29702382,-179.76856803,50.64121857
-73.23416350,-60.75287433,158.82941068,-61.88066674,9.63124075,-2.31076951
-2.74228531,2.14507287,-0.32914866,-2.56581831

>  <Name>


>  <RI>
0

>  <Rbt.Current_Directory>
/home/itssahil/PROJECTS/Mol_Feturizer/New_Systems/rnas/1qd3

>  <Rbt.Executable>
rbdock ($Id: //depot/dev/client3/rdock/2013.1/src/exe/rbdock.cxx#4 $)

>  <Rbt.Library>
libRbt.so (2013.1, Build901 2013/11/27)

>  <Rbt.Parameter_File>
/export/apps/rDock/src/rDock_2013.1_src/data/scripts/dock_solv.prm

>  <Rbt.Receptor>
prm/pocket_docking_6.prm

>  <SCORE>
-49.557

>  <SCORE.INTER>
-25.5544

>  <SCORE.INTER.CONST>
1

>  <SCORE.INTER.POLAR>
-3.30525

>  <SCORE.INTER.ROT>
9

>  <SCORE.INTER.SOLV>
23.9676

>  <SCORE.INTER.VDW>
-23.608

>  <SCORE.INTER.norm>
-0.608439

>  <SCORE.INTRA>
-24.0026

>  <SCORE.INTRA.DIHEDRAL>
-22.7454

>  <SCORE.INTRA.DIHEDRAL.0>
40.6252

>  <SCORE.INTRA.POLAR>
0.318095

>  <SCORE.INTRA.POLAR.0>
-1.20161

>  <SCORE.INTRA.REPUL>
-0.115675

>  <SCORE.INTRA.REPUL.0>
0.115675

>  <SCORE.INTRA.SOLV>
-12.118

>  <SCORE.INTRA.SOLV.lig_0>
-154.895

>  <SCORE.INTRA.VDW>
-7.07405

>  <SCORE.INTRA.VDW.0>
2.2925

>  <SCORE.INTRA.norm>
-0.57149

>  <SCORE.RESTR>
0

>  <SCORE.RESTR.CAVITY>
0

>  <SCORE.RESTR.norm>
0

>  <SCORE.SYSTEM>
0

>  <SCORE.SYSTEM.CONST>
0

>  <SCORE.SYSTEM.DIHEDRAL>
0

>  <SCORE.SYSTEM.SOLV>
0

>  <SCORE.SYSTEM.norm>
0

>  <SCORE.heavy>
42

>  <SCORE.norm>
-1.17993

>  <RMSD>
6.176

$$$$

 OpenBabel11021811413D
libRbt.so/2013.1/901 2013/11/27
 42 45  0  0  0  0  0  0  0  0999 V2000
    6.7639   -2.8484   -1.3620 O   0  0  0  0  0  0  0  0  0  0  0  0
    6.9002   -1.9611   -0.2612 C   0  0  0  0  0  0  0  0  0  0  0  0
    7.5976   -0.6778   -0.7140 C   0  0  1  0  0  0  0  0  0  0  0  0
    7.5760    0.3259    0.3242 O   0  0  0  0  0  0  0  0  0  0  0  0
    9.0628   -0.8786   -1.0639 C   0  0  2  0  0  0  0  0  0  0  0  0
    9.5684    0.5513   -0.9706 C   0  0  1  0  0  0  0  0  0  0  0  0
    9.1794    1.2757   -2.1325 O   0  0  0  0  0  0  0  0  0  0  0  0
    8.8086    1.0872    0.2599 C   0  0  2  0  0  0  0  0  0  0  0  0
   12.3033   -3.3619   -2.0272 C   0  0  2  0  0  0  0  0  0  0  0  0
   10.9379   -2.9653   -1.8276 O   0  0  0  0  0  0  0  0  0  0  0  0
   10.5783   -1.8419   -2.6518 C   0  0  2  0  0  0  0  0  0  0  0  0
    9.2207   -1.4331   -2.3848 O   0  0  0  0  0  0  0  0  0  0  0  0
   10.7497   -2.1848   -4.1416 C   0  0  2  0  0  0  0  0  0  0  0  0
    9.6600   -3.0237   -4.6055 N   0  3  0  0  0  0  0  0  0  0  0  0
   12.1011   -2.8374   -4.4552 C   0  0  1  0  0  0  0  0  0  0  0  0
   13.1100   -1.8403   -4.4852 O   0  0  0  0  0  0  0  0  0  0  0  0
   12.4746   -3.9118   -3.4375 C   0  0  2  0  0  0  0  0  0  0  0  0
   11.6529   -5.0592   -3.6190 O   0  0  0  0  0  0  0  0  0  0  0  0
   12.7205   -4.3968   -0.9861 C   0  0  0  0  0  0  0  0  0  0  0  0
   14.1541   -4.6146   -1.0346 N   0  3  0  0  0  0  0  0  0  0  0  0
   13.0026    5.5801    2.8115 C   0  0  1  0  0  0  0  0  0  0  0  0
   11.8352    5.7444    1.9795 O   0  0  0  0  0  0  0  0  0  0  0  0
   11.5352    4.5794    1.1769 C   0  0  2  0  0  0  0  0  0  0  0  0
   11.1566    3.4417    1.9907 O   0  0  0  0  0  0  0  0  0  0  0  0
   12.7160    4.2355    0.2610 C   0  0  2  0  0  0  0  0  0  0  0  0
   12.4891    2.9533   -0.3796 N   0  3  0  0  0  0  0  0  0  0  0  0
   14.0317    4.1856    1.0297 C   0  0  1  0  0  0  0  0  0  0  0  0
   15.1155    4.1009    0.1174 O   0  0  0  0  0  0  0  0  0  0  0  0
   14.2367    5.3817    1.9467 C   0  0  2  0  0  0  0  0  0  0  0  0
   15.3788    5.1845    2.7672 O   0  0  0  0  0  0  0  0  0  0  0  0
   13.2241    6.8330    3.6541 C   0  0  0  0  0  0  0  0  0  0  0  0
   12.2276    6.9284    4.7052 N   0  3  0  0  0  0  0  0  0  0  0  0
    7.5220    2.6987    4.0733 C   0  0  2  0  0  0  0  0  0  0  0  0
    7.7272    4.0731    3.4674 C   0  0  0  0  0  0  0  0  0  0  0  0
    9.1906    4.2928    3.1313 C   0  0  1  0  0  0  0  0  0  0  0  0
    9.7178    3.2869    2.1070 C   0  0  2  0  0  0  0  0  0  0  0  0
    9.3760    1.8386    2.5270 C   0  0  1  0  0  0  0  0  0  0  0  0
    7.9742    1.6112    3.1082 C   0  0  1  0  0  0  0  0  0  0  0  0
    6.1184    2.5164    4.3902 N   0  3  0  0  0  0  0  0  0  0  0  0
    9.3650    5.6493    2.6499 N   0  3  0  0  0  0  0  0  0  0  0  0
    9.6250    0.9005    1.4515 O   0  0  0  0  0  0  0  0  0  0  0  0
    7.9201    0.3434    3.7539 O   0  0  0  0  0  0  0  0  0  0  0  0
  1  2  1  0  0  0  0
  3  2  1  1  0  0  0
  3  4  1  0  0  0  0
  3  5  1  0  0  0  0
  4  8  1  0  0  0  0
  5  6  1  0  0  0  0
  5 12  1  6  0  0  0
  6  7  1  6  0  0  0
  6  8  1  0  0  0  0
  8 41  1  1  0  0  0
  9 10  1  0  0  0  0
  9 17  1  0  0  0  0
  9 19  1  1  0  0  0
 10 11  1  0  0  0  0
 11 12  1  6  0  0  0
 11 13  1  0  0  0  0
 13 14  1  1  0  0  0
 13 15  1  0  0  0  0
 15 16  1  1  0  0  0
 15 17  1  0  0  0  0
 17 18  1  1  0  0  0
 19 20  1  0  0  0  0
 21 22  1  0  0  0  0
 21 29  1  0  0  0  0
 21 31  1  6  0  0  0
 22 23  1  0  0  0  0
 23 24  1  1  0  0  0
 23 25  1  0  0  0  0
 25 26  1  1  0  0  0
 25 27  1  0  0  0  0
 27 28  1  6  0  0  0
 27 29  1  0  0  0  0
 29 30  1  1  0  0  0
 31 32  1  0  0  0  0
 33 34  1  0  0  0  0
 33 38  1  0  0  0  0
 33 39  1  6  0  0  0
 34 35  1  0  0  0  0
 35 36  1  0  0  0  0
 35 40  1  6  0  0  0
 36 24  1  1  0  0  0
 36 37  1  0  0  0  0
 37 38  1  0  0  0  0
 37 41  1  6  0  0  0
 38 42  1  1  0  0  0
M  CHG  6  14   1  20   1  26   1  32   1  39   1  40   1
M  END
>  <CHROM.1>
-63.58446746,171.40385832,-170.17266307,49.19456306,-90.08881475,-169.67604071
67.52311774,73.28804309,179.62305537,-57.29085764,53.25476051,72.34098704
96.83130664,-78.33173332,-48.63053917,70.70425597,-176.21030209,116.48362843
-72.10262804,67.75187377,-63.48242548,173.58933144,10.64316531,1.06964604
0.25360662,1.62387642,-0.33162781,-2.50762633

>  <Name>


>  <RI>
0

>  <Rbt.Current_Directory>
/home/itssahil/PROJECTS/Mol_Feturizer/New_Systems/rnas/1qd3

>  <Rbt.Executable>
rbdock ($Id: //depot/dev/client3/rdock/2013.1/src/exe/rbdock.cxx#4 $)

>  <Rbt.Library>
libRbt.so (2013.1, Build901 2013/11/27)

>  <Rbt.Parameter_File>
/export/apps/rDock/src/rDock_2013.1_src/data/scripts/dock_solv.prm

>  <Rbt.Receptor>
prm/pocket_docking_8.prm

>  <SCORE>
-48.9582

>  <SCORE.INTER>
-26.1044

>  <SCORE.INTER.CONST>
1

>  <SCORE.INTER.POLAR>
-3.9697

>  <SCORE.INTER.ROT>
9

>  <SCORE.INTER.SOLV>
29.29

>  <SCORE.INTER.VDW>
-23.534

>  <SCORE.INTER.norm>
-0.621534

>  <SCORE.INTRA>
-22.8538

>  <SCORE.INTRA.DIHEDRAL>
-21.6758

>  <SCORE.INTRA.DIHEDRAL.0>
40.6252

>  <SCORE.INTRA.POLAR>
-0.00793087

>  <SCORE.INTRA.POLAR.0>
-1.20161

>  <SCORE.INTRA.REPUL>
-0.115675

>  <SCORE.INTRA.REPUL.0>
0.115675

>  <SCORE.INTRA.SOLV>
-8.49595

>  <SCORE.INTRA.SOLV.lig_0>
-154.895

>  <SCORE.INTRA.VDW>
-7.16255

>  <SCORE.INTRA.VDW.0>
2.2925

>  <SCORE.INTRA.norm>
-0.544138

>  <SCORE.RESTR>
0

>  <SCORE.RESTR.CAVITY>
0

>  <SCORE.RESTR.norm>
0

>  <SCORE.SYSTEM>
0

>  <SCORE.SYSTEM.CONST>
0

>  <SCORE.SYSTEM.DIHEDRAL>
0

>  <SCORE.SYSTEM.SOLV>
0

>  <SCORE.SYSTEM.norm>
0

>  <SCORE.heavy>
42

>  <SCORE.norm>
-1.16567

>  <RMSD>
6.190

$$$$

 OpenBabel11021811413D
libRbt.so/2013.1/901 2013/11/27
 42 45  0  0  0  0  0  0  0  0999 V2000
    8.5484   -3.2640    0.5496 O   0  0  0  0  0  0  0  0  0  0  0  0
    7.5282   -2.9773   -0.3962 C   0  0  0  0  0  0  0  0  0  0  0  0
    7.8227   -1.6456   -1.0877 C   0  0  1  0  0  0  0  0  0  0  0  0
    7.8859   -0.5620   -0.1351 O   0  0  0  0  0  0  0  0  0  0  0  0
    9.1531   -1.6283   -1.8220 C   0  0  2  0  0  0  0  0  0  0  0  0
    9.3831   -0.1312   -1.9434 C   0  0  1  0  0  0  0  0  0  0  0  0
    8.5694    0.3974   -2.9847 O   0  0  0  0  0  0  0  0  0  0  0  0
    8.8888    0.3874   -0.5776 C   0  0  2  0  0  0  0  0  0  0  0  0
    7.4517   -5.5581   -3.0975 C   0  0  2  0  0  0  0  0  0  0  0  0
    7.6049   -4.1397   -3.2586 O   0  0  0  0  0  0  0  0  0  0  0  0
    8.9524   -3.7108   -2.9920 C   0  0  2  0  0  0  0  0  0  0  0  0
    9.0582   -2.2764   -3.1057 O   0  0  0  0  0  0  0  0  0  0  0  0
    9.9403   -4.3969   -3.9511 C   0  0  2  0  0  0  0  0  0  0  0  0
    9.8833   -3.7913   -5.2688 N   0  3  0  0  0  0  0  0  0  0  0  0
    9.7287   -5.9124   -4.0468 C   0  0  1  0  0  0  0  0  0  0  0  0
   10.2815   -6.5384   -2.8999 O   0  0  0  0  0  0  0  0  0  0  0  0
    8.2534   -6.2837   -4.1706 C   0  0  2  0  0  0  0  0  0  0  0  0
    7.7714   -5.9337   -5.4627 O   0  0  0  0  0  0  0  0  0  0  0  0
    5.9784   -5.9507   -3.1616 C   0  0  0  0  0  0  0  0  0  0  0  0
    5.3560   -5.3907   -4.3465 N   0  3  0  0  0  0  0  0  0  0  0  0
   13.0644   -0.6606   -3.1087 C   0  0  1  0  0  0  0  0  0  0  0  0
   12.0060   -0.7581   -2.1329 O   0  0  0  0  0  0  0  0  0  0  0  0
   12.4269   -0.4078   -0.7944 C   0  0  2  0  0  0  0  0  0  0  0  0
   12.7945    0.9898   -0.6886 O   0  0  0  0  0  0  0  0  0  0  0  0
   13.5721   -1.3172   -0.3327 C   0  0  2  0  0  0  0  0  0  0  0  0
   14.1233   -0.8246    0.9160 N   0  3  0  0  0  0  0  0  0  0  0  0
   14.6834   -1.3989   -1.3733 C   0  0  1  0  0  0  0  0  0  0  0  0
   15.5990   -2.4226   -1.0154 O   0  0  0  0  0  0  0  0  0  0  0  0
   14.1691   -1.6522   -2.7820 C   0  0  2  0  0  0  0  0  0  0  0  0
   15.2259   -1.5301   -3.7227 O   0  0  0  0  0  0  0  0  0  0  0  0
   12.5292   -1.0040   -4.4959 C   0  0  0  0  0  0  0  0  0  0  0  0
   13.1118   -0.1345   -5.5015 N   0  3  0  0  0  0  0  0  0  0  0  0
   10.3052    4.2617    0.4058 C   0  0  2  0  0  0  0  0  0  0  0  0
   11.0500    4.3434   -0.9120 C   0  0  0  0  0  0  0  0  0  0  0  0
   12.1695    3.3199   -0.9543 C   0  0  1  0  0  0  0  0  0  0  0  0
   11.6595    1.8829   -0.8356 C   0  0  2  0  0  0  0  0  0  0  0  0
   10.7093    1.7311    0.3746 C   0  0  1  0  0  0  0  0  0  0  0  0
    9.7111    2.8737    0.6040 C   0  0  1  0  0  0  0  0  0  0  0  0
    9.2459    5.2523    0.4229 N   0  3  0  0  0  0  0  0  0  0  0  0
   12.9213    3.4941   -2.1818 N   0  3  0  0  0  0  0  0  0  0  0  0
   10.0118    0.4616    0.3469 O   0  0  0  0  0  0  0  0  0  0  0  0
    9.1540    2.7719    1.9103 O   0  0  0  0  0  0  0  0  0  0  0  0
  1  2  1  0  0  0  0
  3  2  1  1  0  0  0
  3  4  1  0  0  0  0
  3  5  1  0  0  0  0
  4  8  1  0  0  0  0
  5  6  1  0  0  0  0
  5 12  1  6  0  0  0
  6  7  1  6  0  0  0
  6  8  1  0  0  0  0
  8 41  1  1  0  0  0
  9 10  1  0  0  0  0
  9 17  1  0  0  0  0
  9 19  1  6  0  0  0
 10 11  1  0  0  0  0
 11 12  1  6  0  0  0
 11 13  1  0  0  0  0
 13 14  1  6  0  0  0
 13 15  1  0  0  0  0
 15 16  1  1  0  0  0
 15 17  1  0  0  0  0
 17 18  1  6  0  0  0
 19 20  1  0  0  0  0
 21 22  1  0  0  0  0
 21 29  1  0  0  0  0
 21 31  1  6  0  0  0
 22 23  1  0  0  0  0
 23 24  1  6  0  0  0
 23 25  1  0  0  0  0
 25 26  1  1  0  0  0
 25 27  1  0  0  0  0
 27 28  1  1  0  0  0
 27 29  1  0  0  0  0
 29 30  1  6  0  0  0
 31 32  1  0  0  0  0
 33 34  1  0  0  0  0
 33 38  1  0  0  0  0
 33 39  1  6  0  0  0
 34 35  1  0  0  0  0
 35 36  1  0  0  0  0
 35 40  1  6  0  0  0
 36 24  1  1  0  0  0
 36 37  1  0  0  0  0
 37 38  1  0  0  0  0
 37 41  1  6  0  0  0
 38 42  1  1  0  0  0
M  CHG  6  14   1  20   1  26   1  32   1  39   1  40   1
M  END
>  <CHROM.1>
-59.92563204,-59.69588152,-72.82189338,-60.07819974,-152.10836085,51.14102692
105.20281837,67.37663932,-60.63907014,-171.41639880,53.52186722,140.93065558
68.17408575,-170.24493943,-44.73441086,177.63049578,60.62440351,-63.15005748
-173.33707270,164.47517051,-77.98968334,64.12805985,10.44421495,-1.19681291
-1.93505311,1.98215457,-0.18292923,-2.64510057

>  <Name>


>  <RI>
0

>  <Rbt.Current_Directory>
/home/itssahil/PROJECTS/Mol_Feturizer/New_Systems/rnas/1qd3

>  <Rbt.Executable>
rbdock ($Id: //depot/dev/client3/rdock/2013.1/src/exe/rbdock.cxx#4 $)

>  <Rbt.Library>
libRbt.so (2013.1, Build901 2013/11/27)

>  <Rbt.Parameter_File>
/export/apps/rDock/src/rDock_2013.1_src/data/scripts/dock_solv.prm

>  <Rbt.Receptor>
prm/pocket_docking_7.prm

>  <SCORE>
-52.4208

>  <SCORE.INTER>
-29.7849

>  <SCORE.INTER.CONST>
1

>  <SCORE.INTER.POLAR>
-5.64961

>  <SCORE.INTER.ROT>
9

>  <SCORE.INTER.SOLV>
33.0061

>  <SCORE.INTER.VDW>
-21.6266

>  <SCORE.INTER.norm>
-0.709165

>  <SCORE.INTRA>
-22.6359

>  <SCORE.INTRA.DIHEDRAL>
-19.9764

>  <SCORE.INTRA.DIHEDRAL.0>
40.6252

>  <SCORE.INTRA.POLAR>
0.306249

>  <SCORE.INTRA.POLAR.0>
-1.20161

>  <SCORE.INTRA.REPUL>
-0.115675

>  <SCORE.INTRA.REPUL.0>
0.115675

>  <SCORE.INTRA.SOLV>
-8.93521

>  <SCORE.INTRA.SOLV.lig_0>
-154.895

>  <SCORE.INTRA.VDW>
-8.64299

>  <SCORE.INTRA.VDW.0>
2.2925

>  <SCORE.INTRA.norm>
-0.53895

>  <SCORE.RESTR>
0

>  <SCORE.RESTR.CAVITY>
0

>  <SCORE.RESTR.norm>
0

>  <SCORE.SYSTEM>
0

>  <SCORE.SYSTEM.CONST>
0

>  <SCORE.SYSTEM.DIHEDRAL>
0

>  <SCORE.SYSTEM.SOLV>
0

>  <SCORE.SYSTEM.norm>
0

>  <SCORE.heavy>
42

>  <SCORE.norm>
-1.24811

>  <RMSD>
6.272

$$$$

 OpenBabel11021811413D
libRbt.so/2013.1/901 2013/11/27
 42 45  0  0  0  0  0  0  0  0999 V2000
    8.8385  -10.2863   -4.4951 O   0  0  0  0  0  0  0  0  0  0  0  0
    8.5240   -8.9782   -4.9507 C   0  0  0  0  0  0  0  0  0  0  0  0
    7.7407   -8.2288   -3.8721 C   0  0  1  0  0  0  0  0  0  0  0  0
    8.5159   -8.0896   -2.6616 O   0  0  0  0  0  0  0  0  0  0  0  0
    7.3532   -6.8168   -4.2791 C   0  0  2  0  0  0  0  0  0  0  0  0
    7.0782   -6.2015   -2.9172 C   0  0  1  0  0  0  0  0  0  0  0  0
    5.8073   -6.6323   -2.4427 O   0  0  0  0  0  0  0  0  0  0  0  0
    8.1966   -6.8142   -2.0498 C   0  0  2  0  0  0  0  0  0  0  0  0
    5.2898   -8.8706   -8.0112 C   0  0  2  0  0  0  0  0  0  0  0  0
    5.1254   -8.0527   -6.8427 O   0  0  0  0  0  0  0  0  0  0  0  0
    6.3864   -7.5800   -6.3356 C   0  0  2  0  0  0  0  0  0  0  0  0
    6.1904   -6.8113   -5.1305 O   0  0  0  0  0  0  0  0  0  0  0  0
    7.1155   -6.7358   -7.3949 C   0  0  2  0  0  0  0  0  0  0  0  0
    6.5260   -5.4132   -7.4943 N   0  3  0  0  0  0  0  0  0  0  0  0
    7.1597   -7.4089   -8.7718 C   0  0  1  0  0  0  0  0  0  0  0  0
    8.1577   -8.4173   -8.7711 O   0  0  0  0  0  0  0  0  0  0  0  0
    5.8161   -8.0200   -9.1602 C   0  0  2  0  0  0  0  0  0  0  0  0
    4.8861   -6.9895   -9.4727 O   0  0  0  0  0  0  0  0  0  0  0  0
    3.9712   -9.5391   -8.3898 C   0  0  0  0  0  0  0  0  0  0  0  0
    3.3977  -10.2147   -7.2411 N   0  3  0  0  0  0  0  0  0  0  0  0
    9.2424   -2.7616   -2.0753 C   0  0  1  0  0  0  0  0  0  0  0  0
    9.7910   -2.9522   -0.7544 O   0  0  0  0  0  0  0  0  0  0  0  0
    8.7807   -3.0810    0.2723 C   0  0  2  0  0  0  0  0  0  0  0  0
    7.9890   -4.2834    0.1080 O   0  0  0  0  0  0  0  0  0  0  0  0
    7.8896   -1.8336    0.3130 C   0  0  2  0  0  0  0  0  0  0  0  0
    6.7592   -2.0608    1.1942 N   0  3  0  0  0  0  0  0  0  0  0  0
    7.3770   -1.4598   -1.0734 C   0  0  1  0  0  0  0  0  0  0  0  0
    6.7608   -0.1822   -1.0268 O   0  0  0  0  0  0  0  0  0  0  0  0
    8.4661   -1.4562   -2.1350 C   0  0  2  0  0  0  0  0  0  0  0  0
    7.8971   -1.2875   -3.4252 O   0  0  0  0  0  0  0  0  0  0  0  0
   10.3687   -2.6779   -3.1015 C   0  0  0  0  0  0  0  0  0  0  0  0
    9.8403   -2.7473   -4.4516 N   0  3  0  0  0  0  0  0  0  0  0  0
   11.4921   -6.5025    1.0588 C   0  0  2  0  0  0  0  0  0  0  0  0
   10.3125   -6.5936    2.0066 C   0  0  0  0  0  0  0  0  0  0  0  0
    9.3343   -5.4626    1.7482 C   0  0  1  0  0  0  0  0  0  0  0  0
    8.7543   -5.4963    0.3335 C   0  0  2  0  0  0  0  0  0  0  0  0
    9.8776   -5.6146   -0.7224 C   0  0  1  0  0  0  0  0  0  0  0  0
   11.0268   -6.5751   -0.3893 C   0  0  1  0  0  0  0  0  0  0  0  0
   12.4132   -7.5896    1.3300 N   0  3  0  0  0  0  0  0  0  0  0  0
    8.2739   -5.5218    2.7353 N   0  3  0  0  0  0  0  0  0  0  0  0
    9.3437   -5.9166   -2.0349 O   0  0  0  0  0  0  0  0  0  0  0  0
   12.1267   -6.3309   -1.2597 O   0  0  0  0  0  0  0  0  0  0  0  0
  1  2  1  0  0  0  0
  3  2  1  6  0  0  0
  3  4  1  0  0  0  0
  3  5  1  0  0  0  0
  4  8  1  0  0  0  0
  5  6  1  0  0  0  0
  5 12  1  6  0  0  0
  6  7  1  1  0  0  0
  6  8  1  0  0  0  0
  8 41  1  6  0  0  0
  9 10  1  0  0  0  0
  9 17  1  0  0  0  0
  9 19  1  6  0  0  0
 10 11  1  0  0  0  0
 11 12  1  1  0  0  0
 11 13  1  0  0  0  0
 13 14  1  6  0  0  0
 13 15  1  0  0  0  0
 15 16  1  1  0  0  0
 15 17  1  0  0  0  0
 17 18  1  1  0  0  0
 19 20  1  0  0  0  0
 21 22  1  0  0  0  0
 21 29  1  0  0  0  0
 21 31  1  6  0  0  0
 22 23  1  0  0  0  0
 23 24  1  6  0  0  0
 23 25  1  0  0  0  0
 25 26  1  1  0  0  0
 25 27  1  0  0  0  0
 27 28  1  1  0  0  0
 27 29  1  0  0  0  0
 29 30  1  6  0  0  0
 31 32  1  0  0  0  0
 33 34  1  0  0  0  0
 33 38  1  0  0  0  0
 33 39  1  1  0  0  0
 34 35  1  0  0  0  0
 35 36  1  0  0  0  0
 35 40  1  1  0  0  0
 36 24  1  6  0  0  0
 36 37  1  0  0  0  0
 37 38  1  0  0  0  0
 37 41  1  6  0  0  0
 38 42  1  6  0  0  0
M  CHG  6  14   1  20   1  26   1  32   1  39   1  40   1
M  END
>  <CHROM.1>
-58.08105970,61.21970347,-58.72301282,-147.29137302,-112.78919944,-51.37291246
154.32556951,19.87464628,61.63695726,-63.30572035,-59.89363247,168.93330128
67.35497912,58.42292123,98.12313787,-82.61011558,-174.24868292,60.66728613
-171.28494107,-77.17044318,-36.59707337,66.52411274,7.97952443,-5.82257503
-3.15821787,-2.31383124,-1.01376477,0.42273511

>  <Name>


>  <RI>
0

>  <Rbt.Current_Directory>
/home/itssahil/PROJECTS/Mol_Feturizer/New_Systems/rnas/1qd3

>  <Rbt.Executable>
rbdock ($Id: //depot/dev/client3/rdock/2013.1/src/exe/rbdock.cxx#4 $)

>  <Rbt.Library>
libRbt.so (2013.1, Build901 2013/11/27)

>  <Rbt.Parameter_File>
/export/apps/rDock/src/rDock_2013.1_src/data/scripts/dock_solv.prm

>  <Rbt.Receptor>
prm/pocket_docking_5.prm

>  <SCORE>
-52.0738

>  <SCORE.INTER>
-36.9387

>  <SCORE.INTER.CONST>
1

>  <SCORE.INTER.POLAR>
-8.04291

>  <SCORE.INTER.ROT>
9

>  <SCORE.INTER.SOLV>
35.8265

>  <SCORE.INTER.VDW>
-19.3583

>  <SCORE.INTER.norm>
-0.879494

>  <SCORE.INTRA>
-15.5745

>  <SCORE.INTRA.DIHEDRAL>
-12.8281

>  <SCORE.INTRA.DIHEDRAL.0>
40.6252

>  <SCORE.INTRA.POLAR>
0.289016

>  <SCORE.INTRA.POLAR.0>
-1.20161

>  <SCORE.INTRA.REPUL>
-0.092982

>  <SCORE.INTRA.REPUL.0>
0.115675

>  <SCORE.INTRA.SOLV>
-10.323

>  <SCORE.INTRA.SOLV.lig_0>
-154.895

>  <SCORE.INTRA.VDW>
-4.51674

>  <SCORE.INTRA.VDW.0>
2.2925

>  <SCORE.INTRA.norm>
-0.370822

>  <SCORE.RESTR>
0.439451

>  <SCORE.RESTR.CAVITY>
0.439451

>  <SCORE.RESTR.norm>
0.0104631

>  <SCORE.SYSTEM>
0

>  <SCORE.SYSTEM.CONST>
0

>  <SCORE.SYSTEM.DIHEDRAL>
0

>  <SCORE.SYSTEM.SOLV>
0

>  <SCORE.SYSTEM.norm>
0

>  <SCORE.heavy>
42

>  <SCORE.norm>
-1.23985

>  <RMSD>
6.304

$$$$

 OpenBabel11021811413D
libRbt.so/2013.1/901 2013/11/27
 42 45  0  0  0  0  0  0  0  0999 V2000
   10.1170   -8.8462   -3.9956 O   0  0  0  0  0  0  0  0  0  0  0  0
    9.3988   -7.6661   -4.3260 C   0  0  0  0  0  0  0  0  0  0  0  0
    8.7335   -7.0968   -3.0723 C   0  0  1  0  0  0  0  0  0  0  0  0
    9.6995   -6.4589   -2.2089 O   0  0  0  0  0  0  0  0  0  0  0  0
    7.6857   -6.0380   -3.3732 C   0  0  2  0  0  0  0  0  0  0  0  0
    7.5966   -5.3451   -2.0238 C   0  0  1  0  0  0  0  0  0  0  0  0
    6.8306   -6.1394   -1.1249 O   0  0  0  0  0  0  0  0  0  0  0  0
    9.0712   -5.3174   -1.5725 C   0  0  2  0  0  0  0  0  0  0  0  0
    5.0865   -7.9233   -6.9121 C   0  0  2  0  0  0  0  0  0  0  0  0
    5.1178   -7.4827   -5.5460 O   0  0  0  0  0  0  0  0  0  0  0  0
    6.4219   -7.0097   -5.1634 C   0  0  2  0  0  0  0  0  0  0  0  0
    6.4335   -6.6301   -3.7715 O   0  0  0  0  0  0  0  0  0  0  0  0
    6.8490   -5.8231   -6.0443 C   0  0  2  0  0  0  0  0  0  0  0  0
    6.1618   -4.6097   -5.6421 N   0  3  0  0  0  0  0  0  0  0  0  0
    6.6463   -6.0842   -7.5414 C   0  0  1  0  0  0  0  0  0  0  0  0
    7.6891   -6.9191   -8.0193 O   0  0  0  0  0  0  0  0  0  0  0  0
    5.2965   -6.7319   -7.8380 C   0  0  2  0  0  0  0  0  0  0  0  0
    4.2523   -5.7822   -7.6588 O   0  0  0  0  0  0  0  0  0  0  0  0
    3.7671   -8.6253   -7.2208 C   0  0  0  0  0  0  0  0  0  0  0  0
    2.6562   -7.7040   -7.0723 N   0  3  0  0  0  0  0  0  0  0  0  0
   13.8252   -0.0030   -2.4762 C   0  0  1  0  0  0  0  0  0  0  0  0
   12.5048    0.2630   -2.9937 O   0  0  0  0  0  0  0  0  0  0  0  0
   11.7137   -0.9322   -3.1866 C   0  0  2  0  0  0  0  0  0  0  0  0
   11.4091   -1.5906   -1.9323 O   0  0  0  0  0  0  0  0  0  0  0  0
   12.4114   -1.8910   -4.1591 C   0  0  2  0  0  0  0  0  0  0  0  0
   11.7184   -3.1657   -4.1807 N   0  3  0  0  0  0  0  0  0  0  0  0
   13.8698   -2.1198   -3.7783 C   0  0  1  0  0  0  0  0  0  0  0  0
   14.5335   -2.8137   -4.8233 O   0  0  0  0  0  0  0  0  0  0  0  0
   14.6193   -0.8322   -3.4722 C   0  0  2  0  0  0  0  0  0  0  0  0
   15.9059   -1.1232   -2.9461 O   0  0  0  0  0  0  0  0  0  0  0  0
   14.5762    1.3081   -2.2623 C   0  0  0  0  0  0  0  0  0  0  0  0
   13.6626    2.4354   -2.2971 N   0  3  0  0  0  0  0  0  0  0  0  0
    7.9963   -1.8216    0.5974 C   0  0  2  0  0  0  0  0  0  0  0  0
    8.2116   -0.5460   -0.1929 C   0  0  0  0  0  0  0  0  0  0  0  0
    9.6380   -0.4728   -0.7058 C   0  0  1  0  0  0  0  0  0  0  0  0
    9.9862   -1.6270   -1.6468 C   0  0  2  0  0  0  0  0  0  0  0  0
    9.6099   -2.9878   -1.0163 C   0  0  1  0  0  0  0  0  0  0  0  0
    8.2720   -3.0443   -0.2672 C   0  0  1  0  0  0  0  0  0  0  0  0
    6.6293   -1.8642    1.0804 N   0  3  0  0  0  0  0  0  0  0  0  0
    9.8359    0.8019   -1.3678 N   0  3  0  0  0  0  0  0  0  0  0  0
    9.6803   -4.0610   -1.9870 O   0  0  0  0  0  0  0  0  0  0  0  0
    8.2172   -4.2205    0.5333 O   0  0  0  0  0  0  0  0  0  0  0  0
  1  2  1  0  0  0  0
  3  2  1  6  0  0  0
  3  4  1  0  0  0  0
  3  5  1  0  0  0  0
  4  8  1  0  0  0  0
  5  6  1  0  0  0  0
  5 12  1  1  0  0  0
  6  7  1  1  0  0  0
  6  8  1  0  0  0  0
  8 41  1  6  0  0  0
  9 10  1  0  0  0  0
  9 17  1  0  0  0  0
  9 19  1  6  0  0  0
 10 11  1  0  0  0  0
 11 12  1  1  0  0  0
 11 13  1  0  0  0  0
 13 14  1  1  0  0  0
 13 15  1  0  0  0  0
 15 16  1  1  0  0  0
 15 17  1  0  0  0  0
 17 18  1  1  0  0  0
 19 20  1  0  0  0  0
 21 22  1  0  0  0  0
 21 29  1  0  0  0  0
 21 31  1  6  0  0  0
 22 23  1  0  0  0  0
 23 24  1  1  0  0  0
 23 25  1  0  0  0  0
 25 26  1  1  0  0  0
 25 27  1  0  0  0  0
 27 28  1  6  0  0  0
 27 29  1  0  0  0  0
 29 30  1  1  0  0  0
 31 32  1  0  0  0  0
 33 34  1  0  0  0  0
 33 38  1  0  0  0  0
 33 39  1  6  0  0  0
 34 35  1  0  0  0  0
 35 36  1  0  0  0  0
 35 40  1  6  0  0  0
 36 24  1  1  0  0  0
 36 37  1  0  0  0  0
 37 38  1  0  0  0  0
 37 41  1  6  0  0  0
 38 42  1  1  0  0  0
M  CHG  6  14   1  20   1  26   1  32   1  39   1  40   1
M  END
>  <CHROM.1>
69.91501726,74.55737545,-81.49666198,175.87589037,-151.73630029,62.96213837
-174.80340986,-19.85165109,-61.95238072,179.45935276,-59.23348931,14.94439768
116.79891754,-97.34758404,94.24193474,-65.79146385,68.68720252,-22.12133322
-84.63191767,-166.98773146,-167.22542930,54.15071222,9.13590574,-3.91956001
-3.42542623,-2.43645184,0.47401959,1.00496934

>  <Name>


>  <RI>
0

>  <Rbt.Current_Directory>
/home/itssahil/PROJECTS/Mol_Feturizer/New_Systems/rnas/1qd3

>  <Rbt.Executable>
rbdock ($Id: //depot/dev/client3/rdock/2013.1/src/exe/rbdock.cxx#4 $)

>  <Rbt.Library>
libRbt.so (2013.1, Build901 2013/11/27)

>  <Rbt.Parameter_File>
/export/apps/rDock/src/rDock_2013.1_src/data/scripts/dock_solv.prm

>  <Rbt.Receptor>
prm/pocket_docking_5.prm

>  <SCORE>
-56.8161

>  <SCORE.INTER>
-43.0844

>  <SCORE.INTER.CONST>
1

>  <SCORE.INTER.POLAR>
-8.32395

>  <SCORE.INTER.ROT>
9

>  <SCORE.INTER.SOLV>
32.0425

>  <SCORE.INTER.VDW>
-21.2573

>  <SCORE.INTER.norm>
-1.02582

>  <SCORE.INTRA>
-14.2338

>  <SCORE.INTRA.DIHEDRAL>
-7.56585

>  <SCORE.INTRA.DIHEDRAL.0>
40.6252

>  <SCORE.INTRA.POLAR>
-1.70179

>  <SCORE.INTRA.POLAR.0>
-1.20161

>  <SCORE.INTRA.REPUL>
-0.115675

>  <SCORE.INTRA.REPUL.0>
0.115675

>  <SCORE.INTRA.SOLV>
-3.12843

>  <SCORE.INTRA.SOLV.lig_0>
-154.895

>  <SCORE.INTRA.VDW>
-2.52221

>  <SCORE.INTRA.VDW.0>
2.2925

>  <SCORE.INTRA.norm>
-0.3389

>  <SCORE.RESTR>
0.50213

>  <SCORE.RESTR.CAVITY>
0.50213

>  <SCORE.RESTR.norm>
0.0119555

>  <SCORE.SYSTEM>
0

>  <SCORE.SYSTEM.CONST>
0

>  <SCORE.SYSTEM.DIHEDRAL>
0

>  <SCORE.SYSTEM.SOLV>
0

>  <SCORE.SYSTEM.norm>
0

>  <SCORE.heavy>
42

>  <SCORE.norm>
-1.35276

>  <RMSD>
6.311

$$$$

 OpenBabel11021811413D
libRbt.so/2013.1/901 2013/11/27
 42 45  0  0  0  0  0  0  0  0999 V2000
    9.7613   -8.0661   -4.2574 O   0  0  0  0  0  0  0  0  0  0  0  0
    9.8717   -8.7654   -3.0259 C   0  0  0  0  0  0  0  0  0  0  0  0
    9.3886   -7.8754   -1.8801 C   0  0  1  0  0  0  0  0  0  0  0  0
   10.2190   -6.7020   -1.7407 O   0  0  0  0  0  0  0  0  0  0  0  0
    7.9725   -7.3588   -2.0732 C   0  0  2  0  0  0  0  0  0  0  0  0
    7.9755   -6.1782   -1.1166 C   0  0  1  0  0  0  0  0  0  0  0  0
    7.8413   -6.6434    0.2219 O   0  0  0  0  0  0  0  0  0  0  0  0
    9.3853   -5.5896   -1.3280 C   0  0  2  0  0  0  0  0  0  0  0  0
    6.0857   -9.7060   -4.9876 C   0  0  2  0  0  0  0  0  0  0  0  0
    6.8937   -9.3892   -3.8437 O   0  0  0  0  0  0  0  0  0  0  0  0
    6.1395   -8.7083   -2.8247 C   0  0  2  0  0  0  0  0  0  0  0  0
    6.9926   -8.3536   -1.7166 O   0  0  0  0  0  0  0  0  0  0  0  0
    4.9698   -9.5820   -2.3400 C   0  0  2  0  0  0  0  0  0  0  0  0
    5.4426  -10.6304   -1.4548 N   0  3  0  0  0  0  0  0  0  0  0  0
    4.1504  -10.1791   -3.4902 C   0  0  1  0  0  0  0  0  0  0  0  0
    3.2920   -9.1832   -4.0234 O   0  0  0  0  0  0  0  0  0  0  0  0
    5.0351  -10.7391   -4.6007 C   0  0  2  0  0  0  0  0  0  0  0  0
    5.6647  -11.9373   -4.1622 O   0  0  0  0  0  0  0  0  0  0  0  0
    6.9535  -10.2167   -6.1343 C   0  0  0  0  0  0  0  0  0  0  0  0
    6.2399  -10.1158   -7.3934 N   0  3  0  0  0  0  0  0  0  0  0  0
   13.2466   -1.4995   -3.4210 C   0  0  1  0  0  0  0  0  0  0  0  0
   12.4603   -2.7086   -3.4641 O   0  0  0  0  0  0  0  0  0  0  0  0
   11.9957   -3.1364   -2.1631 C   0  0  2  0  0  0  0  0  0  0  0  0
   11.0560   -2.1966   -1.5855 O   0  0  0  0  0  0  0  0  0  0  0  0
   13.1800   -3.3837   -1.2207 C   0  0  2  0  0  0  0  0  0  0  0  0
   12.7000   -3.6052    0.1306 N   0  3  0  0  0  0  0  0  0  0  0  0
   14.1559   -2.2122   -1.2202 C   0  0  1  0  0  0  0  0  0  0  0  0
   15.3402   -2.5770   -0.5284 O   0  0  0  0  0  0  0  0  0  0  0  0
   14.5158   -1.7303   -2.6171 C   0  0  2  0  0  0  0  0  0  0  0  0
   15.2711   -0.5298   -2.5457 O   0  0  0  0  0  0  0  0  0  0  0  0
   13.6600   -1.0947   -4.8331 C   0  0  0  0  0  0  0  0  0  0  0  0
   12.4982   -0.7378   -5.6264 N   0  3  0  0  0  0  0  0  0  0  0  0
    6.8562   -1.6651   -2.0080 C   0  0  2  0  0  0  0  0  0  0  0  0
    7.7716   -0.6478   -2.6599 C   0  0  0  0  0  0  0  0  0  0  0  0
    9.1731   -0.7496   -2.0869 C   0  0  1  0  0  0  0  0  0  0  0  0
    9.8102   -2.1191   -2.3267 C   0  0  2  0  0  0  0  0  0  0  0  0
    8.8612   -3.2563   -1.8827 C   0  0  1  0  0  0  0  0  0  0  0  0
    7.3770   -3.0788   -2.2292 C   0  0  1  0  0  0  0  0  0  0  0  0
    5.5238   -1.5433   -2.5682 N   0  3  0  0  0  0  0  0  0  0  0  0
    9.9932    0.3010   -2.6578 N   0  3  0  0  0  0  0  0  0  0  0  0
    9.3271   -4.5481   -2.3445 O   0  0  0  0  0  0  0  0  0  0  0  0
    6.5936   -4.0018   -1.4800 O   0  0  0  0  0  0  0  0  0  0  0  0
  1  2  1  0  0  0  0
  3  2  1  6  0  0  0
  3  4  1  0  0  0  0
  3  5  1  0  0  0  0
  4  8  1  0  0  0  0
  5  6  1  0  0  0  0
  5 12  1  1  0  0  0
  6  7  1  1  0  0  0
  6  8  1  0  0  0  0
  8 41  1  6  0  0  0
  9 10  1  0  0  0  0
  9 17  1  0  0  0  0
  9 19  1  6  0  0  0
 10 11  1  0  0  0  0
 11 12  1  1  0  0  0
 11 13  1  0  0  0  0
 13 14  1  6  0  0  0
 13 15  1  0  0  0  0
 15 16  1  6  0  0  0
 15 17  1  0  0  0  0
 17 18  1  1  0  0  0
 19 20  1  0  0  0  0
 21 22  1  0  0  0  0
 21 29  1  0  0  0  0
 21 31  1  6  0  0  0
 22 23  1  0  0  0  0
 23 24  1  1  0  0  0
 23 25  1  0  0  0  0
 25 26  1  1  0  0  0
 25 27  1  0  0  0  0
 27 28  1  6  0  0  0
 27 29  1  0  0  0  0
 29 30  1  1  0  0  0
 31 32  1  0  0  0  0
 33 34  1  0  0  0  0
 33 38  1  0  0  0  0
 33 39  1  6  0  0  0
 34 35  1  0  0  0  0
 35 36  1  0  0  0  0
 35 40  1  6  0  0  0
 36 24  1  1  0  0  0
 36 37  1  0  0  0  0
 37 38  1  0  0  0  0
 37 41  1  6  0  0  0
 38 42  1  1  0  0  0
M  CHG  6  14   1  20   1  26   1  32   1  39   1  40   1
M  END
>  <CHROM.1>
-178.27668399,-63.24313240,-119.60708130,-154.95740044,-162.54487316,-161.12930253
66.96981985,-174.14091275,-173.05187280,-65.80707983,165.06297636,65.26039195
66.19995550,-154.58254570,82.56813028,60.57736273,62.43056405,73.84619611
-162.96118215,169.87974895,130.38859792,-63.97905046,9.08524530,-5.31365919
-2.71477132,-2.25303973,0.01106200,0.17290378

>  <Name>


>  <RI>
0

>  <Rbt.Current_Directory>
/home/itssahil/PROJECTS/Mol_Feturizer/New_Systems/rnas/1qd3

>  <Rbt.Executable>
rbdock ($Id: //depot/dev/client3/rdock/2013.1/src/exe/rbdock.cxx#4 $)

>  <Rbt.Library>
libRbt.so (2013.1, Build901 2013/11/27)

>  <Rbt.Parameter_File>
/export/apps/rDock/src/rDock_2013.1_src/data/scripts/dock_solv.prm

>  <Rbt.Receptor>
prm/pocket_docking_6.prm

>  <SCORE>
-44.266

>  <SCORE.INTER>
-25.5351

>  <SCORE.INTER.CONST>
1

>  <SCORE.INTER.POLAR>
-5.52102

>  <SCORE.INTER.ROT>
9

>  <SCORE.INTER.SOLV>
30.0875

>  <SCORE.INTER.VDW>
-18.2492

>  <SCORE.INTER.norm>
-0.607979

>  <SCORE.INTRA>
-18.7309

>  <SCORE.INTRA.DIHEDRAL>
-14.1387

>  <SCORE.INTRA.DIHEDRAL.0>
40.6252

>  <SCORE.INTRA.POLAR>
1.10515

>  <SCORE.INTRA.POLAR.0>
-1.20161

>  <SCORE.INTRA.REPUL>
-0.0763658

>  <SCORE.INTRA.REPUL.0>
0.115675

>  <SCORE.INTRA.SOLV>
-11.6269

>  <SCORE.INTRA.SOLV.lig_0>
-154.895

>  <SCORE.INTRA.VDW>
-9.22378

>  <SCORE.INTRA.VDW.0>
2.2925

>  <SCORE.INTRA.norm>
-0.445974

>  <SCORE.RESTR>
0

>  <SCORE.RESTR.CAVITY>
0

>  <SCORE.RESTR.norm>
0

>  <SCORE.SYSTEM>
0

>  <SCORE.SYSTEM.CONST>
0

>  <SCORE.SYSTEM.DIHEDRAL>
0

>  <SCORE.SYSTEM.SOLV>
0

>  <SCORE.SYSTEM.norm>
0

>  <SCORE.heavy>
42

>  <SCORE.norm>
-1.05395

>  <RMSD>
6.331

$$$$

 OpenBabel11021811413D
libRbt.so/2013.1/901 2013/11/27
 42 45  0  0  0  0  0  0  0  0999 V2000
   12.6774   -9.3465   -2.5224 O   0  0  0  0  0  0  0  0  0  0  0  0
   12.8514   -7.9567   -2.2856 C   0  0  0  0  0  0  0  0  0  0  0  0
   11.6989   -7.4291   -1.4302 C   0  0  1  0  0  0  0  0  0  0  0  0
   11.9456   -6.0745   -0.9947 O   0  0  0  0  0  0  0  0  0  0  0  0
   10.3697   -7.3909   -2.1660 C   0  0  2  0  0  0  0  0  0  0  0  0
    9.6017   -6.4066   -1.2998 C   0  0  1  0  0  0  0  0  0  0  0  0
    9.1583   -7.0549   -0.1128 O   0  0  0  0  0  0  0  0  0  0  0  0
   10.6829   -5.3625   -0.9540 C   0  0  2  0  0  0  0  0  0  0  0  0
    9.9984   -9.4440   -5.7720 C   0  0  2  0  0  0  0  0  0  0  0  0
   10.4164   -9.1470   -4.4308 O   0  0  0  0  0  0  0  0  0  0  0  0
    9.2992   -9.0466   -3.5294 C   0  0  2  0  0  0  0  0  0  0  0  0
    9.7485   -8.6907   -2.2054 O   0  0  0  0  0  0  0  0  0  0  0  0
    8.5133  -10.3684   -3.4894 C   0  0  2  0  0  0  0  0  0  0  0  0
    9.2149  -11.3607   -2.6961 N   0  3  0  0  0  0  0  0  0  0  0  0
    8.1979  -10.9210   -4.8844 C   0  0  1  0  0  0  0  0  0  0  0  0
    7.1122  -10.1982   -5.4428 O   0  0  0  0  0  0  0  0  0  0  0  0
    9.3995  -10.8437   -5.8223 C   0  0  2  0  0  0  0  0  0  0  0  0
   10.3747  -11.8077   -5.4426 O   0  0  0  0  0  0  0  0  0  0  0  0
   11.1710   -9.3195   -6.7407 C   0  0  0  0  0  0  0  0  0  0  0  0
   10.7010   -9.3591   -8.1127 N   0  3  0  0  0  0  0  0  0  0  0  0
   14.0314   -2.8740   -1.3573 C   0  0  1  0  0  0  0  0  0  0  0  0
   12.8642   -2.4436   -0.6262 O   0  0  0  0  0  0  0  0  0  0  0  0
   12.2420   -1.2632   -1.1839 C   0  0  2  0  0  0  0  0  0  0  0  0
   11.6880   -1.5112   -2.4997 O   0  0  0  0  0  0  0  0  0  0  0  0
   13.2322   -0.0926   -1.2125 C   0  0  2  0  0  0  0  0  0  0  0  0
   12.6684    1.0150   -1.9616 N   0  3  0  0  0  0  0  0  0  0  0  0
   14.5637   -0.4940   -1.8375 C   0  0  1  0  0  0  0  0  0  0  0  0
   15.5184    0.5356   -1.6307 O   0  0  0  0  0  0  0  0  0  0  0  0
   15.1105   -1.8053   -1.2945 C   0  0  2  0  0  0  0  0  0  0  0  0
   16.2448   -2.2151   -2.0441 O   0  0  0  0  0  0  0  0  0  0  0  0
   14.6006   -4.1441   -0.7317 C   0  0  0  0  0  0  0  0  0  0  0  0
   14.8222   -3.9617    0.6911 N   0  3  0  0  0  0  0  0  0  0  0  0
    7.8805   -1.9739   -0.6591 C   0  0  2  0  0  0  0  0  0  0  0  0
    7.9986   -1.0009   -1.8155 C   0  0  0  0  0  0  0  0  0  0  0  0
    9.4542   -0.6612   -2.0778 C   0  0  1  0  0  0  0  0  0  0  0  0
   10.2863   -1.8865   -2.4586 C   0  0  2  0  0  0  0  0  0  0  0  0
   10.0777   -3.0343   -1.4438 C   0  0  1  0  0  0  0  0  0  0  0  0
    8.6402   -3.2596   -0.9568 C   0  0  1  0  0  0  0  0  0  0  0  0
    6.4814   -2.2774   -0.4257 N   0  3  0  0  0  0  0  0  0  0  0  0
    9.5230    0.3453   -3.1192 N   0  3  0  0  0  0  0  0  0  0  0  0
   10.6383   -4.2797   -1.9272 O   0  0  0  0  0  0  0  0  0  0  0  0
    8.6477   -4.0914    0.1988 O   0  0  0  0  0  0  0  0  0  0  0  0
  1  2  1  0  0  0  0
  3  2  1  6  0  0  0
  3  4  1  0  0  0  0
  3  5  1  0  0  0  0
  4  8  1  0  0  0  0
  5  6  1  0  0  0  0
  5 12  1  1  0  0  0
  6  7  1  1  0  0  0
  6  8  1  0  0  0  0
  8 41  1  6  0  0  0
  9 10  1  0  0  0  0
  9 17  1  0  0  0  0
  9 19  1  6  0  0  0
 10 11  1  0  0  0  0
 11 12  1  1  0  0  0
 11 13  1  0  0  0  0
 13 14  1  1  0  0  0
 13 15  1  0  0  0  0
 15 16  1  6  0  0  0
 15 17  1  0  0  0  0
 17 18  1  1  0  0  0
 19 20  1  0  0  0  0
 21 22  1  0  0  0  0
 21 29  1  0  0  0  0
 21 31  1  1  0  0  0
 22 23  1  0  0  0  0
 23 24  1  6  0  0  0
 23 25  1  0  0  0  0
 25 26  1  6  0  0  0
 25 27  1  0  0  0  0
 27 28  1  1  0  0  0
 27 29  1  0  0  0  0
 29 30  1  6  0  0  0
 31 32  1  0  0  0  0
 33 34  1  0  0  0  0
 33 38  1  0  0  0  0
 33 39  1  6  0  0  0
 34 35  1  0  0  0  0
 35 36  1  0  0  0  0
 35 40  1  6  0  0  0
 36 24  1  1  0  0  0
 36 37  1  0  0  0  0
 37 38  1  0  0  0  0
 37 41  1  6  0  0  0
 38 42  1  1  0  0  0
M  CHG  6  14   1  20   1  26   1  32   1  39   1  40   1
M  END
>  <CHROM.1>
-177.06035803,171.03065097,-131.55394451,63.24702116,-136.54413370,-168.79316003
63.34580550,-139.19580221,-57.12569769,54.68896030,175.91989645,-52.74928319
93.22553074,71.17440643,-175.93990126,-173.99969013,-63.27326225,74.99786730
-179.65164226,-163.33330604,170.49264690,62.91635480,10.97797339,-5.23374309
-2.40114278,-1.86164022,0.03299442,0.34730903

>  <Name>


>  <RI>
0

>  <Rbt.Current_Directory>
/home/itssahil/PROJECTS/Mol_Feturizer/New_Systems/rnas/1qd3

>  <Rbt.Executable>
rbdock ($Id: //depot/dev/client3/rdock/2013.1/src/exe/rbdock.cxx#4 $)

>  <Rbt.Library>
libRbt.so (2013.1, Build901 2013/11/27)

>  <Rbt.Parameter_File>
/export/apps/rDock/src/rDock_2013.1_src/data/scripts/dock_solv.prm

>  <Rbt.Receptor>
prm/pocket_docking_6.prm

>  <SCORE>
-35.3411

>  <SCORE.INTER>
-20.0914

>  <SCORE.INTER.CONST>
1

>  <SCORE.INTER.POLAR>
-6.24096

>  <SCORE.INTER.ROT>
9

>  <SCORE.INTER.SOLV>
24.8578

>  <SCORE.INTER.VDW>
-10.477

>  <SCORE.INTER.norm>
-0.478367

>  <SCORE.INTRA>
-15.2497

>  <SCORE.INTRA.DIHEDRAL>
-17.2714

>  <SCORE.INTRA.DIHEDRAL.0>
40.6252

>  <SCORE.INTRA.POLAR>
1.19265

>  <SCORE.INTRA.POLAR.0>
-1.20161

>  <SCORE.INTRA.REPUL>
-0.115675

>  <SCORE.INTRA.REPUL.0>
0.115675

>  <SCORE.INTRA.SOLV>
-6.59143

>  <SCORE.INTRA.SOLV.lig_0>
-154.895

>  <SCORE.INTRA.VDW>
-6.79492

>  <SCORE.INTRA.VDW.0>
2.2925

>  <SCORE.INTRA.norm>
-0.363088

>  <SCORE.RESTR>
0

>  <SCORE.RESTR.CAVITY>
0

>  <SCORE.RESTR.norm>
0

>  <SCORE.SYSTEM>
0

>  <SCORE.SYSTEM.CONST>
0

>  <SCORE.SYSTEM.DIHEDRAL>
0

>  <SCORE.SYSTEM.SOLV>
0

>  <SCORE.SYSTEM.norm>
0

>  <SCORE.heavy>
42

>  <SCORE.norm>
-0.841455

>  <RMSD>
6.404

$$$$

 OpenBabel11021811413D
libRbt.so/2013.1/901 2013/11/27
 42 45  0  0  0  0  0  0  0  0999 V2000
    6.1306   -1.6001    2.1071 O   0  0  0  0  0  0  0  0  0  0  0  0
    7.3000   -1.7763    1.3201 C   0  0  0  0  0  0  0  0  0  0  0  0
    7.6646   -0.4598    0.6329 C   0  0  1  0  0  0  0  0  0  0  0  0
    7.5421    0.6574    1.5398 O   0  0  0  0  0  0  0  0  0  0  0  0
    9.0953   -0.4220    0.1218 C   0  0  2  0  0  0  0  0  0  0  0  0
    9.2993    1.0771   -0.0201 C   0  0  1  0  0  0  0  0  0  0  0  0
    8.6502    1.5413   -1.1986 O   0  0  0  0  0  0  0  0  0  0  0  0
    8.5760    1.6250    1.2270 C   0  0  2  0  0  0  0  0  0  0  0  0
   11.6149   -3.6568   -2.2291 C   0  0  2  0  0  0  0  0  0  0  0  0
   10.3802   -2.9313   -2.1269 O   0  0  0  0  0  0  0  0  0  0  0  0
   10.4982   -1.7885   -1.2604 C   0  0  2  0  0  0  0  0  0  0  0  0
    9.2277   -1.1167   -1.1339 O   0  0  0  0  0  0  0  0  0  0  0  0
   11.5668   -0.8156   -1.7875 C   0  0  2  0  0  0  0  0  0  0  0  0
   11.0596   -0.0555   -2.9151 N   0  3  0  0  0  0  0  0  0  0  0  0
   12.8819   -1.5119   -2.1571 C   0  0  1  0  0  0  0  0  0  0  0  0
   13.6109   -1.7996   -0.9744 O   0  0  0  0  0  0  0  0  0  0  0  0
   12.6532   -2.8004   -2.9426 C   0  0  2  0  0  0  0  0  0  0  0  0
   12.2134   -2.4940   -4.2606 O   0  0  0  0  0  0  0  0  0  0  0  0
   11.4033   -4.9780   -2.9630 C   0  0  0  0  0  0  0  0  0  0  0  0
   10.5626   -5.8637   -2.1796 N   0  3  0  0  0  0  0  0  0  0  0  0
   10.8277    4.0333    0.4451 C   0  0  1  0  0  0  0  0  0  0  0  0
   10.8286    3.9103    1.8828 O   0  0  0  0  0  0  0  0  0  0  0  0
    9.9573    4.8596    2.5394 C   0  0  2  0  0  0  0  0  0  0  0  0
    8.5623    4.6235    2.2265 O   0  0  0  0  0  0  0  0  0  0  0  0
   10.3658    6.2968    2.1940 C   0  0  2  0  0  0  0  0  0  0  0  0
    9.3652    7.2273    2.6826 N   0  3  0  0  0  0  0  0  0  0  0  0
   10.5381    6.4897    0.6914 C   0  0  1  0  0  0  0  0  0  0  0  0
   11.1391    7.7500    0.4371 O   0  0  0  0  0  0  0  0  0  0  0  0
   11.3664    5.3947    0.0369 C   0  0  2  0  0  0  0  0  0  0  0  0
   11.3315    5.5276   -1.3765 O   0  0  0  0  0  0  0  0  0  0  0  0
   11.7356    2.9724   -0.1704 C   0  0  0  0  0  0  0  0  0  0  0  0
   12.0871    1.9636    0.8122 N   0  3  0  0  0  0  0  0  0  0  0  0
    8.0138    2.3300    5.7674 C   0  0  2  0  0  0  0  0  0  0  0  0
    6.8368    3.1331    5.2500 C   0  0  0  0  0  0  0  0  0  0  0  0
    7.3033    4.1777    4.2530 C   0  0  1  0  0  0  0  0  0  0  0  0
    7.9779    3.5622    3.0262 C   0  0  2  0  0  0  0  0  0  0  0  0
    9.0729    2.5538    3.4445 C   0  0  1  0  0  0  0  0  0  0  0  0
    8.7342    1.6308    4.6226 C   0  0  1  0  0  0  0  0  0  0  0  0
    7.5424    1.3441    6.7213 N   0  3  0  0  0  0  0  0  0  0  0  0
    6.1698    4.9906    3.8571 N   0  3  0  0  0  0  0  0  0  0  0  0
    9.5321    1.7695    2.3163 O   0  0  0  0  0  0  0  0  0  0  0  0
    9.9219    1.0138    5.1082 O   0  0  0  0  0  0  0  0  0  0  0  0
  1  2  1  0  0  0  0
  3  2  1  1  0  0  0
  3  4  1  0  0  0  0
  3  5  1  0  0  0  0
  4  8  1  0  0  0  0
  5  6  1  0  0  0  0
  5 12  1  6  0  0  0
  6  7  1  6  0  0  0
  6  8  1  0  0  0  0
  8 41  1  1  0  0  0
  9 10  1  0  0  0  0
  9 17  1  0  0  0  0
  9 19  1  6  0  0  0
 10 11  1  0  0  0  0
 11 12  1  6  0  0  0
 11 13  1  0  0  0  0
 13 14  1  6  0  0  0
 13 15  1  0  0  0  0
 15 16  1  1  0  0  0
 15 17  1  0  0  0  0
 17 18  1  6  0  0  0
 19 20  1  0  0  0  0
 21 22  1  0  0  0  0
 21 29  1  0  0  0  0
 21 31  1  6  0  0  0
 22 23  1  0  0  0  0
 23 24  1  6  0  0  0
 23 25  1  0  0  0  0
 25 26  1  6  0  0  0
 25 27  1  0  0  0  0
 27 28  1  1  0  0  0
 27 29  1  0  0  0  0
 29 30  1  6  0  0  0
 31 32  1  0  0  0  0
 33 34  1  0  0  0  0
 33 38  1  0  0  0  0
 33 39  1  1  0  0  0
 34 35  1  0  0  0  0
 35 36  1  0  0  0  0
 35 40  1  6  0  0  0
 36 24  1  1  0  0  0
 36 37  1  0  0  0  0
 37 38  1  0  0  0  0
 37 41  1  6  0  0  0
 38 42  1  1  0  0  0
M  CHG  6  14   1  20   1  26   1  32   1  39   1  40   1
M  END
>  <CHROM.1>
-177.15993926,43.41349457,-145.29118169,-143.46597370,-76.73982617,-66.38337597
152.26485081,62.34865159,-173.18853984,-179.57807278,64.09421933,13.30100990
81.07074057,93.93645829,63.79580224,-169.76081399,-168.39610040,165.44856761
74.14038089,-171.92231631,-25.40132237,-23.32368284,9.78803762,1.38503981
0.83173604,1.15302456,-0.90740708,-2.85235793

>  <Name>


>  <RI>
0

>  <Rbt.Current_Directory>
/home/itssahil/PROJECTS/Mol_Feturizer/New_Systems/rnas/1qd3

>  <Rbt.Executable>
rbdock ($Id: //depot/dev/client3/rdock/2013.1/src/exe/rbdock.cxx#4 $)

>  <Rbt.Library>
libRbt.so (2013.1, Build901 2013/11/27)

>  <Rbt.Parameter_File>
/export/apps/rDock/src/rDock_2013.1_src/data/scripts/dock_solv.prm

>  <Rbt.Receptor>
prm/pocket_docking_3.prm

>  <SCORE>
0.310076

>  <SCORE.INTER>
3.1362

>  <SCORE.INTER.CONST>
1

>  <SCORE.INTER.POLAR>
-7.77796

>  <SCORE.INTER.ROT>
9

>  <SCORE.INTER.SOLV>
49.3728

>  <SCORE.INTER.VDW>
1.95971

>  <SCORE.INTER.norm>
0.0746713

>  <SCORE.INTRA>
-9.50648

>  <SCORE.INTRA.DIHEDRAL>
-1.13727

>  <SCORE.INTRA.DIHEDRAL.0>
40.6252

>  <SCORE.INTRA.POLAR>
0.0576457

>  <SCORE.INTRA.POLAR.0>
-1.20161

>  <SCORE.INTRA.REPUL>
-0.0653673

>  <SCORE.INTRA.REPUL.0>
0.115675

>  <SCORE.INTRA.SOLV>
-6.25169

>  <SCORE.INTRA.SOLV.lig_0>
-154.895

>  <SCORE.INTRA.VDW>
-5.68115

>  <SCORE.INTRA.VDW.0>
2.2925

>  <SCORE.INTRA.norm>
-0.226345

>  <SCORE.RESTR>
6.68036

>  <SCORE.RESTR.CAVITY>
6.68036

>  <SCORE.RESTR.norm>
0.159056

>  <SCORE.SYSTEM>
0

>  <SCORE.SYSTEM.CONST>
0

>  <SCORE.SYSTEM.DIHEDRAL>
0

>  <SCORE.SYSTEM.SOLV>
0

>  <SCORE.SYSTEM.norm>
0

>  <SCORE.heavy>
42

>  <SCORE.norm>
0.00738275

>  <RMSD>
6.498

$$$$

 OpenBabel11021811413D
libRbt.so/2013.1/901 2013/11/27
 42 45  0  0  0  0  0  0  0  0999 V2000
    5.7620   -1.4872    2.8616 O   0  0  0  0  0  0  0  0  0  0  0  0
    7.0937   -1.3742    2.3806 C   0  0  0  0  0  0  0  0  0  0  0  0
    7.1728   -0.2646    1.3314 C   0  0  1  0  0  0  0  0  0  0  0  0
    7.0694    1.0412    1.9394 O   0  0  0  0  0  0  0  0  0  0  0  0
    8.4809   -0.2577    0.5579 C   0  0  2  0  0  0  0  0  0  0  0  0
    8.4727    1.1604    0.0123 C   0  0  1  0  0  0  0  0  0  0  0  0
    7.5817    1.2448   -1.0945 O   0  0  0  0  0  0  0  0  0  0  0  0
    7.9090    1.9649    1.2013 C   0  0  2  0  0  0  0  0  0  0  0  0
   11.1935   -2.8915   -2.3067 C   0  0  2  0  0  0  0  0  0  0  0  0
    9.8928   -2.6872   -1.7340 O   0  0  0  0  0  0  0  0  0  0  0  0
    9.7799   -1.3992   -1.1022 C   0  0  2  0  0  0  0  0  0  0  0  0
    8.4832   -1.2496   -0.4877 O   0  0  0  0  0  0  0  0  0  0  0  0
   10.0217   -0.2719   -2.1205 C   0  0  2  0  0  0  0  0  0  0  0  0
    8.8596   -0.0876   -2.9702 N   0  3  0  0  0  0  0  0  0  0  0  0
   11.2791   -0.4907   -2.9701 C   0  0  1  0  0  0  0  0  0  0  0  0
   12.4274   -0.1574   -2.2064 O   0  0  0  0  0  0  0  0  0  0  0  0
   11.3969   -1.9283   -3.4692 C   0  0  2  0  0  0  0  0  0  0  0  0
   10.4278   -2.1715   -4.4822 O   0  0  0  0  0  0  0  0  0  0  0  0
   11.3585   -4.3379   -2.7644 C   0  0  0  0  0  0  0  0  0  0  0  0
   10.2961   -4.7030   -3.6825 N   0  3  0  0  0  0  0  0  0  0  0  0
   11.0228    4.4032    1.0604 C   0  0  1  0  0  0  0  0  0  0  0  0
   10.7733    4.2502    2.4733 O   0  0  0  0  0  0  0  0  0  0  0  0
   10.0242    5.3473    3.0448 C   0  0  2  0  0  0  0  0  0  0  0  0
    8.6770    5.4193    2.5160 O   0  0  0  0  0  0  0  0  0  0  0  0
   10.7687    6.6728    2.8435 C   0  0  2  0  0  0  0  0  0  0  0  0
    9.9171    7.7828    3.2289 N   0  3  0  0  0  0  0  0  0  0  0  0
   11.2101    6.8589    1.3961 C   0  0  1  0  0  0  0  0  0  0  0  0
   12.0897    7.9688    1.3035 O   0  0  0  0  0  0  0  0  0  0  0  0
   11.8873    5.6285    0.8123 C   0  0  2  0  0  0  0  0  0  0  0  0
   12.1022    5.7979   -0.5812 O   0  0  0  0  0  0  0  0  0  0  0  0
   11.7779    3.1883    0.5288 C   0  0  0  0  0  0  0  0  0  0  0  0
   12.7854    2.7531    1.4787 N   0  3  0  0  0  0  0  0  0  0  0  0
    7.3393    2.6281    5.4347 C   0  0  2  0  0  0  0  0  0  0  0  0
    6.4100    3.7651    5.0584 C   0  0  0  0  0  0  0  0  0  0  0  0
    7.1745    4.8603    4.3382 C   0  0  1  0  0  0  0  0  0  0  0  0
    7.8121    4.3755    3.0354 C   0  0  2  0  0  0  0  0  0  0  0  0
    8.6272    3.0820    3.2660 C   0  0  1  0  0  0  0  0  0  0  0  0
    7.9964    2.0363    4.1951 C   0  0  1  0  0  0  0  0  0  0  0  0
    6.5863    1.5988    6.1257 N   0  3  0  0  0  0  0  0  0  0  0  0
    6.2786    5.9717    4.0844 N   0  3  0  0  0  0  0  0  0  0  0  0
    9.0106    2.4647    2.0127 O   0  0  0  0  0  0  0  0  0  0  0  0
    8.9783    1.0806    4.5820 O   0  0  0  0  0  0  0  0  0  0  0  0
  1  2  1  0  0  0  0
  3  2  1  1  0  0  0
  3  4  1  0  0  0  0
  3  5  1  0  0  0  0
  4  8  1  0  0  0  0
  5  6  1  0  0  0  0
  5 12  1  6  0  0  0
  6  7  1  6  0  0  0
  6  8  1  0  0  0  0
  8 41  1  1  0  0  0
  9 10  1  0  0  0  0
  9 17  1  0  0  0  0
  9 19  1  6  0  0  0
 10 11  1  0  0  0  0
 11 12  1  6  0  0  0
 11 13  1  0  0  0  0
 13 14  1  6  0  0  0
 13 15  1  0  0  0  0
 15 16  1  1  0  0  0
 15 17  1  0  0  0  0
 17 18  1  6  0  0  0
 19 20  1  0  0  0  0
 21 22  1  0  0  0  0
 21 29  1  0  0  0  0
 21 31  1  1  0  0  0
 22 23  1  0  0  0  0
 23 24  1  6  0  0  0
 23 25  1  0  0  0  0
 25 26  1  6  0  0  0
 25 27  1  0  0  0  0
 27 28  1  1  0  0  0
 27 29  1  0  0  0  0
 29 30  1  6  0  0  0
 31 32  1  0  0  0  0
 33 34  1  0  0  0  0
 33 38  1  0  0  0  0
 33 39  1  6  0  0  0
 34 35  1  0  0  0  0
 35 36  1  0  0  0  0
 35 40  1  6  0  0  0
 36 24  1  1  0  0  0
 36 37  1  0  0  0  0
 37 38  1  0  0  0  0
 37 41  1  6  0  0  0
 38 42  1  1  0  0  0
M  CHG  6  14   1  20   1  26   1  32   1  39   1  40   1
M  END
>  <CHROM.1>
55.78446953,72.68602606,-171.28914018,62.49773647,-54.93737752,55.38274710
157.69575780,-64.62748673,-171.83726871,-167.94607773,156.61885148,-39.92425389
73.62774922,87.78992068,172.46922373,-56.93273256,67.60748713,47.65005973
38.61219530,100.95303668,-65.26631461,-46.31578007,9.37893114,1.84150296
0.95699872,1.40645618,-0.77784464,-2.59965699

>  <Name>


>  <RI>
0

>  <Rbt.Current_Directory>
/home/itssahil/PROJECTS/Mol_Feturizer/New_Systems/rnas/1qd3

>  <Rbt.Executable>
rbdock ($Id: //depot/dev/client3/rdock/2013.1/src/exe/rbdock.cxx#4 $)

>  <Rbt.Library>
libRbt.so (2013.1, Build901 2013/11/27)

>  <Rbt.Parameter_File>
/export/apps/rDock/src/rDock_2013.1_src/data/scripts/dock_solv.prm

>  <Rbt.Receptor>
prm/pocket_docking_5.prm

>  <SCORE>
-23.0719

>  <SCORE.INTER>
-6.22587

>  <SCORE.INTER.CONST>
1

>  <SCORE.INTER.POLAR>
-7.09428

>  <SCORE.INTER.ROT>
9

>  <SCORE.INTER.SOLV>
49.0591

>  <SCORE.INTER.VDW>
-6.45603

>  <SCORE.INTER.norm>
-0.148235

>  <SCORE.INTRA>
-17.3415

>  <SCORE.INTRA.DIHEDRAL>
-22.7171

>  <SCORE.INTRA.DIHEDRAL.0>
40.6252

>  <SCORE.INTRA.POLAR>
0.291771

>  <SCORE.INTRA.POLAR.0>
-1.20161

>  <SCORE.INTRA.REPUL>
-0.115675

>  <SCORE.INTRA.REPUL.0>
0.115675

>  <SCORE.INTRA.SOLV>
-6.01888

>  <SCORE.INTRA.SOLV.lig_0>
-154.895

>  <SCORE.INTRA.VDW>
-3.38717

>  <SCORE.INTRA.VDW.0>
2.2925

>  <SCORE.INTRA.norm>
-0.412893

>  <SCORE.RESTR>
0.495514

>  <SCORE.RESTR.CAVITY>
0.495514

>  <SCORE.RESTR.norm>
0.011798

>  <SCORE.SYSTEM>
0

>  <SCORE.SYSTEM.CONST>
0

>  <SCORE.SYSTEM.DIHEDRAL>
0

>  <SCORE.SYSTEM.SOLV>
0

>  <SCORE.SYSTEM.norm>
0

>  <SCORE.heavy>
42

>  <SCORE.norm>
-0.54933

>  <RMSD>
6.503

$$$$

 OpenBabel11021811413D
libRbt.so/2013.1/901 2013/11/27
 42 45  0  0  0  0  0  0  0  0999 V2000
    6.7686   -1.1129    1.5974 O   0  0  0  0  0  0  0  0  0  0  0  0
    7.2334   -2.0758    0.6622 C   0  0  0  0  0  0  0  0  0  0  0  0
    7.4703   -1.4088   -0.6932 C   0  0  1  0  0  0  0  0  0  0  0  0
    8.5594   -0.4625   -0.6295 O   0  0  0  0  0  0  0  0  0  0  0  0
    7.8400   -2.3907   -1.7926 C   0  0  2  0  0  0  0  0  0  0  0  0
    8.4785   -1.4502   -2.8009 C   0  0  1  0  0  0  0  0  0  0  0  0
    7.4656   -0.7348   -3.4997 O   0  0  0  0  0  0  0  0  0  0  0  0
    9.2697   -0.4863   -1.8935 C   0  0  2  0  0  0  0  0  0  0  0  0
    7.9045   -6.1579   -3.8129 C   0  0  2  0  0  0  0  0  0  0  0  0
    7.5120   -5.2202   -2.7989 O   0  0  0  0  0  0  0  0  0  0  0  0
    7.0065   -3.9973   -3.3643 C   0  0  2  0  0  0  0  0  0  0  0  0
    6.6764   -3.0567   -2.3212 O   0  0  0  0  0  0  0  0  0  0  0  0
    5.7747   -4.2740   -4.2433 C   0  0  2  0  0  0  0  0  0  0  0  0
    4.6018   -4.5178   -3.4240 N   0  3  0  0  0  0  0  0  0  0  0  0
    5.9894   -5.4273   -5.2306 C   0  0  1  0  0  0  0  0  0  0  0  0
    6.7689   -4.9714   -6.3249 O   0  0  0  0  0  0  0  0  0  0  0  0
    6.6742   -6.6260   -4.5796 C   0  0  2  0  0  0  0  0  0  0  0  0
    5.7696   -7.2834   -3.6999 O   0  0  0  0  0  0  0  0  0  0  0  0
    8.6420   -7.3420   -3.1940 C   0  0  0  0  0  0  0  0  0  0  0  0
    9.8297   -6.8894   -2.4944 N   0  3  0  0  0  0  0  0  0  0  0  0
   13.9539   -3.3195   -2.6639 C   0  0  1  0  0  0  0  0  0  0  0  0
   12.6070   -3.0517   -2.2208 O   0  0  0  0  0  0  0  0  0  0  0  0
   12.4987   -2.8795   -0.7890 C   0  0  2  0  0  0  0  0  0  0  0  0
   13.1985   -1.6968   -0.3294 O   0  0  0  0  0  0  0  0  0  0  0  0
   12.9905   -4.1330   -0.0552 C   0  0  2  0  0  0  0  0  0  0  0  0
   13.0754   -3.8717    1.3697 N   0  3  0  0  0  0  0  0  0  0  0  0
   14.3544   -4.5868   -0.5635 C   0  0  1  0  0  0  0  0  0  0  0  0
   14.6605   -5.8671   -0.0330 O   0  0  0  0  0  0  0  0  0  0  0  0
   14.4436   -4.6351   -2.0810 C   0  0  2  0  0  0  0  0  0  0  0  0
   15.7816   -4.8796   -2.4892 O   0  0  0  0  0  0  0  0  0  0  0  0
   13.9882   -3.4453   -4.1843 C   0  0  0  0  0  0  0  0  0  0  0  0
   15.3469   -3.3230   -4.6798 N   0  3  0  0  0  0  0  0  0  0  0  0
   12.3706    2.3785   -1.2271 C   0  0  2  0  0  0  0  0  0  0  0  0
   13.7534    1.8458   -1.5468 C   0  0  0  0  0  0  0  0  0  0  0  0
   14.0033    0.5413   -0.8130 C   0  0  1  0  0  0  0  0  0  0  0  0
   13.0158   -0.5570   -1.2097 C   0  0  2  0  0  0  0  0  0  0  0  0
   11.5580   -0.0496   -1.1190 C   0  0  1  0  0  0  0  0  0  0  0  0
   11.2996    1.3740   -1.6300 C   0  0  1  0  0  0  0  0  0  0  0  0
   12.1594    3.6267   -1.9352 N   0  3  0  0  0  0  0  0  0  0  0  0
   15.3667    0.1147   -1.0611 N   0  3  0  0  0  0  0  0  0  0  0  0
   10.6333   -0.9752   -1.7412 O   0  0  0  0  0  0  0  0  0  0  0  0
   10.0259    1.8237   -1.1799 O   0  0  0  0  0  0  0  0  0  0  0  0
  1  2  1  0  0  0  0
  3  2  1  1  0  0  0
  3  4  1  0  0  0  0
  3  5  1  0  0  0  0
  4  8  1  0  0  0  0
  5  6  1  0  0  0  0
  5 12  1  6  0  0  0
  6  7  1  1  0  0  0
  6  8  1  0  0  0  0
  8 41  1  1  0  0  0
  9 10  1  0  0  0  0
  9 17  1  0  0  0  0
  9 19  1  1  0  0  0
 10 11  1  0  0  0  0
 11 12  1  1  0  0  0
 11 13  1  0  0  0  0
 13 14  1  1  0  0  0
 13 15  1  0  0  0  0
 15 16  1  6  0  0  0
 15 17  1  0  0  0  0
 17 18  1  1  0  0  0
 19 20  1  0  0  0  0
 21 22  1  0  0  0  0
 21 29  1  0  0  0  0
 21 31  1  6  0  0  0
 22 23  1  0  0  0  0
 23 24  1  1  0  0  0
 23 25  1  0  0  0  0
 25 26  1  1  0  0  0
 25 27  1  0  0  0  0
 27 28  1  1  0  0  0
 27 29  1  0  0  0  0
 29 30  1  1  0  0  0
 31 32  1  0  0  0  0
 33 34  1  0  0  0  0
 33 38  1  0  0  0  0
 33 39  1  6  0  0  0
 34 35  1  0  0  0  0
 35 36  1  0  0  0  0
 35 40  1  6  0  0  0
 36 24  1  1  0  0  0
 36 37  1  0  0  0  0
 37 38  1  0  0  0  0
 37 41  1  6  0  0  0
 38 42  1  1  0  0  0
M  CHG  6  14   1  20   1  26   1  32   1  39   1  40   1
M  END
>  <CHROM.1>
-177.73495336,66.50134120,-179.81737099,66.99203408,-73.95636139,-59.61961191
78.75971042,105.31122854,-177.80880693,-71.14132925,-169.15659894,163.32949333
41.21116281,-168.50315006,-44.77800535,-57.80886716,-173.62505003,61.13456892
144.45499384,-52.98072198,-170.65210379,81.62281108,10.41753555,-2.66967617
-2.05567615,2.58456095,0.13809191,-2.86124128

>  <Name>


>  <RI>
0

>  <Rbt.Current_Directory>
/home/itssahil/PROJECTS/Mol_Feturizer/New_Systems/rnas/1qd3

>  <Rbt.Executable>
rbdock ($Id: //depot/dev/client3/rdock/2013.1/src/exe/rbdock.cxx#4 $)

>  <Rbt.Library>
libRbt.so (2013.1, Build901 2013/11/27)

>  <Rbt.Parameter_File>
/export/apps/rDock/src/rDock_2013.1_src/data/scripts/dock_solv.prm

>  <Rbt.Receptor>
prm/pocket_docking_8.prm

>  <SCORE>
-57.4384

>  <SCORE.INTER>
-35.5317

>  <SCORE.INTER.CONST>
1

>  <SCORE.INTER.POLAR>
-6.73424

>  <SCORE.INTER.ROT>
9

>  <SCORE.INTER.SOLV>
29.864

>  <SCORE.INTER.VDW>
-20.795

>  <SCORE.INTER.norm>
-0.845993

>  <SCORE.INTRA>
-21.9067

>  <SCORE.INTRA.DIHEDRAL>
-24.3229

>  <SCORE.INTRA.DIHEDRAL.0>
40.6252

>  <SCORE.INTRA.POLAR>
0.424906

>  <SCORE.INTRA.POLAR.0>
-1.20161

>  <SCORE.INTRA.REPUL>
-0.115675

>  <SCORE.INTRA.REPUL.0>
0.115675

>  <SCORE.INTRA.SOLV>
-13.7384

>  <SCORE.INTRA.SOLV.lig_0>
-154.895

>  <SCORE.INTRA.VDW>
-3.74235

>  <SCORE.INTRA.VDW.0>
2.2925

>  <SCORE.INTRA.norm>
-0.521589

>  <SCORE.RESTR>
0

>  <SCORE.RESTR.CAVITY>
0

>  <SCORE.RESTR.norm>
0

>  <SCORE.SYSTEM>
0

>  <SCORE.SYSTEM.CONST>
0

>  <SCORE.SYSTEM.DIHEDRAL>
0

>  <SCORE.SYSTEM.SOLV>
0

>  <SCORE.SYSTEM.norm>
0

>  <SCORE.heavy>
42

>  <SCORE.norm>
-1.36758

>  <RMSD>
6.528

$$$$

 OpenBabel11021811413D
libRbt.so/2013.1/901 2013/11/27
 42 45  0  0  0  0  0  0  0  0999 V2000
    6.3511   -2.0189    1.4540 O   0  0  0  0  0  0  0  0  0  0  0  0
    7.3037   -2.1599    0.4099 C   0  0  0  0  0  0  0  0  0  0  0  0
    7.6426   -0.7864   -0.1708 C   0  0  1  0  0  0  0  0  0  0  0  0
    7.8339    0.1925    0.8737 O   0  0  0  0  0  0  0  0  0  0  0  0
    8.9246   -0.7758   -0.9867 C   0  0  2  0  0  0  0  0  0  0  0  0
    9.2443    0.7097   -0.9811 C   0  0  1  0  0  0  0  0  0  0  0  0
    8.4057    1.3856   -1.9116 O   0  0  0  0  0  0  0  0  0  0  0  0
    8.8682    1.1197    0.4573 C   0  0  2  0  0  0  0  0  0  0  0  0
    7.2591   -4.5745   -2.9812 C   0  0  2  0  0  0  0  0  0  0  0  0
    7.4049   -3.1461   -2.9869 O   0  0  0  0  0  0  0  0  0  0  0  0
    8.6231   -2.7275   -2.3455 C   0  0  2  0  0  0  0  0  0  0  0  0
    8.7102   -1.2876   -2.3167 O   0  0  0  0  0  0  0  0  0  0  0  0
    9.8468   -3.3224   -3.0632 C   0  0  2  0  0  0  0  0  0  0  0  0
   10.1149   -2.6108   -4.2993 N   0  3  0  0  0  0  0  0  0  0  0  0
    9.7143   -4.8269   -3.3273 C   0  0  1  0  0  0  0  0  0  0  0  0
    9.9696   -5.5399   -2.1276 O   0  0  0  0  0  0  0  0  0  0  0  0
    8.3339   -5.2012   -3.8602 C   0  0  2  0  0  0  0  0  0  0  0  0
    8.1931   -4.7507   -5.2025 O   0  0  0  0  0  0  0  0  0  0  0  0
    5.8658   -4.9748   -3.4579 C   0  0  0  0  0  0  0  0  0  0  0  0
    5.6774   -4.5973   -4.8460 N   0  3  0  0  0  0  0  0  0  0  0  0
   14.2488    2.7811   -2.2788 C   0  0  1  0  0  0  0  0  0  0  0  0
   12.8821    2.3210   -2.3311 O   0  0  0  0  0  0  0  0  0  0  0  0
   12.5524    1.3842   -1.2799 C   0  0  2  0  0  0  0  0  0  0  0  0
   12.6043    1.9985    0.0314 O   0  0  0  0  0  0  0  0  0  0  0  0
   13.4624    0.1517   -1.3494 C   0  0  2  0  0  0  0  0  0  0  0  0
   13.2663   -0.6758   -0.1736 N   0  3  0  0  0  0  0  0  0  0  0  0
   14.9333    0.5403   -1.4491 C   0  0  1  0  0  0  0  0  0  0  0  0
   15.7119   -0.6083   -1.7472 O   0  0  0  0  0  0  0  0  0  0  0  0
   15.2008    1.6154   -2.4911 C   0  0  2  0  0  0  0  0  0  0  0  0
   16.5454    2.0637   -2.4038 O   0  0  0  0  0  0  0  0  0  0  0  0
   14.5018    3.7943   -3.3915 C   0  0  0  0  0  0  0  0  0  0  0  0
   14.2114    3.2148   -4.6902 N   0  3  0  0  0  0  0  0  0  0  0  0
   10.2705    4.6954    2.3509 C   0  0  2  0  0  0  0  0  0  0  0  0
   10.7803    5.1712    1.0048 C   0  0  0  0  0  0  0  0  0  0  0  0
   11.8969    4.2702    0.5106 C   0  0  1  0  0  0  0  0  0  0  0  0
   11.4431    2.8232    0.3129 C   0  0  2  0  0  0  0  0  0  0  0  0
   10.7140    2.2951    1.5700 C   0  0  1  0  0  0  0  0  0  0  0  0
    9.7462    3.2690    2.2551 C   0  0  1  0  0  0  0  0  0  0  0  0
    9.2096    5.5754    2.8028 N   0  3  0  0  0  0  0  0  0  0  0  0
   12.4270    4.8115   -0.7256 N   0  3  0  0  0  0  0  0  0  0  0  0
   10.0474    1.0358    1.3082 O   0  0  0  0  0  0  0  0  0  0  0  0
    9.4198    2.7892    3.5553 O   0  0  0  0  0  0  0  0  0  0  0  0
  1  2  1  0  0  0  0
  3  2  1  1  0  0  0
  3  4  1  0  0  0  0
  3  5  1  0  0  0  0
  4  8  1  0  0  0  0
  5  6  1  0  0  0  0
  5 12  1  6  0  0  0
  6  7  1  6  0  0  0
  6  8  1  0  0  0  0
  8 41  1  1  0  0  0
  9 10  1  0  0  0  0
  9 17  1  0  0  0  0
  9 19  1  6  0  0  0
 10 11  1  0  0  0  0
 11 12  1  6  0  0  0
 11 13  1  0  0  0  0
 13 14  1  6  0  0  0
 13 15  1  0  0  0  0
 15 16  1  1  0  0  0
 15 17  1  0  0  0  0
 17 18  1  6  0  0  0
 19 20  1  0  0  0  0
 21 22  1  0  0  0  0
 21 29  1  0  0  0  0
 21 31  1  6  0  0  0
 22 23  1  0  0  0  0
 23 24  1  1  0  0  0
 23 25  1  0  0  0  0
 25 26  1  1  0  0  0
 25 27  1  0  0  0  0
 27 28  1  6  0  0  0
 27 29  1  0  0  0  0
 29 30  1  1  0  0  0
 31 32  1  0  0  0  0
 33 34  1  0  0  0  0
 33 38  1  0  0  0  0
 33 39  1  6  0  0  0
 34 35  1  0  0  0  0
 35 36  1  0  0  0  0
 35 40  1  6  0  0  0
 36 24  1  1  0  0  0
 36 37  1  0  0  0  0
 37 38  1  0  0  0  0
 37 41  1  6  0  0  0
 38 42  1  1  0  0  0
M  CHG  6  14   1  20   1  26   1  32   1  39   1  40   1
M  END
>  <CHROM.1>
-54.30357894,43.75482420,-77.39877356,-56.26123215,-143.31514613,64.86131036
125.84302603,-127.23726222,-171.47307718,57.86607646,146.21577235,-57.62810162
77.14410630,-117.51338027,-62.72523442,-178.59130243,-67.00090430,-60.36193745
54.20696805,148.82689750,-71.27907170,-67.02148769,10.48612102,0.11783501
-1.22738944,2.19377661,-0.45735855,-2.46278079

>  <Name>


>  <RI>
0

>  <Rbt.Current_Directory>
/home/itssahil/PROJECTS/Mol_Feturizer/New_Systems/rnas/1qd3

>  <Rbt.Executable>
rbdock ($Id: //depot/dev/client3/rdock/2013.1/src/exe/rbdock.cxx#4 $)

>  <Rbt.Library>
libRbt.so (2013.1, Build901 2013/11/27)

>  <Rbt.Parameter_File>
/export/apps/rDock/src/rDock_2013.1_src/data/scripts/dock_solv.prm

>  <Rbt.Receptor>
prm/pocket_docking_7.prm

>  <SCORE>
-43.7663

>  <SCORE.INTER>
-31.7304

>  <SCORE.INTER.CONST>
1

>  <SCORE.INTER.POLAR>
-5.4832

>  <SCORE.INTER.ROT>
9

>  <SCORE.INTER.SOLV>
32.6982

>  <SCORE.INTER.VDW>
-23.3757

>  <SCORE.INTER.norm>
-0.755486

>  <SCORE.INTRA>
-12.0416

>  <SCORE.INTRA.DIHEDRAL>
-7.84366

>  <SCORE.INTRA.DIHEDRAL.0>
40.6252

>  <SCORE.INTRA.POLAR>
0.483886

>  <SCORE.INTRA.POLAR.0>
-1.20161

>  <SCORE.INTRA.REPUL>
-0.115675

>  <SCORE.INTRA.REPUL.0>
0.115675

>  <SCORE.INTRA.SOLV>
-4.63097

>  <SCORE.INTRA.SOLV.lig_0>
-154.895

>  <SCORE.INTRA.VDW>
-6.87113

>  <SCORE.INTRA.VDW.0>
2.2925

>  <SCORE.INTRA.norm>
-0.286705

>  <SCORE.RESTR>
0.00570666

>  <SCORE.RESTR.CAVITY>
0.00570666

>  <SCORE.RESTR.norm>
0.000135873

>  <SCORE.SYSTEM>
0

>  <SCORE.SYSTEM.CONST>
0

>  <SCORE.SYSTEM.DIHEDRAL>
0

>  <SCORE.SYSTEM.SOLV>
0

>  <SCORE.SYSTEM.norm>
0

>  <SCORE.heavy>
42

>  <SCORE.norm>
-1.04206

>  <RMSD>
6.532

$$$$

 OpenBabel11021811413D
libRbt.so/2013.1/901 2013/11/27
 42 45  0  0  0  0  0  0  0  0999 V2000
   11.8877   -5.3889   -8.6708 O   0  0  0  0  0  0  0  0  0  0  0  0
   10.6321   -5.6904   -8.0792 C   0  0  0  0  0  0  0  0  0  0  0  0
   10.7655   -5.6956   -6.5558 C   0  0  1  0  0  0  0  0  0  0  0  0
   11.1248   -4.3893   -6.0558 O   0  0  0  0  0  0  0  0  0  0  0  0
    9.4799   -6.0731   -5.8388 C   0  0  2  0  0  0  0  0  0  0  0  0
    9.7617   -5.5166   -4.4532 C   0  0  1  0  0  0  0  0  0  0  0  0
   10.6463   -6.3870   -3.7562 O   0  0  0  0  0  0  0  0  0  0  0  0
   10.4777   -4.1887   -4.7737 C   0  0  2  0  0  0  0  0  0  0  0  0
    5.6841   -7.7770   -6.4225 C   0  0  2  0  0  0  0  0  0  0  0  0
    7.0670   -7.4837   -6.6739 O   0  0  0  0  0  0  0  0  0  0  0  0
    7.9063   -7.8610   -5.5676 C   0  0  2  0  0  0  0  0  0  0  0  0
    9.2787   -7.5001   -5.8283 O   0  0  0  0  0  0  0  0  0  0  0  0
    7.7941   -9.3700   -5.2909 C   0  0  2  0  0  0  0  0  0  0  0  0
    8.5453  -10.1307   -6.2724 N   0  3  0  0  0  0  0  0  0  0  0  0
    6.3432   -9.8616   -5.2261 C   0  0  1  0  0  0  0  0  0  0  0  0
    5.7815   -9.5075   -3.9723 O   0  0  0  0  0  0  0  0  0  0  0  0
    5.4868   -9.2858   -6.3506 C   0  0  2  0  0  0  0  0  0  0  0  0
    5.8449   -9.8862   -7.5899 O   0  0  0  0  0  0  0  0  0  0  0  0
    4.7991   -7.1643   -7.5042 C   0  0  0  0  0  0  0  0  0  0  0  0
    3.4156   -7.1317   -7.0685 N   0  3  0  0  0  0  0  0  0  0  0  0
   11.4325   -4.0034   -1.7226 C   0  0  1  0  0  0  0  0  0  0  0  0
   10.9484   -2.7770   -1.1363 O   0  0  0  0  0  0  0  0  0  0  0  0
   11.5823   -1.5947   -1.6762 C   0  0  2  0  0  0  0  0  0  0  0  0
   11.2612   -1.3967   -3.0753 O   0  0  0  0  0  0  0  0  0  0  0  0
   13.0995   -1.6481   -1.4595 C   0  0  2  0  0  0  0  0  0  0  0  0
   13.7420   -0.5685   -2.1856 N   0  3  0  0  0  0  0  0  0  0  0  0
   13.6888   -2.9785   -1.9147 C   0  0  1  0  0  0  0  0  0  0  0  0
   15.0373   -3.0766   -1.4831 O   0  0  0  0  0  0  0  0  0  0  0  0
   12.9093   -4.1837   -1.4115 C   0  0  2  0  0  0  0  0  0  0  0  0
   13.3925   -5.3728   -2.0192 O   0  0  0  0  0  0  0  0  0  0  0  0
   10.6857   -5.1955   -1.1312 C   0  0  0  0  0  0  0  0  0  0  0  0
   10.7631   -5.1831    0.3181 N   0  3  0  0  0  0  0  0  0  0  0  0
    7.1214   -1.7624   -2.1652 C   0  0  2  0  0  0  0  0  0  0  0  0
    7.7335   -0.3756   -2.1514 C   0  0  0  0  0  0  0  0  0  0  0  0
    9.2474   -0.4634   -2.0934 C   0  0  1  0  0  0  0  0  0  0  0  0
    9.8430   -1.1855   -3.3027 C   0  0  2  0  0  0  0  0  0  0  0  0
    9.1395   -2.5420   -3.5390 C   0  0  1  0  0  0  0  0  0  0  0  0
    7.6149   -2.5575   -3.3665 C   0  0  1  0  0  0  0  0  0  0  0  0
    5.6761   -1.6507   -2.2150 N   0  3  0  0  0  0  0  0  0  0  0  0
    9.7930    0.8752   -1.9794 N   0  3  0  0  0  0  0  0  0  0  0  0
    9.4991   -3.1110   -4.8219 O   0  0  0  0  0  0  0  0  0  0  0  0
    7.1539   -3.9014   -3.2750 O   0  0  0  0  0  0  0  0  0  0  0  0
  1  2  1  0  0  0  0
  3  2  1  6  0  0  0
  3  4  1  0  0  0  0
  3  5  1  0  0  0  0
  4  8  1  0  0  0  0
  5  6  1  0  0  0  0
  5 12  1  1  0  0  0
  6  7  1  1  0  0  0
  6  8  1  0  0  0  0
  8 41  1  6  0  0  0
  9 10  1  0  0  0  0
  9 17  1  0  0  0  0
  9 19  1  6  0  0  0
 10 11  1  0  0  0  0
 11 12  1  6  0  0  0
 11 13  1  0  0  0  0
 13 14  1  6  0  0  0
 13 15  1  0  0  0  0
 15 16  1  1  0  0  0
 15 17  1  0  0  0  0
 17 18  1  6  0  0  0
 19 20  1  0  0  0  0
 21 22  1  0  0  0  0
 21 29  1  0  0  0  0
 21 31  1  1  0  0  0
 22 23  1  0  0  0  0
 23 24  1  6  0  0  0
 23 25  1  0  0  0  0
 25 26  1  6  0  0  0
 25 27  1  0  0  0  0
 27 28  1  1  0  0  0
 27 29  1  0  0  0  0
 29 30  1  6  0  0  0
 31 32  1  0  0  0  0
 33 34  1  0  0  0  0
 33 38  1  0  0  0  0
 33 39  1  6  0  0  0
 34 35  1  0  0  0  0
 35 36  1  0  0  0  0
 35 40  1  6  0  0  0
 36 24  1  1  0  0  0
 36 37  1  0  0  0  0
 37 38  1  0  0  0  0
 37 41  1  6  0  0  0
 38 42  1  1  0  0  0
M  CHG  6  14   1  20   1  26   1  32   1  39   1  40   1
M  END
>  <CHROM.1>
61.04744429,63.52218953,-160.80170715,65.62542106,-160.08264382,-164.09153193
68.48363151,71.38964208,178.77916115,-60.64367105,-71.22637046,-54.00695258
62.37781541,32.05902917,-52.09927703,-173.38005169,-62.18160990,-176.39515378
-93.58588709,77.51274399,102.45747224,-55.51773159,9.38793253,-4.80908071
-4.04558416,-2.14952642,-0.12368857,0.52837417

>  <Name>


>  <RI>
0

>  <Rbt.Current_Directory>
/home/itssahil/PROJECTS/Mol_Feturizer/New_Systems/rnas/1qd3

>  <Rbt.Executable>
rbdock ($Id: //depot/dev/client3/rdock/2013.1/src/exe/rbdock.cxx#4 $)

>  <Rbt.Library>
libRbt.so (2013.1, Build901 2013/11/27)

>  <Rbt.Parameter_File>
/export/apps/rDock/src/rDock_2013.1_src/data/scripts/dock_solv.prm

>  <Rbt.Receptor>
prm/pocket_docking_4.prm

>  <SCORE>
-45.6516

>  <SCORE.INTER>
-25.1023

>  <SCORE.INTER.CONST>
1

>  <SCORE.INTER.POLAR>
-4.63147

>  <SCORE.INTER.ROT>
9

>  <SCORE.INTER.SOLV>
25.6215

>  <SCORE.INTER.VDW>
-19.4372

>  <SCORE.INTER.norm>
-0.597674

>  <SCORE.INTRA>
-20.5843

>  <SCORE.INTRA.DIHEDRAL>
-22.7039

>  <SCORE.INTRA.DIHEDRAL.0>
40.6252

>  <SCORE.INTRA.POLAR>
1.1459

>  <SCORE.INTRA.POLAR.0>
-1.20161

>  <SCORE.INTRA.REPUL>
-0.115675

>  <SCORE.INTRA.REPUL.0>
0.115675

>  <SCORE.INTRA.SOLV>
-11.9104

>  <SCORE.INTRA.SOLV.lig_0>
-154.895

>  <SCORE.INTRA.VDW>
-6.5948

>  <SCORE.INTRA.VDW.0>
2.2925

>  <SCORE.INTRA.norm>
-0.490102

>  <SCORE.RESTR>
0.0349953

>  <SCORE.RESTR.CAVITY>
0.0349953

>  <SCORE.RESTR.norm>
0.000833221

>  <SCORE.SYSTEM>
0

>  <SCORE.SYSTEM.CONST>
0

>  <SCORE.SYSTEM.DIHEDRAL>
0

>  <SCORE.SYSTEM.SOLV>
0

>  <SCORE.SYSTEM.norm>
0

>  <SCORE.heavy>
42

>  <SCORE.norm>
-1.08694

>  <RMSD>
6.540

$$$$

 OpenBabel11021811413D
libRbt.so/2013.1/901 2013/11/27
 42 45  0  0  0  0  0  0  0  0999 V2000
   10.5613   -4.3111   -8.5956 O   0  0  0  0  0  0  0  0  0  0  0  0
   10.8365   -5.6375   -8.1682 C   0  0  0  0  0  0  0  0  0  0  0  0
   10.9689   -5.6735   -6.6451 C   0  0  1  0  0  0  0  0  0  0  0  0
   11.2086   -4.3547   -6.1076 O   0  0  0  0  0  0  0  0  0  0  0  0
    9.7222   -6.1854   -5.9430 C   0  0  2  0  0  0  0  0  0  0  0  0
    9.9518   -5.6450   -4.5415 C   0  0  1  0  0  0  0  0  0  0  0  0
   10.9109   -6.4514   -3.8663 O   0  0  0  0  0  0  0  0  0  0  0  0
   10.5452   -4.2494   -4.8224 C   0  0  2  0  0  0  0  0  0  0  0  0
    6.1498   -8.5767   -5.5387 C   0  0  2  0  0  0  0  0  0  0  0  0
    7.3479   -8.1310   -6.1925 O   0  0  0  0  0  0  0  0  0  0  0  0
    8.4784   -8.1318   -5.3021 C   0  0  2  0  0  0  0  0  0  0  0  0
    9.6506   -7.6245   -5.9730 O   0  0  0  0  0  0  0  0  0  0  0  0
    8.7429   -9.5477   -4.7619 C   0  0  2  0  0  0  0  0  0  0  0  0
    9.3865  -10.3711   -5.7690 N   0  3  0  0  0  0  0  0  0  0  0  0
    7.4775  -10.2345   -4.2349 C   0  0  1  0  0  0  0  0  0  0  0  0
    7.1599   -9.7168   -2.9527 O   0  0  0  0  0  0  0  0  0  0  0  0
    6.2861  -10.0485   -5.1706 C   0  0  2  0  0  0  0  0  0  0  0  0
    6.4636  -10.8327   -6.3445 O   0  0  0  0  0  0  0  0  0  0  0  0
    4.9336   -8.3504   -6.4322 C   0  0  0  0  0  0  0  0  0  0  0  0
    4.6146   -6.9370   -6.5054 N   0  3  0  0  0  0  0  0  0  0  0  0
   11.4024   -3.9748   -1.5416 C   0  0  1  0  0  0  0  0  0  0  0  0
   10.9494   -2.6932   -1.0575 O   0  0  0  0  0  0  0  0  0  0  0  0
   11.5786   -1.5743   -1.7235 C   0  0  2  0  0  0  0  0  0  0  0  0
   11.2164   -1.5023   -3.1247 O   0  0  0  0  0  0  0  0  0  0  0  0
   13.1011   -1.6275   -1.5480 C   0  0  2  0  0  0  0  0  0  0  0  0
   13.7321   -0.6282   -2.3901 N   0  3  0  0  0  0  0  0  0  0  0  0
   13.6623   -3.0019   -1.8951 C   0  0  1  0  0  0  0  0  0  0  0  0
   15.0223   -3.0775   -1.4967 O   0  0  0  0  0  0  0  0  0  0  0  0
   12.8862   -4.1451   -1.2593 C   0  0  2  0  0  0  0  0  0  0  0  0
   13.3381   -5.3915   -1.7681 O   0  0  0  0  0  0  0  0  0  0  0  0
   10.6619   -5.0972   -0.8201 C   0  0  0  0  0  0  0  0  0  0  0  0
   10.8244   -4.9792    0.6174 N   0  3  0  0  0  0  0  0  0  0  0  0
    7.1034   -1.9801   -2.1479 C   0  0  2  0  0  0  0  0  0  0  0  0
    7.6779   -0.5773   -2.1432 C   0  0  0  0  0  0  0  0  0  0  0  0
    9.1943   -0.6240   -2.1098 C   0  0  1  0  0  0  0  0  0  0  0  0
    9.7896   -1.3296   -3.3291 C   0  0  2  0  0  0  0  0  0  0  0  0
    9.1193   -2.7046   -3.5547 C   0  0  1  0  0  0  0  0  0  0  0  0
    7.5987   -2.7613   -3.3575 C   0  0  1  0  0  0  0  0  0  0  0  0
    5.6549   -1.9075   -2.1743 N   0  3  0  0  0  0  0  0  0  0  0  0
    9.7053    0.7288   -2.0039 N   0  3  0  0  0  0  0  0  0  0  0  0
    9.4733   -3.2634   -4.8436 O   0  0  0  0  0  0  0  0  0  0  0  0
    7.1757   -4.1173   -3.2593 O   0  0  0  0  0  0  0  0  0  0  0  0
  1  2  1  0  0  0  0
  3  2  1  6  0  0  0
  3  4  1  0  0  0  0
  3  5  1  0  0  0  0
  4  8  1  0  0  0  0
  5  6  1  0  0  0  0
  5 12  1  1  0  0  0
  6  7  1  1  0  0  0
  6  8  1  0  0  0  0
  8 41  1  6  0  0  0
  9 10  1  0  0  0  0
  9 17  1  0  0  0  0
  9 19  1  6  0  0  0
 10 11  1  0  0  0  0
 11 12  1  6  0  0  0
 11 13  1  0  0  0  0
 13 14  1  6  0  0  0
 13 15  1  0  0  0  0
 15 16  1  1  0  0  0
 15 17  1  0  0  0  0
 17 18  1  6  0  0  0
 19 20  1  0  0  0  0
 21 22  1  0  0  0  0
 21 29  1  0  0  0  0
 21 31  1  1  0  0  0
 22 23  1  0  0  0  0
 23 24  1  6  0  0  0
 23 25  1  0  0  0  0
 25 26  1  6  0  0  0
 25 27  1  0  0  0  0
 27 28  1  1  0  0  0
 27 29  1  0  0  0  0
 29 30  1  6  0  0  0
 31 32  1  0  0  0  0
 33 34  1  0  0  0  0
 33 38  1  0  0  0  0
 33 39  1  6  0  0  0
 34 35  1  0  0  0  0
 35 36  1  0  0  0  0
 35 40  1  6  0  0  0
 36 24  1  1  0  0  0
 36 37  1  0  0  0  0
 37 38  1  0  0  0  0
 37 41  1  6  0  0  0
 38 42  1  1  0  0  0
M  CHG  6  14   1  20   1  26   1  32   1  39   1  40   1
M  END
>  <CHROM.1>
54.57922144,-18.43242914,179.55282261,-175.50619280,-156.43341253,-72.41135859
84.53771412,-37.68239631,-176.53509947,42.42768877,-86.34123927,-56.06018386
60.85945861,26.97742907,-174.10054000,58.24750156,-58.44820042,54.98699805
31.11350862,-162.28108739,98.46980209,-49.02095212,9.58319596,-4.94352978
-3.82763719,-2.06522845,-0.17185995,0.40862147

>  <Name>


>  <RI>
0

>  <Rbt.Current_Directory>
/home/itssahil/PROJECTS/Mol_Feturizer/New_Systems/rnas/1qd3

>  <Rbt.Executable>
rbdock ($Id: //depot/dev/client3/rdock/2013.1/src/exe/rbdock.cxx#4 $)

>  <Rbt.Library>
libRbt.so (2013.1, Build901 2013/11/27)

>  <Rbt.Parameter_File>
/export/apps/rDock/src/rDock_2013.1_src/data/scripts/dock_solv.prm

>  <Rbt.Receptor>
prm/pocket_docking_4.prm

>  <SCORE>
-39.4017

>  <SCORE.INTER>
-26.464

>  <SCORE.INTER.CONST>
1

>  <SCORE.INTER.POLAR>
-5.2396

>  <SCORE.INTER.ROT>
9

>  <SCORE.INTER.SOLV>
27.5191

>  <SCORE.INTER.VDW>
-18.9504

>  <SCORE.INTER.norm>
-0.630095

>  <SCORE.INTRA>
-12.9835

>  <SCORE.INTRA.DIHEDRAL>
-14.6272

>  <SCORE.INTRA.DIHEDRAL.0>
40.6252

>  <SCORE.INTRA.POLAR>
1.1763

>  <SCORE.INTRA.POLAR.0>
-1.20161

>  <SCORE.INTRA.REPUL>
-0.115675

>  <SCORE.INTRA.REPUL.0>
0.115675

>  <SCORE.INTRA.SOLV>
-10.4761

>  <SCORE.INTRA.SOLV.lig_0>
-154.895

>  <SCORE.INTRA.VDW>
-3.85288

>  <SCORE.INTRA.VDW.0>
2.2925

>  <SCORE.INTRA.norm>
-0.309131

>  <SCORE.RESTR>
0.0458147

>  <SCORE.RESTR.CAVITY>
0.0458147

>  <SCORE.RESTR.norm>
0.00109083

>  <SCORE.SYSTEM>
0

>  <SCORE.SYSTEM.CONST>
0

>  <SCORE.SYSTEM.DIHEDRAL>
0

>  <SCORE.SYSTEM.SOLV>
0

>  <SCORE.SYSTEM.norm>
0

>  <SCORE.heavy>
42

>  <SCORE.norm>
-0.938135

>  <RMSD>
6.555

$$$$

 OpenBabel11021811413D
libRbt.so/2013.1/901 2013/11/27
 42 45  0  0  0  0  0  0  0  0999 V2000
    6.6644   -5.5605   -7.1180 O   0  0  0  0  0  0  0  0  0  0  0  0
    7.0498   -6.1930   -5.9059 C   0  0  0  0  0  0  0  0  0  0  0  0
    8.5670   -6.1056   -5.7360 C   0  0  1  0  0  0  0  0  0  0  0  0
    8.9659   -4.8096   -5.2392 O   0  0  0  0  0  0  0  0  0  0  0  0
    9.1225   -7.1163   -4.7463 C   0  0  2  0  0  0  0  0  0  0  0  0
   10.4637   -6.4793   -4.4233 C   0  0  1  0  0  0  0  0  0  0  0  0
   11.3772   -6.7151   -5.4890 O   0  0  0  0  0  0  0  0  0  0  0  0
   10.1071   -4.9801   -4.3608 C   0  0  2  0  0  0  0  0  0  0  0  0
    6.1313   -9.7407   -6.6867 C   0  0  2  0  0  0  0  0  0  0  0  0
    7.3990   -9.0675   -6.6536 O   0  0  0  0  0  0  0  0  0  0  0  0
    8.0206   -9.1551   -5.3587 C   0  0  2  0  0  0  0  0  0  0  0  0
    9.2622   -8.4205   -5.3433 O   0  0  0  0  0  0  0  0  0  0  0  0
    8.2641  -10.6239   -4.9717 C   0  0  2  0  0  0  0  0  0  0  0  0
    9.4067  -11.1621   -5.6867 N   0  3  0  0  0  0  0  0  0  0  0  0
    7.0320  -11.5118   -5.1822 C   0  0  1  0  0  0  0  0  0  0  0  0
    6.1126  -11.3003   -4.1226 O   0  0  0  0  0  0  0  0  0  0  0  0
    6.3443  -11.2396   -6.5173 C   0  0  2  0  0  0  0  0  0  0  0  0
    7.1381  -11.7452   -7.5844 O   0  0  0  0  0  0  0  0  0  0  0  0
    5.3966   -9.4402   -7.9901 C   0  0  0  0  0  0  0  0  0  0  0  0
    5.7638   -8.1278   -8.4876 N   0  3  0  0  0  0  0  0  0  0  0  0
    8.2807   -6.0262    1.0296 C   0  0  1  0  0  0  0  0  0  0  0  0
    8.8849   -6.0530   -0.2805 O   0  0  0  0  0  0  0  0  0  0  0  0
    7.9233   -5.9607   -1.3568 C   0  0  2  0  0  0  0  0  0  0  0  0
    7.2469   -4.6793   -1.3727 O   0  0  0  0  0  0  0  0  0  0  0  0
    6.9175   -7.1159   -1.2833 C   0  0  2  0  0  0  0  0  0  0  0  0
    5.8416   -6.8971   -2.2321 N   0  3  0  0  0  0  0  0  0  0  0  0
    6.3294   -7.2651    0.1154 C   0  0  1  0  0  0  0  0  0  0  0  0
    5.5944   -8.4764    0.1982 O   0  0  0  0  0  0  0  0  0  0  0  0
    7.3804   -7.2368    1.2144 C   0  0  2  0  0  0  0  0  0  0  0  0
    6.7590   -7.1902    2.4905 O   0  0  0  0  0  0  0  0  0  0  0  0
    9.3621   -6.0847    2.1047 C   0  0  0  0  0  0  0  0  0  0  0  0
    8.8745   -5.5314    3.3549 N   0  3  0  0  0  0  0  0  0  0  0  0
    8.6795   -0.9704   -2.8863 C   0  0  2  0  0  0  0  0  0  0  0  0
    8.2313   -1.0232   -1.4391 C   0  0  0  0  0  0  0  0  0  0  0  0
    7.3947   -2.2639   -1.1868 C   0  0  1  0  0  0  0  0  0  0  0  0
    8.1665   -3.5584   -1.4466 C   0  0  2  0  0  0  0  0  0  0  0  0
    8.8486   -3.5270   -2.8339 C   0  0  1  0  0  0  0  0  0  0  0  0
    9.5041   -2.2005   -3.2405 C   0  0  1  0  0  0  0  0  0  0  0  0
    9.4712    0.2258   -3.1022 N   0  3  0  0  0  0  0  0  0  0  0  0
    6.9006   -2.2300    0.1760 N   0  3  0  0  0  0  0  0  0  0  0  0
    9.7939   -4.6143   -2.9862 O   0  0  0  0  0  0  0  0  0  0  0  0
    9.7803   -2.2076   -4.6372 O   0  0  0  0  0  0  0  0  0  0  0  0
  1  2  1  0  0  0  0
  3  2  1  1  0  0  0
  3  4  1  0  0  0  0
  3  5  1  0  0  0  0
  4  8  1  0  0  0  0
  5  6  1  0  0  0  0
  5 12  1  6  0  0  0
  6  7  1  6  0  0  0
  6  8  1  0  0  0  0
  8 41  1  1  0  0  0
  9 10  1  0  0  0  0
  9 17  1  0  0  0  0
  9 19  1  6  0  0  0
 10 11  1  0  0  0  0
 11 12  1  6  0  0  0
 11 13  1  0  0  0  0
 13 14  1  6  0  0  0
 13 15  1  0  0  0  0
 15 16  1  1  0  0  0
 15 17  1  0  0  0  0
 17 18  1  6  0  0  0
 19 20  1  0  0  0  0
 21 22  1  0  0  0  0
 21 29  1  0  0  0  0
 21 31  1  1  0  0  0
 22 23  1  0  0  0  0
 23 24  1  1  0  0  0
 23 25  1  0  0  0  0
 25 26  1  6  0  0  0
 25 27  1  0  0  0  0
 27 28  1  6  0  0  0
 27 29  1  0  0  0  0
 29 30  1  1  0  0  0
 31 32  1  0  0  0  0
 33 34  1  0  0  0  0
 33 38  1  0  0  0  0
 33 39  1  1  0  0  0
 34 35  1  0  0  0  0
 35 36  1  0  0  0  0
 35 40  1  1  0  0  0
 36 24  1  6  0  0  0
 36 37  1  0  0  0  0
 37 38  1  0  0  0  0
 37 41  1  1  0  0  0
 38 42  1  6  0  0  0
M  CHG  6  14   1  20   1  26   1  32   1  39   1  40   1
M  END
>  <CHROM.1>
-53.74300631,79.86983595,-81.75637735,-52.67528392,-33.70503421,-29.55650755
99.44129686,178.15580751,-58.73812542,42.93210272,-168.59095041,156.94623066
55.87384009,-169.15236299,177.80737424,-65.25965927,-174.20661922,79.32001766
148.38835622,94.28105151,157.99007999,91.56312464,7.96115007,-6.44630898
-3.27672213,-2.03601412,1.28271950,1.20651157

>  <Name>


>  <RI>
0

>  <Rbt.Current_Directory>
/home/itssahil/PROJECTS/Mol_Feturizer/New_Systems/rnas/1qd3

>  <Rbt.Executable>
rbdock ($Id: //depot/dev/client3/rdock/2013.1/src/exe/rbdock.cxx#4 $)

>  <Rbt.Library>
libRbt.so (2013.1, Build901 2013/11/27)

>  <Rbt.Parameter_File>
/export/apps/rDock/src/rDock_2013.1_src/data/scripts/dock_solv.prm

>  <Rbt.Receptor>
prm/pocket_docking_5.prm

>  <SCORE>
-59.1421

>  <SCORE.INTER>
-40.7538

>  <SCORE.INTER.CONST>
1

>  <SCORE.INTER.POLAR>
-8.20164

>  <SCORE.INTER.ROT>
9

>  <SCORE.INTER.SOLV>
41.3082

>  <SCORE.INTER.VDW>
-23.1998

>  <SCORE.INTER.norm>
-0.970328

>  <SCORE.INTRA>
-18.3883

>  <SCORE.INTRA.DIHEDRAL>
-9.84119

>  <SCORE.INTRA.DIHEDRAL.0>
40.6252

>  <SCORE.INTRA.POLAR>
-0.235326

>  <SCORE.INTRA.POLAR.0>
-1.20161

>  <SCORE.INTRA.REPUL>
-0.0424312

>  <SCORE.INTRA.REPUL.0>
0.115675

>  <SCORE.INTRA.SOLV>
-8.7565

>  <SCORE.INTRA.SOLV.lig_0>
-154.895

>  <SCORE.INTRA.VDW>
-8.07722

>  <SCORE.INTRA.VDW.0>
2.2925

>  <SCORE.INTRA.norm>
-0.437817

>  <SCORE.RESTR>
0

>  <SCORE.RESTR.CAVITY>
0

>  <SCORE.RESTR.norm>
0

>  <SCORE.SYSTEM>
0

>  <SCORE.SYSTEM.CONST>
0

>  <SCORE.SYSTEM.DIHEDRAL>
0

>  <SCORE.SYSTEM.SOLV>
0

>  <SCORE.SYSTEM.norm>
0

>  <SCORE.heavy>
42

>  <SCORE.norm>
-1.40815

>  <RMSD>
6.575

$$$$

 OpenBabel11021811413D
libRbt.so/2013.1/901 2013/11/27
 42 45  0  0  0  0  0  0  0  0999 V2000
    6.4209   -7.9325   -3.0341 O   0  0  0  0  0  0  0  0  0  0  0  0
    5.2430   -7.1399   -2.9894 C   0  0  0  0  0  0  0  0  0  0  0  0
    5.6122   -5.6585   -3.0769 C   0  0  1  0  0  0  0  0  0  0  0  0
    6.5160   -5.2791   -2.0163 O   0  0  0  0  0  0  0  0  0  0  0  0
    6.3158   -5.2875   -4.3717 C   0  0  2  0  0  0  0  0  0  0  0  0
    6.9724   -3.9789   -3.9651 C   0  0  1  0  0  0  0  0  0  0  0  0
    6.0026   -2.9371   -3.9552 O   0  0  0  0  0  0  0  0  0  0  0  0
    7.4344   -4.2786   -2.5245 C   0  0  2  0  0  0  0  0  0  0  0  0
    3.3454   -7.4861   -7.3561 C   0  0  2  0  0  0  0  0  0  0  0  0
    3.7740   -6.2392   -6.7878 O   0  0  0  0  0  0  0  0  0  0  0  0
    5.0080   -6.3760   -6.0602 C   0  0  2  0  0  0  0  0  0  0  0  0
    5.3794   -5.1203   -5.4544 O   0  0  0  0  0  0  0  0  0  0  0  0
    6.1311   -6.8758   -6.9850 C   0  0  2  0  0  0  0  0  0  0  0  0
    6.6144   -5.8027   -7.8343 N   0  3  0  0  0  0  0  0  0  0  0  0
    5.7174   -8.0856   -7.8311 C   0  0  1  0  0  0  0  0  0  0  0  0
    5.7479   -9.2546   -7.0278 O   0  0  0  0  0  0  0  0  0  0  0  0
    4.3268   -7.9187   -8.4379 C   0  0  2  0  0  0  0  0  0  0  0  0
    4.3648   -6.9509   -9.4802 O   0  0  0  0  0  0  0  0  0  0  0  0
    1.9334   -7.3622   -7.9216 C   0  0  0  0  0  0  0  0  0  0  0  0
    1.8984   -6.3763   -8.9854 N   0  3  0  0  0  0  0  0  0  0  0  0
    9.2862   -6.3563    1.0535 C   0  0  1  0  0  0  0  0  0  0  0  0
    9.3106   -4.9895    0.5917 O   0  0  0  0  0  0  0  0  0  0  0  0
   10.6424   -4.5072    0.2998 C   0  0  2  0  0  0  0  0  0  0  0  0
   11.2397   -5.2052   -0.8207 O   0  0  0  0  0  0  0  0  0  0  0  0
   11.5337   -4.5948    1.5446 C   0  0  2  0  0  0  0  0  0  0  0  0
   12.9114   -4.3101    1.1885 N   0  3  0  0  0  0  0  0  0  0  0  0
   11.4590   -5.9705    2.1975 C   0  0  1  0  0  0  0  0  0  0  0  0
   12.1031   -5.9354    3.4616 O   0  0  0  0  0  0  0  0  0  0  0  0
   10.0350   -6.4759    2.3709 C   0  0  2  0  0  0  0  0  0  0  0  0
   10.0406   -7.8277    2.8059 O   0  0  0  0  0  0  0  0  0  0  0  0
    7.8465   -6.7997    1.2972 C   0  0  0  0  0  0  0  0  0  0  0  0
    7.7647   -7.6643    2.4602 N   0  3  0  0  0  0  0  0  0  0  0  0
   10.9096   -1.6337   -3.1085 C   0  0  2  0  0  0  0  0  0  0  0  0
   12.2282   -2.3809   -3.1415 C   0  0  0  0  0  0  0  0  0  0  0  0
   12.3089   -3.3676   -1.9914 C   0  0  1  0  0  0  0  0  0  0  0  0
   11.2099   -4.4297   -2.0475 C   0  0  2  0  0  0  0  0  0  0  0  0
    9.8190   -3.7780   -2.2253 C   0  0  1  0  0  0  0  0  0  0  0  0
    9.7387   -2.6021   -3.2077 C   0  0  1  0  0  0  0  0  0  0  0  0
   10.8602   -0.6945   -4.2128 N   0  3  0  0  0  0  0  0  0  0  0  0
   13.6189   -3.9890   -1.9947 N   0  3  0  0  0  0  0  0  0  0  0  0
    8.8075   -4.7637   -2.5480 O   0  0  0  0  0  0  0  0  0  0  0  0
    8.5159   -1.8980   -3.0175 O   0  0  0  0  0  0  0  0  0  0  0  0
  1  2  1  0  0  0  0
  3  2  1  6  0  0  0
  3  4  1  0  0  0  0
  3  5  1  0  0  0  0
  4  8  1  0  0  0  0
  5  6  1  0  0  0  0
  5 12  1  6  0  0  0
  6  7  1  1  0  0  0
  6  8  1  0  0  0  0
  8 41  1  6  0  0  0
  9 10  1  0  0  0  0
  9 17  1  0  0  0  0
  9 19  1  6  0  0  0
 10 11  1  0  0  0  0
 11 12  1  6  0  0  0
 11 13  1  0  0  0  0
 13 14  1  6  0  0  0
 13 15  1  0  0  0  0
 15 16  1  1  0  0  0
 15 17  1  0  0  0  0
 17 18  1  6  0  0  0
 19 20  1  0  0  0  0
 21 22  1  0  0  0  0
 21 29  1  0  0  0  0
 21 31  1  1  0  0  0
 22 23  1  0  0  0  0
 23 24  1  6  0  0  0
 23 25  1  0  0  0  0
 25 26  1  6  0  0  0
 25 27  1  0  0  0  0
 27 28  1  1  0  0  0
 27 29  1  0  0  0  0
 29 30  1  6  0  0  0
 31 32  1  0  0  0  0
 33 34  1  0  0  0  0
 33 38  1  0  0  0  0
 33 39  1  6  0  0  0
 34 35  1  0  0  0  0
 35 36  1  0  0  0  0
 35 40  1  6  0  0  0
 36 24  1  1  0  0  0
 36 37  1  0  0  0  0
 37 38  1  0  0  0  0
 37 41  1  6  0  0  0
 38 42  1  1  0  0  0
M  CHG  6  14   1  20   1  26   1  32   1  39   1  40   1
M  END
>  <CHROM.1>
-66.49340874,-57.39397686,-82.36349184,-48.59790359,-143.47870934,61.69687329
160.16343078,71.53824739,-70.34480459,-169.90612014,145.12967564,-142.85595744
102.46283937,77.22377597,175.46855365,-57.69367616,178.13166663,80.06591672
156.80013483,54.54336102,170.63087926,65.80689865,8.02481773,-5.39856412
-2.98857865,2.54930411,-0.70189335,-1.02991363

>  <Name>


>  <RI>
0

>  <Rbt.Current_Directory>
/home/itssahil/PROJECTS/Mol_Feturizer/New_Systems/rnas/1qd3

>  <Rbt.Executable>
rbdock ($Id: //depot/dev/client3/rdock/2013.1/src/exe/rbdock.cxx#4 $)

>  <Rbt.Library>
libRbt.so (2013.1, Build901 2013/11/27)

>  <Rbt.Parameter_File>
/export/apps/rDock/src/rDock_2013.1_src/data/scripts/dock_solv.prm

>  <Rbt.Receptor>
prm/pocket_docking_6.prm

>  <SCORE>
-51.7013

>  <SCORE.INTER>
-42.4347

>  <SCORE.INTER.CONST>
1

>  <SCORE.INTER.POLAR>
-7.30678

>  <SCORE.INTER.ROT>
9

>  <SCORE.INTER.SOLV>
31.8123

>  <SCORE.INTER.VDW>
-24.138

>  <SCORE.INTER.norm>
-1.01035

>  <SCORE.INTRA>
-9.53281

>  <SCORE.INTRA.DIHEDRAL>
-13.6568

>  <SCORE.INTRA.DIHEDRAL.0>
40.6252

>  <SCORE.INTRA.POLAR>
0.102754

>  <SCORE.INTRA.POLAR.0>
-1.20161

>  <SCORE.INTRA.REPUL>
-0.0699942

>  <SCORE.INTRA.REPUL.0>
0.115675

>  <SCORE.INTRA.SOLV>
-1.38659

>  <SCORE.INTRA.SOLV.lig_0>
-154.895

>  <SCORE.INTRA.VDW>
-2.01051

>  <SCORE.INTRA.VDW.0>
2.2925

>  <SCORE.INTRA.norm>
-0.226972

>  <SCORE.RESTR>
0.266182

>  <SCORE.RESTR.CAVITY>
0.266182

>  <SCORE.RESTR.norm>
0.00633767

>  <SCORE.SYSTEM>
0

>  <SCORE.SYSTEM.CONST>
0

>  <SCORE.SYSTEM.DIHEDRAL>
0

>  <SCORE.SYSTEM.SOLV>
0

>  <SCORE.SYSTEM.norm>
0

>  <SCORE.heavy>
42

>  <SCORE.norm>
-1.23098

>  <RMSD>
6.586

$$$$

 OpenBabel11021811413D
libRbt.so/2013.1/901 2013/11/27
 42 45  0  0  0  0  0  0  0  0999 V2000
    6.2453   -4.5790   -6.8809 O   0  0  0  0  0  0  0  0  0  0  0  0
    6.3836   -5.9425   -7.2540 C   0  0  0  0  0  0  0  0  0  0  0  0
    7.7501   -6.4650   -6.8089 C   0  0  1  0  0  0  0  0  0  0  0  0
    8.7432   -5.4166   -6.8236 O   0  0  0  0  0  0  0  0  0  0  0  0
    7.7531   -7.0170   -5.3930 C   0  0  2  0  0  0  0  0  0  0  0  0
    9.2393   -6.9697   -5.0803 C   0  0  1  0  0  0  0  0  0  0  0  0
    9.9006   -8.0541   -5.7225 O   0  0  0  0  0  0  0  0  0  0  0  0
    9.6674   -5.6371   -5.7280 C   0  0  2  0  0  0  0  0  0  0  0  0
    4.0127   -9.5465   -4.0700 C   0  0  2  0  0  0  0  0  0  0  0  0
    5.1628   -9.4444   -4.9234 O   0  0  0  0  0  0  0  0  0  0  0  0
    6.1093   -8.4762   -4.4363 C   0  0  2  0  0  0  0  0  0  0  0  0
    7.2231   -8.3564   -5.3456 O   0  0  0  0  0  0  0  0  0  0  0  0
    6.6054   -8.8608   -3.0319 C   0  0  2  0  0  0  0  0  0  0  0  0
    7.5710   -9.9419   -3.1051 N   0  3  0  0  0  0  0  0  0  0  0  0
    5.4661   -9.2223   -2.0716 C   0  0  1  0  0  0  0  0  0  0  0  0
    4.8411   -8.0337   -1.6139 O   0  0  0  0  0  0  0  0  0  0  0  0
    4.4254  -10.1283   -2.7239 C   0  0  2  0  0  0  0  0  0  0  0  0
    4.9603  -11.4351   -2.8984 O   0  0  0  0  0  0  0  0  0  0  0  0
    2.9322  -10.4032   -4.7238 C   0  0  0  0  0  0  0  0  0  0  0  0
    2.7207   -9.9899   -6.0983 N   0  3  0  0  0  0  0  0  0  0  0  0
    8.0890   -3.6878   -1.4463 C   0  0  1  0  0  0  0  0  0  0  0  0
    8.0780   -3.4737   -2.8732 O   0  0  0  0  0  0  0  0  0  0  0  0
    8.6749   -2.2171   -3.2685 C   0  0  2  0  0  0  0  0  0  0  0  0
   10.0936   -2.1739   -2.9771 O   0  0  0  0  0  0  0  0  0  0  0  0
    7.9401   -1.0405   -2.6146 C   0  0  2  0  0  0  0  0  0  0  0  0
    8.6717    0.1911   -2.8469 N   0  3  0  0  0  0  0  0  0  0  0  0
    7.7680   -1.2455   -1.1137 C   0  0  1  0  0  0  0  0  0  0  0  0
    6.8870   -0.2613   -0.5948 O   0  0  0  0  0  0  0  0  0  0  0  0
    7.2481   -2.6285   -0.7527 C   0  0  2  0  0  0  0  0  0  0  0  0
    7.2889   -2.8195    0.6539 O   0  0  0  0  0  0  0  0  0  0  0  0
    7.4824   -5.0490   -1.1178 C   0  0  0  0  0  0  0  0  0  0  0  0
    6.4586   -5.4023   -2.0840 N   0  3  0  0  0  0  0  0  0  0  0  0
   13.1046   -5.1550   -3.3604 C   0  0  2  0  0  0  0  0  0  0  0  0
   12.7703   -4.6556   -1.9686 C   0  0  0  0  0  0  0  0  0  0  0  0
   12.0000   -3.3503   -2.0430 C   0  0  1  0  0  0  0  0  0  0  0  0
   10.6684   -3.4926   -2.7815 C   0  0  2  0  0  0  0  0  0  0  0  0
   10.8649   -4.1897   -4.1476 C   0  0  1  0  0  0  0  0  0  0  0  0
   11.8359   -5.3776   -4.1724 C   0  0  1  0  0  0  0  0  0  0  0  0
   13.8444   -6.3987   -3.2613 N   0  3  0  0  0  0  0  0  0  0  0  0
   11.7864   -2.8518   -0.6983 N   0  3  0  0  0  0  0  0  0  0  0  0
    9.5977   -4.5728   -4.7361 O   0  0  0  0  0  0  0  0  0  0  0  0
   12.1765   -5.6936   -5.5182 O   0  0  0  0  0  0  0  0  0  0  0  0
  1  2  1  0  0  0  0
  3  2  1  1  0  0  0
  3  4  1  0  0  0  0
  3  5  1  0  0  0  0
  4  8  1  0  0  0  0
  5  6  1  0  0  0  0
  5 12  1  6  0  0  0
  6  7  1  6  0  0  0
  6  8  1  0  0  0  0
  8 41  1  1  0  0  0
  9 10  1  0  0  0  0
  9 17  1  0  0  0  0
  9 19  1  6  0  0  0
 10 11  1  0  0  0  0
 11 12  1  6  0  0  0
 11 13  1  0  0  0  0
 13 14  1  6  0  0  0
 13 15  1  0  0  0  0
 15 16  1  6  0  0  0
 15 17  1  0  0  0  0
 17 18  1  6  0  0  0
 19 20  1  0  0  0  0
 21 22  1  0  0  0  0
 21 29  1  0  0  0  0
 21 31  1  6  0  0  0
 22 23  1  0  0  0  0
 23 24  1  1  0  0  0
 23 25  1  0  0  0  0
 25 26  1  1  0  0  0
 25 27  1  0  0  0  0
 27 28  1  6  0  0  0
 27 29  1  0  0  0  0
 29 30  1  1  0  0  0
 31 32  1  0  0  0  0
 33 34  1  0  0  0  0
 33 38  1  0  0  0  0
 33 39  1  1  0  0  0
 34 35  1  0  0  0  0
 35 36  1  0  0  0  0
 35 40  1  1  0  0  0
 36 24  1  6  0  0  0
 36 37  1  0  0  0  0
 37 38  1  0  0  0  0
 37 41  1  1  0  0  0
 38 42  1  6  0  0  0
M  CHG  6  14   1  20   1  26   1  32   1  39   1  40   1
M  END
>  <CHROM.1>
-169.16095465,-31.13352491,-123.58993151,177.47475204,-142.40966688,-47.73853718
146.55312222,73.71652446,172.49528966,177.93211276,166.11162572,-31.55063255
18.97660958,-161.43769721,-156.16137725,86.18474938,-172.01999206,173.53539221
171.88626741,-56.47908332,-158.11354576,-57.90868609,8.10095183,-5.71127329
-3.53269532,2.23826558,-0.32690573,-2.59916637

>  <Name>


>  <RI>
0

>  <Rbt.Current_Directory>
/home/itssahil/PROJECTS/Mol_Feturizer/New_Systems/rnas/1qd3

>  <Rbt.Executable>
rbdock ($Id: //depot/dev/client3/rdock/2013.1/src/exe/rbdock.cxx#4 $)

>  <Rbt.Library>
libRbt.so (2013.1, Build901 2013/11/27)

>  <Rbt.Parameter_File>
/export/apps/rDock/src/rDock_2013.1_src/data/scripts/dock_solv.prm

>  <Rbt.Receptor>
prm/pocket_docking_4.prm

>  <SCORE>
-35.5302

>  <SCORE.INTER>
-29.8017

>  <SCORE.INTER.CONST>
1

>  <SCORE.INTER.POLAR>
-6.00874

>  <SCORE.INTER.ROT>
9

>  <SCORE.INTER.SOLV>
30.2889

>  <SCORE.INTER.VDW>
-19.535

>  <SCORE.INTER.norm>
-0.709565

>  <SCORE.INTRA>
-10.0272

>  <SCORE.INTRA.DIHEDRAL>
-2.67

>  <SCORE.INTRA.DIHEDRAL.0>
40.6252

>  <SCORE.INTRA.POLAR>
0.0388077

>  <SCORE.INTRA.POLAR.0>
-1.20161

>  <SCORE.INTRA.REPUL>
-0.0596872

>  <SCORE.INTRA.REPUL.0>
0.115675

>  <SCORE.INTRA.SOLV>
-7.24913

>  <SCORE.INTRA.SOLV.lig_0>
-154.895

>  <SCORE.INTRA.VDW>
-4.90113

>  <SCORE.INTRA.VDW.0>
2.2925

>  <SCORE.INTRA.norm>
-0.238743

>  <SCORE.RESTR>
4.29869

>  <SCORE.RESTR.CAVITY>
4.29869

>  <SCORE.RESTR.norm>
0.10235

>  <SCORE.SYSTEM>
0

>  <SCORE.SYSTEM.CONST>
0

>  <SCORE.SYSTEM.DIHEDRAL>
0

>  <SCORE.SYSTEM.SOLV>
0

>  <SCORE.SYSTEM.norm>
0

>  <SCORE.heavy>
42

>  <SCORE.norm>
-0.845958

>  <RMSD>
6.668

$$$$

 OpenBabel11021811413D
libRbt.so/2013.1/901 2013/11/27
 42 45  0  0  0  0  0  0  0  0999 V2000
    7.9384   -5.6961   -7.4251 O   0  0  0  0  0  0  0  0  0  0  0  0
    7.7233   -5.8136   -6.0260 C   0  0  0  0  0  0  0  0  0  0  0  0
    9.0669   -5.8457   -5.2965 C   0  0  1  0  0  0  0  0  0  0  0  0
    9.6603   -4.5307   -5.2309 O   0  0  0  0  0  0  0  0  0  0  0  0
    8.9610   -6.3234   -3.8577 C   0  0  2  0  0  0  0  0  0  0  0  0
   10.2623   -5.7822   -3.2897 C   0  0  1  0  0  0  0  0  0  0  0  0
   11.3463   -6.6088   -3.6990 O   0  0  0  0  0  0  0  0  0  0  0  0
   10.3683   -4.4030   -3.9719 C   0  0  2  0  0  0  0  0  0  0  0  0
    6.3537   -8.8928   -1.3993 C   0  0  2  0  0  0  0  0  0  0  0  0
    6.9355   -8.4914   -2.6490 O   0  0  0  0  0  0  0  0  0  0  0  0
    8.3424   -8.2162   -2.5233 C   0  0  2  0  0  0  0  0  0  0  0  0
    8.8826   -7.7604   -3.7811 O   0  0  0  0  0  0  0  0  0  0  0  0
    9.0986   -9.4650   -2.0384 C   0  0  2  0  0  0  0  0  0  0  0  0
    9.2622  -10.4198   -3.1191 N   0  3  0  0  0  0  0  0  0  0  0  0
    8.4382  -10.1331   -0.8267 C   0  0  1  0  0  0  0  0  0  0  0  0
    8.7447   -9.3931    0.3443 O   0  0  0  0  0  0  0  0  0  0  0  0
    6.9235  -10.2420   -0.9805 C   0  0  2  0  0  0  0  0  0  0  0  0
    6.6040  -11.2315   -1.9517 O   0  0  0  0  0  0  0  0  0  0  0  0
    4.8330   -8.9559   -1.5096 C   0  0  0  0  0  0  0  0  0  0  0  0
    4.3311   -7.8149   -2.2521 N   0  3  0  0  0  0  0  0  0  0  0  0
   11.2609   -6.4117    0.9560 C   0  0  1  0  0  0  0  0  0  0  0  0
   10.8372   -6.1921   -0.4057 O   0  0  0  0  0  0  0  0  0  0  0  0
   10.0132   -5.0145   -0.5663 C   0  0  2  0  0  0  0  0  0  0  0  0
   10.7464   -3.7961   -0.2880 O   0  0  0  0  0  0  0  0  0  0  0  0
    8.7542   -5.1131    0.3037 C   0  0  2  0  0  0  0  0  0  0  0  0
    8.0469   -3.8460    0.2970 N   0  3  0  0  0  0  0  0  0  0  0  0
    9.0895   -5.4922    1.7419 C   0  0  1  0  0  0  0  0  0  0  0  0
    7.8963   -5.8016    2.4453 O   0  0  0  0  0  0  0  0  0  0  0  0
   10.0537   -6.6640    1.8445 C   0  0  2  0  0  0  0  0  0  0  0  0
   10.4697   -6.8445    3.1902 O   0  0  0  0  0  0  0  0  0  0  0  0
   12.1573   -7.6444    1.0318 C   0  0  0  0  0  0  0  0  0  0  0  0
   13.1984   -7.5858    0.0221 N   0  3  0  0  0  0  0  0  0  0  0  0
   12.6528   -0.9201   -2.7767 C   0  0  2  0  0  0  0  0  0  0  0  0
   13.5302   -1.8687   -1.9840 C   0  0  0  0  0  0  0  0  0  0  0  0
   12.7320   -2.5301   -0.8757 C   0  0  1  0  0  0  0  0  0  0  0  0
   11.5650   -3.3640   -1.4064 C   0  0  2  0  0  0  0  0  0  0  0  0
   10.7086   -2.5470   -2.4015 C   0  0  1  0  0  0  0  0  0  0  0  0
   11.4757   -1.6631   -3.3938 C   0  0  1  0  0  0  0  0  0  0  0  0
   13.4397   -0.2977   -3.8243 N   0  3  0  0  0  0  0  0  0  0  0  0
   13.6230   -3.3501   -0.0781 N   0  3  0  0  0  0  0  0  0  0  0  0
    9.7698   -3.3910   -3.1123 O   0  0  0  0  0  0  0  0  0  0  0  0
   10.5842   -0.7323   -3.9988 O   0  0  0  0  0  0  0  0  0  0  0  0
  1  2  1  0  0  0  0
  3  2  1  1  0  0  0
  3  4  1  0  0  0  0
  3  5  1  0  0  0  0
  4  8  1  0  0  0  0
  5  6  1  0  0  0  0
  5 12  1  6  0  0  0
  6  7  1  6  0  0  0
  6  8  1  0  0  0  0
  8 41  1  1  0  0  0
  9 10  1  0  0  0  0
  9 17  1  0  0  0  0
  9 19  1  6  0  0  0
 10 11  1  0  0  0  0
 11 12  1  6  0  0  0
 11 13  1  0  0  0  0
 13 14  1  6  0  0  0
 13 15  1  0  0  0  0
 15 16  1  1  0  0  0
 15 17  1  0  0  0  0
 17 18  1  6  0  0  0
 19 20  1  0  0  0  0
 21 22  1  0  0  0  0
 21 29  1  0  0  0  0
 21 31  1  6  0  0  0
 22 23  1  0  0  0  0
 23 24  1  1  0  0  0
 23 25  1  0  0  0  0
 25 26  1  1  0  0  0
 25 27  1  0  0  0  0
 27 28  1  1  0  0  0
 27 29  1  0  0  0  0
 29 30  1  1  0  0  0
 31 32  1  0  0  0  0
 33 34  1  0  0  0  0
 33 38  1  0  0  0  0
 33 39  1  6  0  0  0
 34 35  1  0  0  0  0
 35 36  1  0  0  0  0
 35 40  1  6  0  0  0
 36 24  1  1  0  0  0
 36 37  1  0  0  0  0
 37 38  1  0  0  0  0
 37 41  1  6  0  0  0
 38 42  1  1  0  0  0
M  CHG  6  14   1  20   1  26   1  32   1  39   1  40   1
M  END
>  <CHROM.1>
-169.75008232,75.74330171,-160.53161795,62.69508797,-139.12473999,-42.33727013
96.99986360,173.03882468,-49.75643157,-174.43870278,175.88572431,49.28154940
80.65989218,-154.25522296,62.13130512,179.00757018,62.12428945,-46.63273416
-62.11462125,-157.57392180,-63.74492099,-21.83606198,9.67699643,-5.89620902
-1.78905375,2.63248508,0.87985021,2.06162364

>  <Name>


>  <RI>
0

>  <Rbt.Current_Directory>
/home/itssahil/PROJECTS/Mol_Feturizer/New_Systems/rnas/1qd3

>  <Rbt.Executable>
rbdock ($Id: //depot/dev/client3/rdock/2013.1/src/exe/rbdock.cxx#4 $)

>  <Rbt.Library>
libRbt.so (2013.1, Build901 2013/11/27)

>  <Rbt.Parameter_File>
/export/apps/rDock/src/rDock_2013.1_src/data/scripts/dock_solv.prm

>  <Rbt.Receptor>
prm/pocket_docking_7.prm

>  <SCORE>
-36.1691

>  <SCORE.INTER>
-17.5082

>  <SCORE.INTER.CONST>
1

>  <SCORE.INTER.POLAR>
-4.91715

>  <SCORE.INTER.ROT>
9

>  <SCORE.INTER.SOLV>
26.2818

>  <SCORE.INTER.VDW>
-13.6423

>  <SCORE.INTER.norm>
-0.416862

>  <SCORE.INTRA>
-18.6608

>  <SCORE.INTRA.DIHEDRAL>
-11.9724

>  <SCORE.INTRA.DIHEDRAL.0>
40.6252

>  <SCORE.INTRA.POLAR>
1.03822

>  <SCORE.INTRA.POLAR.0>
-1.20161

>  <SCORE.INTRA.REPUL>
-0.115675

>  <SCORE.INTRA.REPUL.0>
0.115675

>  <SCORE.INTRA.SOLV>
-11.8913

>  <SCORE.INTRA.SOLV.lig_0>
-154.895

>  <SCORE.INTRA.VDW>
-9.68057

>  <SCORE.INTRA.VDW.0>
2.2925

>  <SCORE.INTRA.norm>
-0.444306

>  <SCORE.RESTR>
0

>  <SCORE.RESTR.CAVITY>
0

>  <SCORE.RESTR.norm>
0

>  <SCORE.SYSTEM>
0

>  <SCORE.SYSTEM.CONST>
0

>  <SCORE.SYSTEM.DIHEDRAL>
0

>  <SCORE.SYSTEM.SOLV>
0

>  <SCORE.SYSTEM.norm>
0

>  <SCORE.heavy>
42

>  <SCORE.norm>
-0.861168

>  <RMSD>
6.713

$$$$

 OpenBabel11021811413D
libRbt.so/2013.1/901 2013/11/27
 42 45  0  0  0  0  0  0  0  0999 V2000
   10.4597   -8.3450   -3.5616 O   0  0  0  0  0  0  0  0  0  0  0  0
    9.1488   -8.5193   -4.0800 C   0  0  0  0  0  0  0  0  0  0  0  0
    8.3610   -7.2156   -3.9444 C   0  0  1  0  0  0  0  0  0  0  0  0
    8.3097   -6.7736   -2.5705 O   0  0  0  0  0  0  0  0  0  0  0  0
    8.9648   -6.0616   -4.7274 C   0  0  2  0  0  0  0  0  0  0  0  0
    8.3166   -4.8807   -4.0244 C   0  0  1  0  0  0  0  0  0  0  0  0
    6.9696   -4.7406   -4.4623 O   0  0  0  0  0  0  0  0  0  0  0  0
    8.3441   -5.3241   -2.5475 C   0  0  2  0  0  0  0  0  0  0  0  0
    8.7678   -9.4101   -7.7258 C   0  0  2  0  0  0  0  0  0  0  0  0
    8.2026   -8.2388   -7.1173 O   0  0  0  0  0  0  0  0  0  0  0  0
    9.2099   -7.2662   -6.7853 C   0  0  2  0  0  0  0  0  0  0  0  0
    8.6164   -6.1294   -6.1242 O   0  0  0  0  0  0  0  0  0  0  0  0
    9.9662   -6.8156   -8.0468 C   0  0  2  0  0  0  0  0  0  0  0  0
    9.1631   -5.8912   -8.8259 N   0  3  0  0  0  0  0  0  0  0  0  0
   10.4319   -7.9884   -8.9178 C   0  0  1  0  0  0  0  0  0  0  0  0
   11.5853   -8.5767   -8.3378 O   0  0  0  0  0  0  0  0  0  0  0  0
    9.3476   -9.0491   -9.0874 C   0  0  2  0  0  0  0  0  0  0  0  0
    8.3209   -8.5614   -9.9433 O   0  0  0  0  0  0  0  0  0  0  0  0
    7.7166  -10.5086   -7.8568 C   0  0  0  0  0  0  0  0  0  0  0  0
    7.2897  -10.9601   -6.5458 N   0  3  0  0  0  0  0  0  0  0  0  0
   12.7182   -3.3788   -1.2851 C   0  0  1  0  0  0  0  0  0  0  0  0
   12.0275   -2.1126   -1.2437 O   0  0  0  0  0  0  0  0  0  0  0  0
   11.7211   -1.5841   -2.5546 C   0  0  2  0  0  0  0  0  0  0  0  0
   10.7693   -2.4134   -3.2660 O   0  0  0  0  0  0  0  0  0  0  0  0
   13.0039   -1.3891   -3.3720 C   0  0  2  0  0  0  0  0  0  0  0  0
   12.6708   -1.0622   -4.7460 N   0  3  0  0  0  0  0  0  0  0  0  0
   13.8816   -2.6356   -3.3522 C   0  0  1  0  0  0  0  0  0  0  0  0
   15.1500   -2.3361   -3.9138 O   0  0  0  0  0  0  0  0  0  0  0  0
   14.0710   -3.2141   -1.9583 C   0  0  2  0  0  0  0  0  0  0  0  0
   14.7341   -4.4678   -2.0302 O   0  0  0  0  0  0  0  0  0  0  0  0
   12.9652   -3.8856    0.1329 C   0  0  0  0  0  0  0  0  0  0  0  0
   13.7441   -2.9256    0.8935 N   0  3  0  0  0  0  0  0  0  0  0  0
    8.0466   -1.8593   -0.0442 C   0  0  2  0  0  0  0  0  0  0  0  0
    7.8561   -1.0171   -1.2902 C   0  0  0  0  0  0  0  0  0  0  0  0
    9.1092   -1.0424   -2.1457 C   0  0  1  0  0  0  0  0  0  0  0  0
    9.4663   -2.4495   -2.6268 C   0  0  2  0  0  0  0  0  0  0  0  0
    9.4854   -3.4494   -1.4476 C   0  0  1  0  0  0  0  0  0  0  0  0
    8.3623   -3.3027   -0.4124 C   0  0  1  0  0  0  0  0  0  0  0  0
    6.8388   -1.8138    0.7576 N   0  3  0  0  0  0  0  0  0  0  0  0
    8.9282   -0.1489   -3.2732 N   0  3  0  0  0  0  0  0  0  0  0  0
    9.5544   -4.8195   -1.9135 O   0  0  0  0  0  0  0  0  0  0  0  0
    8.6908   -4.0370    0.7623 O   0  0  0  0  0  0  0  0  0  0  0  0
  1  2  1  0  0  0  0
  3  2  1  1  0  0  0
  3  4  1  0  0  0  0
  3  5  1  0  0  0  0
  4  8  1  0  0  0  0
  5  6  1  0  0  0  0
  5 12  1  6  0  0  0
  6  7  1  6  0  0  0
  6  8  1  0  0  0  0
  8 41  1  6  0  0  0
  9 10  1  0  0  0  0
  9 17  1  0  0  0  0
  9 19  1  6  0  0  0
 10 11  1  0  0  0  0
 11 12  1  6  0  0  0
 11 13  1  0  0  0  0
 13 14  1  6  0  0  0
 13 15  1  0  0  0  0
 15 16  1  1  0  0  0
 15 17  1  0  0  0  0
 17 18  1  6  0  0  0
 19 20  1  0  0  0  0
 21 22  1  0  0  0  0
 21 29  1  0  0  0  0
 21 31  1  1  0  0  0
 22 23  1  0  0  0  0
 23 24  1  6  0  0  0
 23 25  1  0  0  0  0
 25 26  1  6  0  0  0
 25 27  1  0  0  0  0
 27 28  1  1  0  0  0
 27 29  1  0  0  0  0
 29 30  1  6  0  0  0
 31 32  1  0  0  0  0
 33 34  1  0  0  0  0
 33 38  1  0  0  0  0
 33 39  1  1  0  0  0
 34 35  1  0  0  0  0
 35 36  1  0  0  0  0
 35 40  1  6  0  0  0
 36 24  1  1  0  0  0
 36 37  1  0  0  0  0
 37 38  1  0  0  0  0
 37 41  1  6  0  0  0
 38 42  1  1  0  0  0
M  CHG  6  14   1  20   1  26   1  32   1  39   1  40   1
M  END
>  <CHROM.1>
64.00299832,-57.18200219,-66.76129193,59.88678125,-160.33467876,-65.19169037
109.63660894,64.80390746,-62.87095302,-65.43657167,-68.29154660,-58.44960521
64.83578745,41.42031298,111.62867358,-59.37102252,175.62108860,-178.67694759
132.88029067,157.27034194,-70.89317863,79.09993906,10.03778086,-4.92730071
-3.90121254,-1.83675911,0.33029311,0.87576982

>  <Name>


>  <RI>
0

>  <Rbt.Current_Directory>
/home/itssahil/PROJECTS/Mol_Feturizer/New_Systems/rnas/1qd3

>  <Rbt.Executable>
rbdock ($Id: //depot/dev/client3/rdock/2013.1/src/exe/rbdock.cxx#4 $)

>  <Rbt.Library>
libRbt.so (2013.1, Build901 2013/11/27)

>  <Rbt.Parameter_File>
/export/apps/rDock/src/rDock_2013.1_src/data/scripts/dock_solv.prm

>  <Rbt.Receptor>
prm/pocket_docking_5.prm

>  <SCORE>
-41.0789

>  <SCORE.INTER>
-24.944

>  <SCORE.INTER.CONST>
1

>  <SCORE.INTER.POLAR>
-6.1173

>  <SCORE.INTER.ROT>
9

>  <SCORE.INTER.SOLV>
31.6262

>  <SCORE.INTER.VDW>
-16.3804

>  <SCORE.INTER.norm>
-0.593906

>  <SCORE.INTRA>
-16.1349

>  <SCORE.INTRA.DIHEDRAL>
-18.3416

>  <SCORE.INTRA.DIHEDRAL.0>
40.6252

>  <SCORE.INTRA.POLAR>
1.19923

>  <SCORE.INTRA.POLAR.0>
-1.20161

>  <SCORE.INTRA.REPUL>
-0.115675

>  <SCORE.INTRA.REPUL.0>
0.115675

>  <SCORE.INTRA.SOLV>
-10.8913

>  <SCORE.INTRA.SOLV.lig_0>
-154.895

>  <SCORE.INTRA.VDW>
-5.01741

>  <SCORE.INTRA.VDW.0>
2.2925

>  <SCORE.INTRA.norm>
-0.384164

>  <SCORE.RESTR>
0

>  <SCORE.RESTR.CAVITY>
0

>  <SCORE.RESTR.norm>
0

>  <SCORE.SYSTEM>
0

>  <SCORE.SYSTEM.CONST>
0

>  <SCORE.SYSTEM.DIHEDRAL>
0

>  <SCORE.SYSTEM.SOLV>
0

>  <SCORE.SYSTEM.norm>
0

>  <SCORE.heavy>
42

>  <SCORE.norm>
-0.97807

>  <RMSD>
6.723

$$$$

 OpenBabel11021811413D
libRbt.so/2013.1/901 2013/11/27
 42 45  0  0  0  0  0  0  0  0999 V2000
    4.3070   -9.2735   -2.6211 O   0  0  0  0  0  0  0  0  0  0  0  0
    5.2734   -8.7315   -3.5099 C   0  0  0  0  0  0  0  0  0  0  0  0
    5.6961   -7.3423   -3.0304 C   0  0  1  0  0  0  0  0  0  0  0  0
    6.2900   -7.3991   -1.7152 O   0  0  0  0  0  0  0  0  0  0  0  0
    6.7347   -6.6855   -3.9245 C   0  0  2  0  0  0  0  0  0  0  0  0
    7.2951   -5.6392   -2.9759 C   0  0  1  0  0  0  0  0  0  0  0  0
    6.3901   -4.5450   -2.8779 O   0  0  0  0  0  0  0  0  0  0  0  0
    7.3409   -6.4029   -1.6368 C   0  0  2  0  0  0  0  0  0  0  0  0
    5.0569   -8.7712   -7.3452 C   0  0  2  0  0  0  0  0  0  0  0  0
    5.0179   -7.8399   -6.2531 O   0  0  0  0  0  0  0  0  0  0  0  0
    6.1736   -6.9827   -6.2361 C   0  0  2  0  0  0  0  0  0  0  0  0
    6.1316   -6.1003   -5.0953 O   0  0  0  0  0  0  0  0  0  0  0  0
    6.2648   -6.1685   -7.5381 C   0  0  2  0  0  0  0  0  0  0  0  0
    5.3088   -5.0764   -7.5304 N   0  3  0  0  0  0  0  0  0  0  0  0
    6.0891   -7.0273   -8.7960 C   0  0  1  0  0  0  0  0  0  0  0  0
    7.2925   -7.7320   -9.0568 O   0  0  0  0  0  0  0  0  0  0  0  0
    4.9354   -8.0177   -8.6636 C   0  0  2  0  0  0  0  0  0  0  0  0
    3.6931   -7.3264   -8.7200 O   0  0  0  0  0  0  0  0  0  0  0  0
    3.9458   -9.8082   -7.2077 C   0  0  0  0  0  0  0  0  0  0  0  0
    2.6817   -9.1602   -6.9128 N   0  3  0  0  0  0  0  0  0  0  0  0
    9.6034   -3.9354   -1.9760 C   0  0  1  0  0  0  0  0  0  0  0  0
    9.9868   -3.8600   -0.5870 O   0  0  0  0  0  0  0  0  0  0  0  0
    8.8751   -3.6001    0.3007 C   0  0  2  0  0  0  0  0  0  0  0  0
    7.9261   -4.6950    0.3181 O   0  0  0  0  0  0  0  0  0  0  0  0
    8.1882   -2.2789   -0.0659 C   0  0  2  0  0  0  0  0  0  0  0  0
    6.9571   -2.1346    0.6887 N   0  3  0  0  0  0  0  0  0  0  0  0
    7.8749   -2.1994   -1.5559 C   0  0  1  0  0  0  0  0  0  0  0  0
    7.4625   -0.8826   -1.8880 O   0  0  0  0  0  0  0  0  0  0  0  0
    9.0480   -2.5981   -2.4379 C   0  0  2  0  0  0  0  0  0  0  0  0
    8.6383   -2.6843   -3.7949 O   0  0  0  0  0  0  0  0  0  0  0  0
   10.8221   -4.2532   -2.8377 C   0  0  0  0  0  0  0  0  0  0  0  0
   11.9020   -3.3228   -2.5639 N   0  3  0  0  0  0  0  0  0  0  0  0
   11.1424   -7.2586    1.4058 C   0  0  2  0  0  0  0  0  0  0  0  0
   10.1266   -6.8991    2.4721 C   0  0  0  0  0  0  0  0  0  0  0  0
    9.3100   -5.6940    2.0436 C   0  0  1  0  0  0  0  0  0  0  0  0
    8.5172   -5.9451    0.7602 C   0  0  2  0  0  0  0  0  0  0  0  0
    9.4281   -6.5187   -0.3497 C   0  0  1  0  0  0  0  0  0  0  0  0
   10.4501   -7.5766    0.0873 C   0  0  1  0  0  0  0  0  0  0  0  0
   11.9124   -8.4080    1.8416 N   0  3  0  0  0  0  0  0  0  0  0  0
    8.4216   -5.3177    3.1260 N   0  3  0  0  0  0  0  0  0  0  0  0
    8.6541   -7.0107   -1.4713 O   0  0  0  0  0  0  0  0  0  0  0  0
   11.4243   -7.7568   -0.9352 O   0  0  0  0  0  0  0  0  0  0  0  0
  1  2  1  0  0  0  0
  3  2  1  6  0  0  0
  3  4  1  0  0  0  0
  3  5  1  0  0  0  0
  4  8  1  0  0  0  0
  5  6  1  0  0  0  0
  5 12  1  6  0  0  0
  6  7  1  1  0  0  0
  6  8  1  0  0  0  0
  8 41  1  6  0  0  0
  9 10  1  0  0  0  0
  9 17  1  0  0  0  0
  9 19  1  1  0  0  0
 10 11  1  0  0  0  0
 11 12  1  1  0  0  0
 11 13  1  0  0  0  0
 13 14  1  1  0  0  0
 13 15  1  0  0  0  0
 15 16  1  1  0  0  0
 15 17  1  0  0  0  0
 17 18  1  1  0  0  0
 19 20  1  0  0  0  0
 21 22  1  0  0  0  0
 21 29  1  0  0  0  0
 21 31  1  6  0  0  0
 22 23  1  0  0  0  0
 23 24  1  6  0  0  0
 23 25  1  0  0  0  0
 25 26  1  1  0  0  0
 25 27  1  0  0  0  0
 27 28  1  6  0  0  0
 27 29  1  0  0  0  0
 29 30  1  6  0  0  0
 31 32  1  0  0  0  0
 33 34  1  0  0  0  0
 33 38  1  0  0  0  0
 33 39  1  1  0  0  0
 34 35  1  0  0  0  0
 35 36  1  0  0  0  0
 35 40  1  1  0  0  0
 36 24  1  6  0  0  0
 36 37  1  0  0  0  0
 37 38  1  0  0  0  0
 37 41  1  6  0  0  0
 38 42  1  6  0  0  0
M  CHG  6  14   1  20   1  26   1  32   1  39   1  40   1
M  END
>  <CHROM.1>
-74.12272792,60.75662984,-95.37026459,-59.95900772,-126.83000648,47.62412897
88.01318481,171.89910153,-59.44876142,52.96183152,57.05406716,-52.58095910
60.07830176,48.32975286,-29.88424190,175.93873619,-164.99733386,-129.52043927
52.76954918,-166.51280657,25.08399833,-171.93803686,7.55996916,-5.95441599
-2.85194867,3.07832711,-1.05179353,-0.40491272

>  <Name>


>  <RI>
0

>  <Rbt.Current_Directory>
/home/itssahil/PROJECTS/Mol_Feturizer/New_Systems/rnas/1qd3

>  <Rbt.Executable>
rbdock ($Id: //depot/dev/client3/rdock/2013.1/src/exe/rbdock.cxx#4 $)

>  <Rbt.Library>
libRbt.so (2013.1, Build901 2013/11/27)

>  <Rbt.Parameter_File>
/export/apps/rDock/src/rDock_2013.1_src/data/scripts/dock_solv.prm

>  <Rbt.Receptor>
prm/pocket_docking_6.prm

>  <SCORE>
-45.5788

>  <SCORE.INTER>
-33.4206

>  <SCORE.INTER.CONST>
1

>  <SCORE.INTER.POLAR>
-6.93951

>  <SCORE.INTER.ROT>
9

>  <SCORE.INTER.SOLV>
35.1647

>  <SCORE.INTER.VDW>
-20.4703

>  <SCORE.INTER.norm>
-0.795729

>  <SCORE.INTRA>
-12.1582

>  <SCORE.INTRA.DIHEDRAL>
-11.1072

>  <SCORE.INTRA.DIHEDRAL.0>
40.6252

>  <SCORE.INTRA.POLAR>
0.655612

>  <SCORE.INTRA.POLAR.0>
-1.20161

>  <SCORE.INTRA.REPUL>
-0.115675

>  <SCORE.INTRA.REPUL.0>
0.115675

>  <SCORE.INTRA.SOLV>
-6.4122

>  <SCORE.INTRA.SOLV.lig_0>
-154.895

>  <SCORE.INTRA.VDW>
-5.04918

>  <SCORE.INTRA.VDW.0>
2.2925

>  <SCORE.INTRA.norm>
-0.28948

>  <SCORE.RESTR>
0

>  <SCORE.RESTR.CAVITY>
0

>  <SCORE.RESTR.norm>
0

>  <SCORE.SYSTEM>
0

>  <SCORE.SYSTEM.CONST>
0

>  <SCORE.SYSTEM.DIHEDRAL>
0

>  <SCORE.SYSTEM.SOLV>
0

>  <SCORE.SYSTEM.norm>
0

>  <SCORE.heavy>
42

>  <SCORE.norm>
-1.08521

>  <RMSD>
6.728

$$$$

 OpenBabel11021811413D
libRbt.so/2013.1/901 2013/11/27
 42 45  0  0  0  0  0  0  0  0999 V2000
   10.7611   -8.4116   -6.2562 O   0  0  0  0  0  0  0  0  0  0  0  0
   10.0257   -7.4374   -5.5297 C   0  0  0  0  0  0  0  0  0  0  0  0
   10.0605   -7.7693   -4.0374 C   0  0  1  0  0  0  0  0  0  0  0  0
   11.3744   -7.5474   -3.4806 O   0  0  0  0  0  0  0  0  0  0  0  0
    9.1117   -6.9199   -3.2081 C   0  0  2  0  0  0  0  0  0  0  0  0
    9.7140   -7.1018   -1.8249 C   0  0  1  0  0  0  0  0  0  0  0  0
    9.3513   -8.3767   -1.3064 O   0  0  0  0  0  0  0  0  0  0  0  0
   11.2273   -7.0673   -2.1202 C   0  0  2  0  0  0  0  0  0  0  0  0
    6.0924   -8.0083   -6.4834 C   0  0  2  0  0  0  0  0  0  0  0  0
    6.6716   -8.2856   -5.1993 O   0  0  0  0  0  0  0  0  0  0  0  0
    7.1300   -7.0879   -4.5464 C   0  0  2  0  0  0  0  0  0  0  0  0
    7.7578   -7.4074   -3.2872 O   0  0  0  0  0  0  0  0  0  0  0  0
    5.9643   -6.1080   -4.3287 C   0  0  2  0  0  0  0  0  0  0  0  0
    5.1329   -6.5356   -3.2186 N   0  3  0  0  0  0  0  0  0  0  0  0
    5.1140   -5.8986   -5.5872 C   0  0  1  0  0  0  0  0  0  0  0  0
    5.7920   -5.0221   -6.4731 O   0  0  0  0  0  0  0  0  0  0  0  0
    4.8068   -7.2113   -6.3027 C   0  0  2  0  0  0  0  0  0  0  0  0
    3.8645   -7.9659   -5.5496 O   0  0  0  0  0  0  0  0  0  0  0  0
    5.8259   -9.3040   -7.2444 C   0  0  0  0  0  0  0  0  0  0  0  0
    7.0651  -10.0252   -7.4662 N   0  3  0  0  0  0  0  0  0  0  0  0
   12.9210   -3.0744   -2.2728 C   0  0  1  0  0  0  0  0  0  0  0  0
   12.0111   -2.5883   -1.2639 O   0  0  0  0  0  0  0  0  0  0  0  0
   10.7370   -2.1621   -1.7992 C   0  0  2  0  0  0  0  0  0  0  0  0
    9.9869   -3.2670   -2.3617 O   0  0  0  0  0  0  0  0  0  0  0  0
   10.9308   -1.0437   -2.8302 C   0  0  2  0  0  0  0  0  0  0  0  0
    9.6773   -0.7731   -3.5093 N   0  3  0  0  0  0  0  0  0  0  0  0
   11.9924   -1.4051   -3.8632 C   0  0  1  0  0  0  0  0  0  0  0  0
   12.3060   -0.2635   -4.6459 O   0  0  0  0  0  0  0  0  0  0  0  0
   13.2671   -1.9587   -3.2453 C   0  0  2  0  0  0  0  0  0  0  0  0
   14.1344   -2.4478   -4.2578 O   0  0  0  0  0  0  0  0  0  0  0  0
   14.2202   -3.5418   -1.6229 C   0  0  0  0  0  0  0  0  0  0  0  0
   14.4988   -4.9241   -1.9670 N   0  3  0  0  0  0  0  0  0  0  0  0
   10.1792   -5.1114    1.4672 C   0  0  2  0  0  0  0  0  0  0  0  0
    8.8135   -4.7416    0.9229 C   0  0  0  0  0  0  0  0  0  0  0  0
    8.9472   -3.7571   -0.2241 C   0  0  1  0  0  0  0  0  0  0  0  0
    9.7405   -4.3270   -1.4009 C   0  0  2  0  0  0  0  0  0  0  0  0
   11.0828   -4.9284   -0.9240 C   0  0  1  0  0  0  0  0  0  0  0  0
   11.0416   -5.7371    0.3794 C   0  0  1  0  0  0  0  0  0  0  0  0
   10.0234   -6.0473    2.5643 N   0  3  0  0  0  0  0  0  0  0  0  0
    7.6232   -3.3492   -0.6518 N   0  3  0  0  0  0  0  0  0  0  0  0
   11.7187   -5.7045   -1.9691 O   0  0  0  0  0  0  0  0  0  0  0  0
   12.3647   -5.9313    0.8680 O   0  0  0  0  0  0  0  0  0  0  0  0
  1  2  1  0  0  0  0
  3  2  1  6  0  0  0
  3  4  1  0  0  0  0
  3  5  1  0  0  0  0
  4  8  1  0  0  0  0
  5  6  1  0  0  0  0
  5 12  1  1  0  0  0
  6  7  1  6  0  0  0
  6  8  1  0  0  0  0
  8 41  1  6  0  0  0
  9 10  1  0  0  0  0
  9 17  1  0  0  0  0
  9 19  1  1  0  0  0
 10 11  1  0  0  0  0
 11 12  1  1  0  0  0
 11 13  1  0  0  0  0
 13 14  1  1  0  0  0
 13 15  1  0  0  0  0
 15 16  1  6  0  0  0
 15 17  1  0  0  0  0
 17 18  1  1  0  0  0
 19 20  1  0  0  0  0
 21 22  1  0  0  0  0
 21 29  1  0  0  0  0
 21 31  1  1  0  0  0
 22 23  1  0  0  0  0
 23 24  1  6  0  0  0
 23 25  1  0  0  0  0
 25 26  1  6  0  0  0
 25 27  1  0  0  0  0
 27 28  1  1  0  0  0
 27 29  1  0  0  0  0
 29 30  1  6  0  0  0
 31 32  1  0  0  0  0
 33 34  1  0  0  0  0
 33 38  1  0  0  0  0
 33 39  1  1  0  0  0
 34 35  1  0  0  0  0
 35 36  1  0  0  0  0
 35 40  1  6  0  0  0
 36 24  1  6  0  0  0
 36 37  1  0  0  0  0
 37 38  1  0  0  0  0
 37 41  1  6  0  0  0
 38 42  1  1  0  0  0
M  CHG  6  14   1  20   1  26   1  32   1  39   1  40   1
M  END
>  <CHROM.1>
-177.65698844,70.57157464,-75.08884631,65.66787785,151.79779584,-60.86892161
123.03955944,-110.59297797,-89.11612114,48.69830070,175.72422687,123.61135012
57.75338062,59.65198939,66.03828028,-174.46215235,-179.76678374,-46.76686598
-59.96764179,108.49743810,-81.93824010,74.54444711,9.54876731,-5.41576499
-3.02070206,-2.97788413,0.79411472,2.06756350

>  <Name>


>  <RI>
0

>  <Rbt.Current_Directory>
/home/itssahil/PROJECTS/Mol_Feturizer/New_Systems/rnas/1qd3

>  <Rbt.Executable>
rbdock ($Id: //depot/dev/client3/rdock/2013.1/src/exe/rbdock.cxx#4 $)

>  <Rbt.Library>
libRbt.so (2013.1, Build901 2013/11/27)

>  <Rbt.Parameter_File>
/export/apps/rDock/src/rDock_2013.1_src/data/scripts/dock_solv.prm

>  <Rbt.Receptor>
prm/pocket_docking_4.prm

>  <SCORE>
-30.942

>  <SCORE.INTER>
-20.1725

>  <SCORE.INTER.CONST>
1

>  <SCORE.INTER.POLAR>
-5.72706

>  <SCORE.INTER.ROT>
9

>  <SCORE.INTER.SOLV>
24.7446

>  <SCORE.INTER.VDW>
-12.2063

>  <SCORE.INTER.norm>
-0.480297

>  <SCORE.INTRA>
-11.6817

>  <SCORE.INTRA.DIHEDRAL>
-8.24111

>  <SCORE.INTRA.DIHEDRAL.0>
40.6252

>  <SCORE.INTRA.POLAR>
0.0284349

>  <SCORE.INTRA.POLAR.0>
-1.20161

>  <SCORE.INTRA.REPUL>
-0.115675

>  <SCORE.INTRA.REPUL.0>
0.115675

>  <SCORE.INTRA.SOLV>
-10.1609

>  <SCORE.INTRA.SOLV.lig_0>
-154.895

>  <SCORE.INTRA.VDW>
-1.99901

>  <SCORE.INTRA.VDW.0>
2.2925

>  <SCORE.INTRA.norm>
-0.278136

>  <SCORE.RESTR>
0.912183

>  <SCORE.RESTR.CAVITY>
0.912183

>  <SCORE.RESTR.norm>
0.0217187

>  <SCORE.SYSTEM>
0

>  <SCORE.SYSTEM.CONST>
0

>  <SCORE.SYSTEM.DIHEDRAL>
0

>  <SCORE.SYSTEM.SOLV>
0

>  <SCORE.SYSTEM.norm>
0

>  <SCORE.heavy>
42

>  <SCORE.norm>
-0.736714

>  <RMSD>
6.740

$$$$

 OpenBabel11021811413D
libRbt.so/2013.1/901 2013/11/27
 42 45  0  0  0  0  0  0  0  0999 V2000
    9.2513   -9.1428   -3.8624 O   0  0  0  0  0  0  0  0  0  0  0  0
    8.0003   -8.4835   -3.7283 C   0  0  0  0  0  0  0  0  0  0  0  0
    8.1097   -7.3732   -2.6825 C   0  0  1  0  0  0  0  0  0  0  0  0
    9.0245   -6.3397   -3.1077 O   0  0  0  0  0  0  0  0  0  0  0  0
    6.7906   -6.6702   -2.4086 C   0  0  2  0  0  0  0  0  0  0  0  0
    7.2895   -5.3807   -1.7783 C   0  0  1  0  0  0  0  0  0  0  0  0
    7.6748   -5.6223   -0.4296 O   0  0  0  0  0  0  0  0  0  0  0  0
    8.5349   -5.0610   -2.6299 C   0  0  2  0  0  0  0  0  0  0  0  0
    7.6895   -8.1717    1.6190 C   0  0  2  0  0  0  0  0  0  0  0  0
    6.8778   -7.4649    0.6687 O   0  0  0  0  0  0  0  0  0  0  0  0
    6.7297   -8.1968   -0.5614 C   0  0  2  0  0  0  0  0  0  0  0  0
    5.9589   -7.4344   -1.5134 O   0  0  0  0  0  0  0  0  0  0  0  0
    6.0648   -9.5601   -0.3053 C   0  0  2  0  0  0  0  0  0  0  0  0
    4.6381   -9.4046   -0.0891 N   0  3  0  0  0  0  0  0  0  0  0  0
    6.7034  -10.3299    0.8568 C   0  0  1  0  0  0  0  0  0  0  0  0
    7.9209  -10.9142    0.4219 O   0  0  0  0  0  0  0  0  0  0  0  0
    6.9683   -9.4369    2.0659 C   0  0  2  0  0  0  0  0  0  0  0  0
    5.7397   -9.1021    2.7007 O   0  0  0  0  0  0  0  0  0  0  0  0
    8.0163   -7.2816    2.8146 C   0  0  0  0  0  0  0  0  0  0  0  0
    8.3693   -5.9462    2.3706 N   0  3  0  0  0  0  0  0  0  0  0  0
   11.8586   -0.4253   -1.8806 C   0  0  1  0  0  0  0  0  0  0  0  0
   11.3067   -1.7234   -1.5762 O   0  0  0  0  0  0  0  0  0  0  0  0
   10.1169   -2.0328   -2.3377 C   0  0  2  0  0  0  0  0  0  0  0  0
   10.3955   -2.1583   -3.7541 O   0  0  0  0  0  0  0  0  0  0  0  0
    9.0234   -0.9890   -2.0797 C   0  0  2  0  0  0  0  0  0  0  0  0
    7.9206   -1.1886   -3.0015 N   0  3  0  0  0  0  0  0  0  0  0  0
    9.5524    0.4328   -2.2317 C   0  0  1  0  0  0  0  0  0  0  0  0
    8.5842    1.3562   -1.7583 O   0  0  0  0  0  0  0  0  0  0  0  0
   10.8681    0.6646   -1.5047 C   0  0  2  0  0  0  0  0  0  0  0  0
   11.3982    1.9392   -1.8378 O   0  0  0  0  0  0  0  0  0  0  0  0
   13.1304   -0.1952   -1.0693 C   0  0  0  0  0  0  0  0  0  0  0  0
   14.0981   -1.2474   -1.3208 N   0  3  0  0  0  0  0  0  0  0  0  0
   10.3782   -5.3106   -6.6112 C   0  0  2  0  0  0  0  0  0  0  0  0
   11.6756   -5.0153   -5.8847 C   0  0  0  0  0  0  0  0  0  0  0  0
   11.6185   -3.6478   -5.2294 C   0  0  1  0  0  0  0  0  0  0  0  0
   10.5058   -3.5400   -4.1857 C   0  0  2  0  0  0  0  0  0  0  0  0
    9.1552   -4.0205   -4.7652 C   0  0  1  0  0  0  0  0  0  0  0  0
    9.2004   -5.2756   -5.6467 C   0  0  1  0  0  0  0  0  0  0  0  0
   10.4608   -6.6187   -7.2325 N   0  3  0  0  0  0  0  0  0  0  0  0
   12.9074   -3.3573   -4.6321 N   0  3  0  0  0  0  0  0  0  0  0  0
    8.1578   -4.1797   -3.7266 O   0  0  0  0  0  0  0  0  0  0  0  0
    7.9817   -5.3990   -6.3724 O   0  0  0  0  0  0  0  0  0  0  0  0
  1  2  1  0  0  0  0
  3  2  1  6  0  0  0
  3  4  1  0  0  0  0
  3  5  1  0  0  0  0
  4  8  1  0  0  0  0
  5  6  1  0  0  0  0
  5 12  1  1  0  0  0
  6  7  1  1  0  0  0
  6  8  1  0  0  0  0
  8 41  1  6  0  0  0
  9 10  1  0  0  0  0
  9 17  1  0  0  0  0
  9 19  1  1  0  0  0
 10 11  1  0  0  0  0
 11 12  1  6  0  0  0
 11 13  1  0  0  0  0
 13 14  1  1  0  0  0
 13 15  1  0  0  0  0
 15 16  1  6  0  0  0
 15 17  1  0  0  0  0
 17 18  1  6  0  0  0
 19 20  1  0  0  0  0
 21 22  1  0  0  0  0
 21 29  1  0  0  0  0
 21 31  1  1  0  0  0
 22 23  1  0  0  0  0
 23 24  1  6  0  0  0
 23 25  1  0  0  0  0
 25 26  1  6  0  0  0
 25 27  1  0  0  0  0
 27 28  1  1  0  0  0
 27 29  1  0  0  0  0
 29 30  1  6  0  0  0
 31 32  1  0  0  0  0
 33 34  1  0  0  0  0
 33 38  1  0  0  0  0
 33 39  1  1  0  0  0
 34 35  1  0  0  0  0
 35 36  1  0  0  0  0
 35 40  1  1  0  0  0
 36 24  1  6  0  0  0
 36 37  1  0  0  0  0
 37 38  1  0  0  0  0
 37 41  1  1  0  0  0
 38 42  1  6  0  0  0
M  CHG  6  14   1  20   1  26   1  32   1  39   1  40   1
M  END
>  <CHROM.1>
66.96059025,64.56057404,31.92547768,-67.28046177,-50.69131976,-43.01168229
94.51158839,-77.13826987,-169.50224618,-63.03430939,-72.08579623,56.74657616
100.26772901,-142.01169720,41.77587000,65.34368122,-67.32562729,-40.22054864
174.96239315,-178.41818375,-55.40681961,-62.78205687,8.96869249,-4.98137503
-2.08225462,-2.94100751,1.09227241,0.95310800

>  <Name>


>  <RI>
0

>  <Rbt.Current_Directory>
/home/itssahil/PROJECTS/Mol_Feturizer/New_Systems/rnas/1qd3

>  <Rbt.Executable>
rbdock ($Id: //depot/dev/client3/rdock/2013.1/src/exe/rbdock.cxx#4 $)

>  <Rbt.Library>
libRbt.so (2013.1, Build901 2013/11/27)

>  <Rbt.Parameter_File>
/export/apps/rDock/src/rDock_2013.1_src/data/scripts/dock_solv.prm

>  <Rbt.Receptor>
prm/pocket_docking_5.prm

>  <SCORE>
-44.0474

>  <SCORE.INTER>
-26.2848

>  <SCORE.INTER.CONST>
1

>  <SCORE.INTER.POLAR>
-4.81202

>  <SCORE.INTER.ROT>
9

>  <SCORE.INTER.SOLV>
29.4469

>  <SCORE.INTER.VDW>
-20.8987

>  <SCORE.INTER.norm>
-0.625828

>  <SCORE.INTRA>
-19.748

>  <SCORE.INTRA.DIHEDRAL>
-14.7619

>  <SCORE.INTRA.DIHEDRAL.0>
40.6252

>  <SCORE.INTRA.POLAR>
-1.58881

>  <SCORE.INTRA.POLAR.0>
-1.20161

>  <SCORE.INTRA.REPUL>
-0.115675

>  <SCORE.INTRA.REPUL.0>
0.115675

>  <SCORE.INTRA.SOLV>
-5.20219

>  <SCORE.INTRA.SOLV.lig_0>
-154.895

>  <SCORE.INTRA.VDW>
-3.78564

>  <SCORE.INTRA.VDW.0>
2.2925

>  <SCORE.INTRA.norm>
-0.470191

>  <SCORE.RESTR>
1.98538

>  <SCORE.RESTR.CAVITY>
1.98538

>  <SCORE.RESTR.norm>
0.0472708

>  <SCORE.SYSTEM>
0

>  <SCORE.SYSTEM.CONST>
0

>  <SCORE.SYSTEM.DIHEDRAL>
0

>  <SCORE.SYSTEM.SOLV>
0

>  <SCORE.SYSTEM.norm>
0

>  <SCORE.heavy>
42

>  <SCORE.norm>
-1.04875

>  <RMSD>
6.788

$$$$

 OpenBabel11021811413D
libRbt.so/2013.1/901 2013/11/27
 42 45  0  0  0  0  0  0  0  0999 V2000
    7.3761   -5.6587   -5.5710 O   0  0  0  0  0  0  0  0  0  0  0  0
    8.5924   -6.3120   -5.2371 C   0  0  0  0  0  0  0  0  0  0  0  0
    9.7788   -5.4461   -5.6626 C   0  0  1  0  0  0  0  0  0  0  0  0
    9.7998   -4.1941   -4.9431 O   0  0  0  0  0  0  0  0  0  0  0  0
   11.1264   -6.0970   -5.3985 C   0  0  2  0  0  0  0  0  0  0  0  0
   12.0337   -4.8786   -5.4310 C   0  0  1  0  0  0  0  0  0  0  0  0
   12.2599   -4.4833   -6.7795 O   0  0  0  0  0  0  0  0  0  0  0  0
   11.1801   -3.8159   -4.7095 C   0  0  2  0  0  0  0  0  0  0  0  0
   10.1059  -10.3109   -7.3893 C   0  0  2  0  0  0  0  0  0  0  0  0
   10.8973   -9.1145   -7.4508 O   0  0  0  0  0  0  0  0  0  0  0  0
   10.6956   -8.2767   -6.2983 C   0  0  2  0  0  0  0  0  0  0  0  0
   11.4593   -7.0586   -6.4191 O   0  0  0  0  0  0  0  0  0  0  0  0
   11.0816   -9.0236   -5.0100 C   0  0  2  0  0  0  0  0  0  0  0  0
   12.5241   -9.0820   -4.8613 N   0  3  0  0  0  0  0  0  0  0  0  0
   10.4757  -10.4296   -4.9275 C   0  0  1  0  0  0  0  0  0  0  0  0
    9.1092  -10.3326   -4.5585 O   0  0  0  0  0  0  0  0  0  0  0  0
   10.5963  -11.1896   -6.2456 C   0  0  2  0  0  0  0  0  0  0  0  0
   11.9499  -11.5691   -6.4652 O   0  0  0  0  0  0  0  0  0  0  0  0
   10.1642  -11.0631   -8.7159 C   0  0  0  0  0  0  0  0  0  0  0  0
    9.6169  -10.2486   -9.7845 N   0  3  0  0  0  0  0  0  0  0  0  0
   14.0543   -2.1389   -1.7562 C   0  0  1  0  0  0  0  0  0  0  0  0
   12.8012   -1.9791   -1.0588 O   0  0  0  0  0  0  0  0  0  0  0  0
   12.0800   -0.7859   -1.4428 C   0  0  2  0  0  0  0  0  0  0  0  0
   11.6421   -0.8362   -2.8232 O   0  0  0  0  0  0  0  0  0  0  0  0
   12.9250    0.4657   -1.1761 C   0  0  2  0  0  0  0  0  0  0  0  0
   12.2822    1.6303   -1.7559 N   0  3  0  0  0  0  0  0  0  0  0  0
   14.3308    0.3313   -1.7505 C   0  0  1  0  0  0  0  0  0  0  0  0
   15.1426    1.3968   -1.2816 O   0  0  0  0  0  0  0  0  0  0  0  0
   14.9936   -0.9949   -1.4110 C   0  0  2  0  0  0  0  0  0  0  0  0
   16.2129   -1.1344   -2.1256 O   0  0  0  0  0  0  0  0  0  0  0  0
   14.7293   -3.4382   -1.3263 C   0  0  0  0  0  0  0  0  0  0  0  0
   13.9258   -4.5854   -1.7072 N   0  3  0  0  0  0  0  0  0  0  0  0
    8.2441   -3.0218   -1.4905 C   0  0  2  0  0  0  0  0  0  0  0  0
    8.0077   -1.7245   -2.2384 C   0  0  0  0  0  0  0  0  0  0  0  0
    9.2778   -0.8950   -2.2784 C   0  0  1  0  0  0  0  0  0  0  0  0
   10.4239   -1.6057   -2.9996 C   0  0  2  0  0  0  0  0  0  0  0  0
   10.6207   -3.0373   -2.4495 C   0  0  1  0  0  0  0  0  0  0  0  0
    9.3435   -3.8365   -2.1586 C   0  0  1  0  0  0  0  0  0  0  0  0
    7.0155   -3.7922   -1.4617 N   0  3  0  0  0  0  0  0  0  0  0  0
    8.9896    0.3779   -2.9100 N   0  3  0  0  0  0  0  0  0  0  0  0
   11.5097   -3.8125   -3.2907 O   0  0  0  0  0  0  0  0  0  0  0  0
    9.6565   -4.9699   -1.3558 O   0  0  0  0  0  0  0  0  0  0  0  0
  1  2  1  0  0  0  0
  3  2  1  1  0  0  0
  3  4  1  0  0  0  0
  3  5  1  0  0  0  0
  4  8  1  0  0  0  0
  5  6  1  0  0  0  0
  5 12  1  6  0  0  0
  6  7  1  6  0  0  0
  6  8  1  0  0  0  0
  8 41  1  1  0  0  0
  9 10  1  0  0  0  0
  9 17  1  0  0  0  0
  9 19  1  6  0  0  0
 10 11  1  0  0  0  0
 11 12  1  6  0  0  0
 11 13  1  0  0  0  0
 13 14  1  6  0  0  0
 13 15  1  0  0  0  0
 15 16  1  6  0  0  0
 15 17  1  0  0  0  0
 17 18  1  6  0  0  0
 19 20  1  0  0  0  0
 21 22  1  0  0  0  0
 21 29  1  0  0  0  0
 21 31  1  1  0  0  0
 22 23  1  0  0  0  0
 23 24  1  6  0  0  0
 23 25  1  0  0  0  0
 25 26  1  6  0  0  0
 25 27  1  0  0  0  0
 27 28  1  1  0  0  0
 27 29  1  0  0  0  0
 29 30  1  6  0  0  0
 31 32  1  0  0  0  0
 33 34  1  0  0  0  0
 33 38  1  0  0  0  0
 33 39  1  6  0  0  0
 34 35  1  0  0  0  0
 35 36  1  0  0  0  0
 35 40  1  6  0  0  0
 36 24  1  1  0  0  0
 36 37  1  0  0  0  0
 37 38  1  0  0  0  0
 37 41  1  6  0  0  0
 38 42  1  1  0  0  0
M  CHG  6  14   1  20   1  26   1  32   1  39   1  40   1
M  END
>  <CHROM.1>
-175.97767912,63.42098446,-74.24079728,-52.64805570,-52.48817977,-61.79436892
170.66336493,178.17025414,-58.00076490,-67.39343123,-66.22840174,63.82035369
81.11363926,65.24301941,64.86157609,65.18924596,61.52093108,138.46789077
-122.97302928,-72.81834112,-50.90540161,179.47062908,11.16995496,-4.70254890
-3.92472371,1.77837156,0.03048360,-2.64539371

>  <Name>


>  <RI>
0

>  <Rbt.Current_Directory>
/home/itssahil/PROJECTS/Mol_Feturizer/New_Systems/rnas/1qd3

>  <Rbt.Executable>
rbdock ($Id: //depot/dev/client3/rdock/2013.1/src/exe/rbdock.cxx#4 $)

>  <Rbt.Library>
libRbt.so (2013.1, Build901 2013/11/27)

>  <Rbt.Parameter_File>
/export/apps/rDock/src/rDock_2013.1_src/data/scripts/dock_solv.prm

>  <Rbt.Receptor>
prm/pocket_docking_6.prm

>  <SCORE>
-39.0166

>  <SCORE.INTER>
-12.1925

>  <SCORE.INTER.CONST>
1

>  <SCORE.INTER.POLAR>
-4.0398

>  <SCORE.INTER.ROT>
9

>  <SCORE.INTER.SOLV>
22.1585

>  <SCORE.INTER.VDW>
-11.6485

>  <SCORE.INTER.norm>
-0.290297

>  <SCORE.INTRA>
-26.8374

>  <SCORE.INTRA.DIHEDRAL>
-26.398

>  <SCORE.INTRA.DIHEDRAL.0>
40.6252

>  <SCORE.INTRA.POLAR>
-0.133263

>  <SCORE.INTRA.POLAR.0>
-1.20161

>  <SCORE.INTRA.REPUL>
-0.115675

>  <SCORE.INTRA.REPUL.0>
0.115675

>  <SCORE.INTRA.SOLV>
-10.5798

>  <SCORE.INTRA.SOLV.lig_0>
-154.895

>  <SCORE.INTRA.VDW>
-7.31699

>  <SCORE.INTRA.VDW.0>
2.2925

>  <SCORE.INTRA.norm>
-0.638985

>  <SCORE.RESTR>
0.0132002

>  <SCORE.RESTR.CAVITY>
0.0132002

>  <SCORE.RESTR.norm>
0.00031429

>  <SCORE.SYSTEM>
0

>  <SCORE.SYSTEM.CONST>
0

>  <SCORE.SYSTEM.DIHEDRAL>
0

>  <SCORE.SYSTEM.SOLV>
0

>  <SCORE.SYSTEM.norm>
0

>  <SCORE.heavy>
42

>  <SCORE.norm>
-0.928967

>  <RMSD>
6.863

$$$$

 OpenBabel11021811413D
libRbt.so/2013.1/901 2013/11/27
 42 45  0  0  0  0  0  0  0  0999 V2000
    7.8615   -7.6091   -6.9460 O   0  0  0  0  0  0  0  0  0  0  0  0
    7.7712   -6.5365   -6.0191 C   0  0  0  0  0  0  0  0  0  0  0  0
    9.1388   -5.8703   -5.8636 C   0  0  1  0  0  0  0  0  0  0  0  0
    9.0196   -4.5585   -5.2713 O   0  0  0  0  0  0  0  0  0  0  0  0
   10.0884   -6.6446   -4.9646 C   0  0  2  0  0  0  0  0  0  0  0  0
   11.0857   -5.5542   -4.6105 C   0  0  1  0  0  0  0  0  0  0  0  0
   11.9712   -5.3388   -5.7039 O   0  0  0  0  0  0  0  0  0  0  0  0
   10.1735   -4.3246   -4.4249 C   0  0  2  0  0  0  0  0  0  0  0  0
    9.6685  -11.1611   -6.4480 C   0  0  2  0  0  0  0  0  0  0  0  0
   10.4616   -9.9643   -6.4548 O   0  0  0  0  0  0  0  0  0  0  0  0
    9.9151   -8.9522   -5.5901 C   0  0  2  0  0  0  0  0  0  0  0  0
   10.7016   -7.7450   -5.6648 O   0  0  0  0  0  0  0  0  0  0  0  0
    9.8477   -9.4569   -4.1385 C   0  0  2  0  0  0  0  0  0  0  0  0
   11.1629   -9.4372   -3.5250 N   0  3  0  0  0  0  0  0  0  0  0  0
    9.2189  -10.8499   -4.0164 C   0  0  1  0  0  0  0  0  0  0  0  0
    7.8089  -10.7416   -4.1299 O   0  0  0  0  0  0  0  0  0  0  0  0
    9.7440  -11.8162   -5.0748 C   0  0  2  0  0  0  0  0  0  0  0  0
   11.0877  -12.1781   -4.7780 O   0  0  0  0  0  0  0  0  0  0  0  0
   10.1375  -12.1233   -7.5356 C   0  0  0  0  0  0  0  0  0  0  0  0
    9.0685  -13.0329   -7.9027 N   0  3  0  0  0  0  0  0  0  0  0  0
    8.1792   -6.5080   -0.2122 C   0  0  1  0  0  0  0  0  0  0  0  0
    8.6149   -6.0429   -1.5068 O   0  0  0  0  0  0  0  0  0  0  0  0
    7.5646   -5.4052   -2.2695 C   0  0  2  0  0  0  0  0  0  0  0  0
    7.1157   -4.1736   -1.6521 O   0  0  0  0  0  0  0  0  0  0  0  0
    6.3944   -6.3713   -2.4906 C   0  0  2  0  0  0  0  0  0  0  0  0
    5.2682   -5.6614   -3.0681 N   0  3  0  0  0  0  0  0  0  0  0  0
    5.9552   -7.0340   -1.1897 C   0  0  1  0  0  0  0  0  0  0  0  0
    5.0419   -8.0829   -1.4722 O   0  0  0  0  0  0  0  0  0  0  0  0
    7.1159   -7.5821   -0.3737 C   0  0  2  0  0  0  0  0  0  0  0  0
    6.6627   -8.0132    0.9012 O   0  0  0  0  0  0  0  0  0  0  0  0
    9.3522   -7.1274    0.5422 C   0  0  0  0  0  0  0  0  0  0  0  0
    9.2307   -6.8869    1.9684 N   0  3  0  0  0  0  0  0  0  0  0  0
    9.2663   -0.5354   -2.1406 C   0  0  2  0  0  0  0  0  0  0  0  0
    8.6599   -0.8271   -0.7822 C   0  0  0  0  0  0  0  0  0  0  0  0
    7.6175   -1.9246   -0.8899 C   0  0  1  0  0  0  0  0  0  0  0  0
    8.2015   -3.2451   -1.3939 C   0  0  2  0  0  0  0  0  0  0  0  0
    9.0275   -3.0287   -2.6830 C   0  0  1  0  0  0  0  0  0  0  0  0
    9.9224   -1.7828   -2.7170 C   0  0  1  0  0  0  0  0  0  0  0  0
   10.2536    0.5192   -2.0112 N   0  3  0  0  0  0  0  0  0  0  0  0
    6.9889   -2.1062    0.4040 N   0  3  0  0  0  0  0  0  0  0  0  0
    9.8024   -4.2051   -3.0215 O   0  0  0  0  0  0  0  0  0  0  0  0
   10.3449   -1.5293   -4.0528 O   0  0  0  0  0  0  0  0  0  0  0  0
  1  2  1  0  0  0  0
  3  2  1  1  0  0  0
  3  4  1  0  0  0  0
  3  5  1  0  0  0  0
  4  8  1  0  0  0  0
  5  6  1  0  0  0  0
  5 12  1  6  0  0  0
  6  7  1  6  0  0  0
  6  8  1  0  0  0  0
  8 41  1  1  0  0  0
  9 10  1  0  0  0  0
  9 17  1  0  0  0  0
  9 19  1  6  0  0  0
 10 11  1  0  0  0  0
 11 12  1  1  0  0  0
 11 13  1  0  0  0  0
 13 14  1  6  0  0  0
 13 15  1  0  0  0  0
 15 16  1  6  0  0  0
 15 17  1  0  0  0  0
 17 18  1  1  0  0  0
 19 20  1  0  0  0  0
 21 22  1  0  0  0  0
 21 29  1  0  0  0  0
 21 31  1  6  0  0  0
 22 23  1  0  0  0  0
 23 24  1  1  0  0  0
 23 25  1  0  0  0  0
 25 26  1  1  0  0  0
 25 27  1  0  0  0  0
 27 28  1  6  0  0  0
 27 29  1  0  0  0  0
 29 30  1  1  0  0  0
 31 32  1  0  0  0  0
 33 34  1  0  0  0  0
 33 38  1  0  0  0  0
 33 39  1  1  0  0  0
 34 35  1  0  0  0  0
 35 36  1  0  0  0  0
 35 40  1  1  0  0  0
 36 24  1  6  0  0  0
 36 37  1  0  0  0  0
 37 38  1  0  0  0  0
 37 41  1  1  0  0  0
 38 42  1  6  0  0  0
M  CHG  6  14   1  20   1  26   1  32   1  39   1  40   1
M  END
>  <CHROM.1>
-59.78460522,162.42099559,-88.39807149,176.60859677,-67.72999303,-156.69215425
171.77248918,-61.57895256,-59.34544424,-178.25375626,-57.05362645,146.44157619
54.16210991,173.78905052,50.38035263,-177.64845607,-69.83304429,-179.73234233
53.27756358,95.13517128,156.47540805,-57.62327375,8.86600436,-6.49175419
-3.30804952,-1.34168381,1.02401657,0.28736030

>  <Name>


>  <RI>
0

>  <Rbt.Current_Directory>
/home/itssahil/PROJECTS/Mol_Feturizer/New_Systems/rnas/1qd3

>  <Rbt.Executable>
rbdock ($Id: //depot/dev/client3/rdock/2013.1/src/exe/rbdock.cxx#4 $)

>  <Rbt.Library>
libRbt.so (2013.1, Build901 2013/11/27)

>  <Rbt.Parameter_File>
/export/apps/rDock/src/rDock_2013.1_src/data/scripts/dock_solv.prm

>  <Rbt.Receptor>
prm/pocket_docking_7.prm

>  <SCORE>
-48.7314

>  <SCORE.INTER>
-26.8738

>  <SCORE.INTER.CONST>
1

>  <SCORE.INTER.POLAR>
-5.64909

>  <SCORE.INTER.ROT>
9

>  <SCORE.INTER.SOLV>
25.1675

>  <SCORE.INTER.VDW>
-17.0747

>  <SCORE.INTER.norm>
-0.639853

>  <SCORE.INTRA>
-21.8576

>  <SCORE.INTRA.DIHEDRAL>
-23.0934

>  <SCORE.INTRA.DIHEDRAL.0>
40.6252

>  <SCORE.INTRA.POLAR>
1.08961

>  <SCORE.INTRA.POLAR.0>
-1.20161

>  <SCORE.INTRA.REPUL>
-0.0710157

>  <SCORE.INTRA.REPUL.0>
0.115675

>  <SCORE.INTRA.SOLV>
-12.7132

>  <SCORE.INTRA.SOLV.lig_0>
-154.895

>  <SCORE.INTRA.VDW>
-7.30392

>  <SCORE.INTRA.VDW.0>
2.2925

>  <SCORE.INTRA.norm>
-0.520419

>  <SCORE.RESTR>
0

>  <SCORE.RESTR.CAVITY>
0

>  <SCORE.RESTR.norm>
0

>  <SCORE.SYSTEM>
0

>  <SCORE.SYSTEM.CONST>
0

>  <SCORE.SYSTEM.DIHEDRAL>
0

>  <SCORE.SYSTEM.SOLV>
0

>  <SCORE.SYSTEM.norm>
0

>  <SCORE.heavy>
42

>  <SCORE.norm>
-1.16027

>  <RMSD>
6.928

$$$$

 OpenBabel11021811413D
libRbt.so/2013.1/901 2013/11/27
 42 45  0  0  0  0  0  0  0  0999 V2000
    8.2908   -0.4424   -2.5429 O   0  0  0  0  0  0  0  0  0  0  0  0
    8.1254    0.3880   -1.4024 C   0  0  0  0  0  0  0  0  0  0  0  0
    9.2398    1.4342   -1.3578 C   0  0  1  0  0  0  0  0  0  0  0  0
    9.0654    2.3401   -0.2467 O   0  0  0  0  0  0  0  0  0  0  0  0
   10.6251    0.8332   -1.1872 C   0  0  2  0  0  0  0  0  0  0  0  0
   11.3929    2.0447   -0.6854 C   0  0  1  0  0  0  0  0  0  0  0  0
   11.6817    2.9155   -1.7736 O   0  0  0  0  0  0  0  0  0  0  0  0
   10.3726    2.7094    0.2611 C   0  0  2  0  0  0  0  0  0  0  0  0
   11.9210   -3.1917   -1.8634 C   0  0  2  0  0  0  0  0  0  0  0  0
   11.1374   -2.0116   -2.0976 O   0  0  0  0  0  0  0  0  0  0  0  0
   11.9611   -0.8429   -2.2604 C   0  0  2  0  0  0  0  0  0  0  0  0
   11.1425    0.3321   -2.4355 O   0  0  0  0  0  0  0  0  0  0  0  0
   12.9142   -1.0128   -3.4559 C   0  0  2  0  0  0  0  0  0  0  0  0
   12.2053   -0.8319   -4.7093 N   0  3  0  0  0  0  0  0  0  0  0  0
   13.6546   -2.3554   -3.4465 C   0  0  1  0  0  0  0  0  0  0  0  0
   14.7146   -2.3021   -2.5050 O   0  0  0  0  0  0  0  0  0  0  0  0
   12.7308   -3.5230   -3.1103 C   0  0  2  0  0  0  0  0  0  0  0  0
   11.8601   -3.7839   -4.2049 O   0  0  0  0  0  0  0  0  0  0  0  0
   11.0250   -4.3629   -1.4704 C   0  0  0  0  0  0  0  0  0  0  0  0
   11.8245   -5.4705   -0.9816 N   0  3  0  0  0  0  0  0  0  0  0  0
   11.7478    6.6953    0.6075 C   0  0  1  0  0  0  0  0  0  0  0  0
   11.8899    5.2615    0.5283 O   0  0  0  0  0  0  0  0  0  0  0  0
   12.4215    4.6709    1.7366 C   0  0  2  0  0  0  0  0  0  0  0  0
   11.5128    4.8134    2.8564 O   0  0  0  0  0  0  0  0  0  0  0  0
   13.7994    5.2587    2.0646 C   0  0  2  0  0  0  0  0  0  0  0  0
   14.2253    4.8187    3.3802 N   0  3  0  0  0  0  0  0  0  0  0  0
   13.7874    6.7828    2.0255 C   0  0  1  0  0  0  0  0  0  0  0  0
   15.1172    7.2733    2.0989 O   0  0  0  0  0  0  0  0  0  0  0  0
   13.1098    7.3461    0.7858 C   0  0  2  0  0  0  0  0  0  0  0  0
   12.9647    8.7541    0.8993 O   0  0  0  0  0  0  0  0  0  0  0  0
   11.1437    7.2326   -0.6867 C   0  0  0  0  0  0  0  0  0  0  0  0
   10.7765    8.6293   -0.5416 N   0  3  0  0  0  0  0  0  0  0  0  0
    7.5771    3.4021    3.6425 C   0  0  2  0  0  0  0  0  0  0  0  0
    7.7492    4.8620    3.2722 C   0  0  0  0  0  0  0  0  0  0  0  0
    9.1997    5.2813    3.4232 C   0  0  1  0  0  0  0  0  0  0  0  0
   10.1399    4.4915    2.5115 C   0  0  2  0  0  0  0  0  0  0  0  0
    9.9029    2.9705    2.6564 C   0  0  1  0  0  0  0  0  0  0  0  0
    8.4408    2.5156    2.7554 C   0  0  1  0  0  0  0  0  0  0  0  0
    6.1832    3.0287    3.4953 N   0  3  0  0  0  0  0  0  0  0  0  0
    9.3093    6.7029    3.1597 N   0  3  0  0  0  0  0  0  0  0  0  0
   10.5848    2.2249    1.6182 O   0  0  0  0  0  0  0  0  0  0  0  0
    8.3848    1.1711    3.2204 O   0  0  0  0  0  0  0  0  0  0  0  0
  1  2  1  0  0  0  0
  3  2  1  1  0  0  0
  3  4  1  0  0  0  0
  3  5  1  0  0  0  0
  4  8  1  0  0  0  0
  5  6  1  0  0  0  0
  5 12  1  6  0  0  0
  6  7  1  6  0  0  0
  6  8  1  0  0  0  0
  8 41  1  1  0  0  0
  9 10  1  0  0  0  0
  9 17  1  0  0  0  0
  9 19  1  6  0  0  0
 10 11  1  0  0  0  0
 11 12  1  6  0  0  0
 11 13  1  0  0  0  0
 13 14  1  6  0  0  0
 13 15  1  0  0  0  0
 15 16  1  1  0  0  0
 15 17  1  0  0  0  0
 17 18  1  6  0  0  0
 19 20  1  0  0  0  0
 21 22  1  0  0  0  0
 21 29  1  0  0  0  0
 21 31  1  6  0  0  0
 22 23  1  0  0  0  0
 23 24  1  1  0  0  0
 23 25  1  0  0  0  0
 25 26  1  1  0  0  0
 25 27  1  0  0  0  0
 27 28  1  6  0  0  0
 27 29  1  0  0  0  0
 29 30  1  1  0  0  0
 31 32  1  0  0  0  0
 33 34  1  0  0  0  0
 33 38  1  0  0  0  0
 33 39  1  6  0  0  0
 34 35  1  0  0  0  0
 35 36  1  0  0  0  0
 35 40  1  6  0  0  0
 36 24  1  1  0  0  0
 36 37  1  0  0  0  0
 37 38  1  0  0  0  0
 37 41  1  6  0  0  0
 38 42  1  1  0  0  0
M  CHG  6  14   1  20   1  26   1  32   1  39   1  40   1
M  END
>  <CHROM.1>
-179.96455078,177.09710872,-146.00621443,-52.30805951,-76.06280387,-168.76082759
79.69322243,-38.27853690,54.12370898,-177.43679996,176.36858893,169.99520776
45.31106898,-152.16814855,62.50022497,56.95772803,59.57720458,-177.73060525
30.73929610,-43.47768981,-49.21391162,59.83569018,11.09186913,2.30592104
0.07758301,1.50955289,-0.53090639,-2.68671107

>  <Name>


>  <RI>
0

>  <Rbt.Current_Directory>
/home/itssahil/PROJECTS/Mol_Feturizer/New_Systems/rnas/1qd3

>  <Rbt.Executable>
rbdock ($Id: //depot/dev/client3/rdock/2013.1/src/exe/rbdock.cxx#4 $)

>  <Rbt.Library>
libRbt.so (2013.1, Build901 2013/11/27)

>  <Rbt.Parameter_File>
/export/apps/rDock/src/rDock_2013.1_src/data/scripts/dock_solv.prm

>  <Rbt.Receptor>
prm/pocket_docking_7.prm

>  <SCORE>
-40.8349

>  <SCORE.INTER>
-17.9794

>  <SCORE.INTER.CONST>
1

>  <SCORE.INTER.POLAR>
-2.72625

>  <SCORE.INTER.ROT>
9

>  <SCORE.INTER.SOLV>
25.4566

>  <SCORE.INTER.VDW>
-20.9843

>  <SCORE.INTER.norm>
-0.428082

>  <SCORE.INTRA>
-22.8726

>  <SCORE.INTRA.DIHEDRAL>
-23.3649

>  <SCORE.INTRA.DIHEDRAL.0>
40.6252

>  <SCORE.INTRA.POLAR>
0.905974

>  <SCORE.INTRA.POLAR.0>
-1.20161

>  <SCORE.INTRA.REPUL>
-0.115675

>  <SCORE.INTRA.REPUL.0>
0.115675

>  <SCORE.INTRA.SOLV>
-10.7109

>  <SCORE.INTRA.SOLV.lig_0>
-154.895

>  <SCORE.INTRA.VDW>
-8.3367

>  <SCORE.INTRA.VDW.0>
2.2925

>  <SCORE.INTRA.norm>
-0.544587

>  <SCORE.RESTR>
0.0171872

>  <SCORE.RESTR.CAVITY>
0.0171872

>  <SCORE.RESTR.norm>
0.000409218

>  <SCORE.SYSTEM>
0

>  <SCORE.SYSTEM.CONST>
0

>  <SCORE.SYSTEM.DIHEDRAL>
0

>  <SCORE.SYSTEM.SOLV>
0

>  <SCORE.SYSTEM.norm>
0

>  <SCORE.heavy>
42

>  <SCORE.norm>
-0.972259

>  <RMSD>
6.942

$$$$

 OpenBabel11021811413D
libRbt.so/2013.1/901 2013/11/27
 42 45  0  0  0  0  0  0  0  0999 V2000
   12.0514   -9.0787   -6.7329 O   0  0  0  0  0  0  0  0  0  0  0  0
   10.6343   -8.9827   -6.7521 C   0  0  0  0  0  0  0  0  0  0  0  0
   10.0991   -8.9385   -5.3203 C   0  0  1  0  0  0  0  0  0  0  0  0
   10.5771   -7.7713   -4.6169 O   0  0  0  0  0  0  0  0  0  0  0  0
    8.5826   -8.8741   -5.2448 C   0  0  2  0  0  0  0  0  0  0  0  0
    8.3977   -8.3468   -3.8318 C   0  0  1  0  0  0  0  0  0  0  0  0
    8.6033   -9.3986   -2.8952 O   0  0  0  0  0  0  0  0  0  0  0  0
    9.5364   -7.3129   -3.7170 C   0  0  2  0  0  0  0  0  0  0  0  0
    4.5980   -9.2041   -6.3904 C   0  0  2  0  0  0  0  0  0  0  0  0
    6.0285   -9.3142   -6.4453 O   0  0  0  0  0  0  0  0  0  0  0  0
    6.5461  -10.1313   -5.3797 C   0  0  2  0  0  0  0  0  0  0  0  0
    7.9874  -10.1735   -5.4296 O   0  0  0  0  0  0  0  0  0  0  0  0
    5.9671  -11.5544   -5.4565 C   0  0  2  0  0  0  0  0  0  0  0  0
    6.6107  -12.3159   -6.5112 N   0  3  0  0  0  0  0  0  0  0  0  0
    4.4441  -11.5735   -5.6330 C   0  0  1  0  0  0  0  0  0  0  0  0
    3.8223  -11.3003   -4.3874 O   0  0  0  0  0  0  0  0  0  0  0  0
    3.9698  -10.5627   -6.6736 C   0  0  2  0  0  0  0  0  0  0  0  0
    4.3266  -11.0049   -7.9781 O   0  0  0  0  0  0  0  0  0  0  0  0
    4.1007   -8.1578   -7.3837 C   0  0  0  0  0  0  0  0  0  0  0  0
    2.8527   -7.5770   -6.9253 N   0  3  0  0  0  0  0  0  0  0  0  0
   11.4030   -2.4337   -2.4355 C   0  0  1  0  0  0  0  0  0  0  0  0
   11.2171   -3.7279   -3.0460 O   0  0  0  0  0  0  0  0  0  0  0  0
   10.8554   -4.7606   -2.1005 C   0  0  2  0  0  0  0  0  0  0  0  0
    9.5527   -4.5255   -1.5110 O   0  0  0  0  0  0  0  0  0  0  0  0
   11.9334   -4.9054   -1.0195 C   0  0  2  0  0  0  0  0  0  0  0  0
   11.4647   -5.7880    0.0326 N   0  3  0  0  0  0  0  0  0  0  0  0
   12.3097   -3.5582   -0.4128 C   0  0  1  0  0  0  0  0  0  0  0  0
   13.4625   -3.7061    0.4018 O   0  0  0  0  0  0  0  0  0  0  0  0
   12.5637   -2.4804   -1.4554 C   0  0  2  0  0  0  0  0  0  0  0  0
   12.7225   -1.2157   -0.8293 O   0  0  0  0  0  0  0  0  0  0  0  0
   11.7394   -1.3963   -3.5028 C   0  0  0  0  0  0  0  0  0  0  0  0
   10.8276   -1.5011   -4.6273 N   0  3  0  0  0  0  0  0  0  0  0  0
    5.6415   -4.5172   -3.1849 C   0  0  2  0  0  0  0  0  0  0  0  0
    6.2126   -3.1981   -2.7034 C   0  0  0  0  0  0  0  0  0  0  0  0
    7.4027   -3.4351   -1.7922 C   0  0  1  0  0  0  0  0  0  0  0  0
    8.5460   -4.1692   -2.4943 C   0  0  2  0  0  0  0  0  0  0  0  0
    8.0317   -5.4415   -3.2067 C   0  0  1  0  0  0  0  0  0  0  0  0
    6.6928   -5.3142   -3.9454 C   0  0  1  0  0  0  0  0  0  0  0  0
    4.5036   -4.2634   -4.0479 N   0  3  0  0  0  0  0  0  0  0  0  0
    7.8588   -2.1610   -1.2717 N   0  3  0  0  0  0  0  0  0  0  0  0
    9.0351   -5.9976   -4.0915 O   0  0  0  0  0  0  0  0  0  0  0  0
    6.1858   -6.6091   -4.2506 O   0  0  0  0  0  0  0  0  0  0  0  0
  1  2  1  0  0  0  0
  3  2  1  6  0  0  0
  3  4  1  0  0  0  0
  3  5  1  0  0  0  0
  4  8  1  0  0  0  0
  5  6  1  0  0  0  0
  5 12  1  1  0  0  0
  6  7  1  1  0  0  0
  6  8  1  0  0  0  0
  8 41  1  6  0  0  0
  9 10  1  0  0  0  0
  9 17  1  0  0  0  0
  9 19  1  6  0  0  0
 10 11  1  0  0  0  0
 11 12  1  6  0  0  0
 11 13  1  0  0  0  0
 13 14  1  6  0  0  0
 13 15  1  0  0  0  0
 15 16  1  1  0  0  0
 15 17  1  0  0  0  0
 17 18  1  6  0  0  0
 19 20  1  0  0  0  0
 21 22  1  0  0  0  0
 21 29  1  0  0  0  0
 21 31  1  6  0  0  0
 22 23  1  0  0  0  0
 23 24  1  1  0  0  0
 23 25  1  0  0  0  0
 25 26  1  1  0  0  0
 25 27  1  0  0  0  0
 27 28  1  6  0  0  0
 27 29  1  0  0  0  0
 29 30  1  1  0  0  0
 31 32  1  0  0  0  0
 33 34  1  0  0  0  0
 33 38  1  0  0  0  0
 33 39  1  6  0  0  0
 34 35  1  0  0  0  0
 35 36  1  0  0  0  0
 35 40  1  6  0  0  0
 36 24  1  1  0  0  0
 36 37  1  0  0  0  0
 37 38  1  0  0  0  0
 37 41  1  6  0  0  0
 38 42  1  1  0  0  0
M  CHG  6  14   1  20   1  26   1  32   1  39   1  40   1
M  END
>  <CHROM.1>
66.42543520,62.46270944,-179.20063159,-178.19887441,-177.42197796,-152.34287993
62.31384312,71.27975239,-62.45741015,-176.36558434,169.20402829,47.40961023
46.32952443,-158.42115440,178.57414989,-65.52945280,-175.29573152,-160.37924226
179.42816757,64.83332597,114.83159366,-53.40158547,8.32888479,-6.59551255
-3.93616912,-2.19994081,-0.21926765,0.41291297

>  <Name>


>  <RI>
0

>  <Rbt.Current_Directory>
/home/itssahil/PROJECTS/Mol_Feturizer/New_Systems/rnas/1qd3

>  <Rbt.Executable>
rbdock ($Id: //depot/dev/client3/rdock/2013.1/src/exe/rbdock.cxx#4 $)

>  <Rbt.Library>
libRbt.so (2013.1, Build901 2013/11/27)

>  <Rbt.Parameter_File>
/export/apps/rDock/src/rDock_2013.1_src/data/scripts/dock_solv.prm

>  <Rbt.Receptor>
prm/pocket_docking_6.prm

>  <SCORE>
-47.4983

>  <SCORE.INTER>
-22.0091

>  <SCORE.INTER.CONST>
1

>  <SCORE.INTER.POLAR>
-5.72303

>  <SCORE.INTER.ROT>
9

>  <SCORE.INTER.SOLV>
26.7441

>  <SCORE.INTER.VDW>
-14.1106

>  <SCORE.INTER.norm>
-0.524026

>  <SCORE.INTRA>
-25.4892

>  <SCORE.INTRA.DIHEDRAL>
-24.6925

>  <SCORE.INTRA.DIHEDRAL.0>
40.6252

>  <SCORE.INTRA.POLAR>
1.20161

>  <SCORE.INTRA.POLAR.0>
-1.20161

>  <SCORE.INTRA.REPUL>
-0.115675

>  <SCORE.INTRA.REPUL.0>
0.115675

>  <SCORE.INTRA.SOLV>
-14.3232

>  <SCORE.INTRA.SOLV.lig_0>
-154.895

>  <SCORE.INTRA.VDW>
-9.48846

>  <SCORE.INTRA.VDW.0>
2.2925

>  <SCORE.INTRA.norm>
-0.606886

>  <SCORE.RESTR>
0

>  <SCORE.RESTR.CAVITY>
0

>  <SCORE.RESTR.norm>
0

>  <SCORE.SYSTEM>
0

>  <SCORE.SYSTEM.CONST>
0

>  <SCORE.SYSTEM.DIHEDRAL>
0

>  <SCORE.SYSTEM.SOLV>
0

>  <SCORE.SYSTEM.norm>
0

>  <SCORE.heavy>
42

>  <SCORE.norm>
-1.13091

>  <RMSD>
6.975

$$$$

 OpenBabel11021811413D
libRbt.so/2013.1/901 2013/11/27
 42 45  0  0  0  0  0  0  0  0999 V2000
    6.2015   -1.1326    2.2550 O   0  0  0  0  0  0  0  0  0  0  0  0
    7.5076   -1.2340    1.7060 C   0  0  0  0  0  0  0  0  0  0  0  0
    7.8713    0.0682    0.9915 C   0  0  1  0  0  0  0  0  0  0  0  0
    7.6406    1.2144    1.8393 O   0  0  0  0  0  0  0  0  0  0  0  0
    9.3330    0.1443    0.5828 C   0  0  2  0  0  0  0  0  0  0  0  0
    9.4899    1.6436    0.3926 C   0  0  1  0  0  0  0  0  0  0  0  0
    8.9115    2.0341   -0.8479 O   0  0  0  0  0  0  0  0  0  0  0  0
    8.6572    2.2103    1.5606 C   0  0  2  0  0  0  0  0  0  0  0  0
   12.9633   -1.7601   -1.3805 C   0  0  2  0  0  0  0  0  0  0  0  0
   11.5738   -1.8139   -1.0227 O   0  0  0  0  0  0  0  0  0  0  0  0
   10.9610   -0.5122   -1.0497 C   0  0  2  0  0  0  0  0  0  0  0  0
    9.5831   -0.5934   -0.6297 O   0  0  0  0  0  0  0  0  0  0  0  0
   11.0552    0.1032   -2.4565 C   0  0  2  0  0  0  0  0  0  0  0  0
   10.0840   -0.5020   -3.3492 N   0  3  0  0  0  0  0  0  0  0  0  0
   12.4635    0.0158   -3.0562 C   0  0  1  0  0  0  0  0  0  0  0  0
   13.2855    1.0157   -2.4753 O   0  0  0  0  0  0  0  0  0  0  0  0
   13.0989   -1.3554   -2.8429 C   0  0  2  0  0  0  0  0  0  0  0  0
   12.4672   -2.3185   -3.6782 O   0  0  0  0  0  0  0  0  0  0  0  0
   13.6371   -3.1051   -1.1242 C   0  0  0  0  0  0  0  0  0  0  0  0
   15.0402   -3.0464   -1.4887 N   0  3  0  0  0  0  0  0  0  0  0  0
   10.8041    4.7827    1.5481 C   0  0  1  0  0  0  0  0  0  0  0  0
   10.5068    4.8111    2.9599 O   0  0  0  0  0  0  0  0  0  0  0  0
    9.3686    5.6403    3.2890 C   0  0  2  0  0  0  0  0  0  0  0  0
    8.1353    5.1127    2.7410 O   0  0  0  0  0  0  0  0  0  0  0  0
    9.6028    7.0855    2.8326 C   0  0  2  0  0  0  0  0  0  0  0  0
    8.3806    7.8544    2.9757 N   0  3  0  0  0  0  0  0  0  0  0  0
   10.0695    7.1515    1.3826 C   0  0  1  0  0  0  0  0  0  0  0  0
   10.4974    8.4699    1.0778 O   0  0  0  0  0  0  0  0  0  0  0  0
   11.1897    6.1721    1.0675 C   0  0  2  0  0  0  0  0  0  0  0  0
   11.4473    6.1495   -0.3288 O   0  0  0  0  0  0  0  0  0  0  0  0
   11.9867    3.8557    1.2819 C   0  0  0  0  0  0  0  0  0  0  0  0
   12.7967    3.6999    2.4762 N   0  3  0  0  0  0  0  0  0  0  0  0
    7.7531    2.5074    6.0824 C   0  0  2  0  0  0  0  0  0  0  0  0
    6.4968    3.1620    5.5427 C   0  0  0  0  0  0  0  0  0  0  0  0
    6.8511    4.3354    4.6481 C   0  0  1  0  0  0  0  0  0  0  0  0
    7.6780    3.9199    3.4304 C   0  0  2  0  0  0  0  0  0  0  0  0
    8.8902    3.0579    3.8527 C   0  0  1  0  0  0  0  0  0  0  0  0
    8.6335    2.0101    4.9439 C   0  0  1  0  0  0  0  0  0  0  0  0
    7.3872    1.3944    6.9376 N   0  3  0  0  0  0  0  0  0  0  0  0
    5.6296    4.9971    4.2329 N   0  3  0  0  0  0  0  0  0  0  0  0
    9.5250    2.4365    2.7082 O   0  0  0  0  0  0  0  0  0  0  0  0
    9.8735    1.5429    5.4647 O   0  0  0  0  0  0  0  0  0  0  0  0
  1  2  1  0  0  0  0
  3  2  1  1  0  0  0
  3  4  1  0  0  0  0
  3  5  1  0  0  0  0
  4  8  1  0  0  0  0
  5  6  1  0  0  0  0
  5 12  1  6  0  0  0
  6  7  1  6  0  0  0
  6  8  1  0  0  0  0
  8 41  1  1  0  0  0
  9 10  1  0  0  0  0
  9 17  1  0  0  0  0
  9 19  1  6  0  0  0
 10 11  1  0  0  0  0
 11 12  1  6  0  0  0
 11 13  1  0  0  0  0
 13 14  1  6  0  0  0
 13 15  1  0  0  0  0
 15 16  1  1  0  0  0
 15 17  1  0  0  0  0
 17 18  1  6  0  0  0
 19 20  1  0  0  0  0
 21 22  1  0  0  0  0
 21 29  1  0  0  0  0
 21 31  1  1  0  0  0
 22 23  1  0  0  0  0
 23 24  1  6  0  0  0
 23 25  1  0  0  0  0
 25 26  1  6  0  0  0
 25 27  1  0  0  0  0
 27 28  1  1  0  0  0
 27 29  1  0  0  0  0
 29 30  1  6  0  0  0
 31 32  1  0  0  0  0
 33 34  1  0  0  0  0
 33 38  1  0  0  0  0
 33 39  1  1  0  0  0
 34 35  1  0  0  0  0
 35 36  1  0  0  0  0
 35 40  1  6  0  0  0
 36 24  1  1  0  0  0
 36 37  1  0  0  0  0
 37 38  1  0  0  0  0
 37 41  1  6  0  0  0
 38 42  1  1  0  0  0
M  CHG  6  14   1  20   1  26   1  32   1  39   1  40   1
M  END
>  <CHROM.1>
-69.16851192,50.84359767,178.85896875,175.84813204,-67.26678713,179.93089548
116.58340047,137.62619360,54.27252831,174.45804554,75.12129510,-22.94665405
72.25223751,85.66159698,66.37534745,-52.80853922,55.98356147,178.05813188
-175.21971741,162.68408614,-26.45142276,37.67817945,9.89644054,2.16894058
1.29676641,0.89484872,-0.84721362,-2.93619065

>  <Name>


>  <RI>
0

>  <Rbt.Current_Directory>
/home/itssahil/PROJECTS/Mol_Feturizer/New_Systems/rnas/1qd3

>  <Rbt.Executable>
rbdock ($Id: //depot/dev/client3/rdock/2013.1/src/exe/rbdock.cxx#4 $)

>  <Rbt.Library>
libRbt.so (2013.1, Build901 2013/11/27)

>  <Rbt.Parameter_File>
/export/apps/rDock/src/rDock_2013.1_src/data/scripts/dock_solv.prm

>  <Rbt.Receptor>
prm/pocket_docking_4.prm

>  <SCORE>
-12.3173

>  <SCORE.INTER>
-2.89919

>  <SCORE.INTER.CONST>
1

>  <SCORE.INTER.POLAR>
-7.19147

>  <SCORE.INTER.ROT>
9

>  <SCORE.INTER.SOLV>
52.8398

>  <SCORE.INTER.VDW>
-5.1745

>  <SCORE.INTER.norm>
-0.0690283

>  <SCORE.INTRA>
-11.3825

>  <SCORE.INTRA.DIHEDRAL>
-11.4897

>  <SCORE.INTRA.DIHEDRAL.0>
40.6252

>  <SCORE.INTRA.POLAR>
1.20161

>  <SCORE.INTRA.POLAR.0>
-1.20161

>  <SCORE.INTRA.REPUL>
-0.115028

>  <SCORE.INTRA.REPUL.0>
0.115675

>  <SCORE.INTRA.SOLV>
-11.3848

>  <SCORE.INTRA.SOLV.lig_0>
-154.895

>  <SCORE.INTRA.VDW>
-3.45563

>  <SCORE.INTRA.VDW.0>
2.2925

>  <SCORE.INTRA.norm>
-0.271012

>  <SCORE.RESTR>
1.96437

>  <SCORE.RESTR.CAVITY>
1.96437

>  <SCORE.RESTR.norm>
0.0467707

>  <SCORE.SYSTEM>
0

>  <SCORE.SYSTEM.CONST>
0

>  <SCORE.SYSTEM.DIHEDRAL>
0

>  <SCORE.SYSTEM.SOLV>
0

>  <SCORE.SYSTEM.norm>
0

>  <SCORE.heavy>
42

>  <SCORE.norm>
-0.29327

>  <RMSD>
6.984

$$$$

 OpenBabel11021811413D
libRbt.so/2013.1/901 2013/11/27
 42 45  0  0  0  0  0  0  0  0999 V2000
   13.3532   -7.6624   -6.9347 O   0  0  0  0  0  0  0  0  0  0  0  0
   13.0589   -6.2784   -6.8097 C   0  0  0  0  0  0  0  0  0  0  0  0
   11.6098   -6.0962   -6.3565 C   0  0  1  0  0  0  0  0  0  0  0  0
   11.4723   -6.3167   -4.9359 O   0  0  0  0  0  0  0  0  0  0  0  0
   11.0689   -4.6992   -6.6119 C   0  0  2  0  0  0  0  0  0  0  0  0
    9.8912   -4.6783   -5.6519 C   0  0  1  0  0  0  0  0  0  0  0  0
    8.8083   -5.4194   -6.2030 O   0  0  0  0  0  0  0  0  0  0  0  0
   10.4588   -5.4158   -4.4220 C   0  0  2  0  0  0  0  0  0  0  0  0
   12.1812   -5.5464  -11.1491 C   0  0  2  0  0  0  0  0  0  0  0  0
   11.1657   -5.1541  -10.2130 O   0  0  0  0  0  0  0  0  0  0  0  0
   11.7143   -4.8648   -8.9145 C   0  0  2  0  0  0  0  0  0  0  0  0
   10.6630   -4.5311   -7.9845 O   0  0  0  0  0  0  0  0  0  0  0  0
   12.7358   -3.7177   -9.0001 C   0  0  2  0  0  0  0  0  0  0  0  0
   12.0633   -2.4382   -9.1307 N   0  3  0  0  0  0  0  0  0  0  0  0
   13.7559   -3.9060  -10.1290 C   0  0  1  0  0  0  0  0  0  0  0  0
   14.7324   -4.8540   -9.7280 O   0  0  0  0  0  0  0  0  0  0  0  0
   13.1016   -4.3653  -11.4292 C   0  0  2  0  0  0  0  0  0  0  0  0
   12.3628   -3.2945  -12.0056 O   0  0  0  0  0  0  0  0  0  0  0  0
   11.5521   -6.0630  -12.4400 C   0  0  0  0  0  0  0  0  0  0  0  0
   10.7158   -7.2172  -12.1694 N   0  3  0  0  0  0  0  0  0  0  0  0
   10.2702   -1.4959   -2.2686 C   0  0  1  0  0  0  0  0  0  0  0  0
   10.3983   -2.3209   -1.0918 O   0  0  0  0  0  0  0  0  0  0  0  0
    9.1548   -2.9385   -0.6871 C   0  0  2  0  0  0  0  0  0  0  0  0
    8.6799   -3.8961   -1.6654 O   0  0  0  0  0  0  0  0  0  0  0  0
    8.0916   -1.8724   -0.3957 C   0  0  2  0  0  0  0  0  0  0  0  0
    6.7994   -2.5024   -0.1979 N   0  3  0  0  0  0  0  0  0  0  0  0
    7.9855   -0.8561   -1.5273 C   0  0  1  0  0  0  0  0  0  0  0  0
    7.1716    0.2320   -1.1177 O   0  0  0  0  0  0  0  0  0  0  0  0
    9.3355   -0.3300   -1.9900 C   0  0  2  0  0  0  0  0  0  0  0  0
    9.1826    0.4608   -3.1595 O   0  0  0  0  0  0  0  0  0  0  0  0
   11.6296   -0.9182   -2.6520 C   0  0  0  0  0  0  0  0  0  0  0  0
   12.6012   -1.9781   -2.8500 N   0  3  0  0  0  0  0  0  0  0  0  0
   11.7923   -6.4910   -0.3695 C   0  0  2  0  0  0  0  0  0  0  0  0
   10.3591   -6.9397   -0.1630 C   0  0  0  0  0  0  0  0  0  0  0  0
    9.4093   -5.7639   -0.2980 C   0  0  1  0  0  0  0  0  0  0  0  0
    9.4635   -5.1181   -1.6832 C   0  0  2  0  0  0  0  0  0  0  0  0
   10.9216   -4.8031   -2.0903 C   0  0  1  0  0  0  0  0  0  0  0  0
   11.9695   -5.8708   -1.7489 C   0  0  1  0  0  0  0  0  0  0  0  0
   12.6789   -7.6305   -0.2299 N   0  3  0  0  0  0  0  0  0  0  0  0
    8.0628   -6.2087    0.0046 N   0  3  0  0  0  0  0  0  0  0  0  0
   11.0169   -4.4448   -3.4908 O   0  0  0  0  0  0  0  0  0  0  0  0
   13.2762   -5.3169   -1.8620 O   0  0  0  0  0  0  0  0  0  0  0  0
  1  2  1  0  0  0  0
  3  2  1  1  0  0  0
  3  4  1  0  0  0  0
  3  5  1  0  0  0  0
  4  8  1  0  0  0  0
  5  6  1  0  0  0  0
  5 12  1  6  0  0  0
  6  7  1  6  0  0  0
  6  8  1  0  0  0  0
  8 41  1  1  0  0  0
  9 10  1  0  0  0  0
  9 17  1  0  0  0  0
  9 19  1  6  0  0  0
 10 11  1  0  0  0  0
 11 12  1  1  0  0  0
 11 13  1  0  0  0  0
 13 14  1  6  0  0  0
 13 15  1  0  0  0  0
 15 16  1  1  0  0  0
 15 17  1  0  0  0  0
 17 18  1  1  0  0  0
 19 20  1  0  0  0  0
 21 22  1  0  0  0  0
 21 29  1  0  0  0  0
 21 31  1  1  0  0  0
 22 23  1  0  0  0  0
 23 24  1  6  0  0  0
 23 25  1  0  0  0  0
 25 26  1  6  0  0  0
 25 27  1  0  0  0  0
 27 28  1  1  0  0  0
 27 29  1  0  0  0  0
 29 30  1  6  0  0  0
 31 32  1  0  0  0  0
 33 34  1  0  0  0  0
 33 38  1  0  0  0  0
 33 39  1  6  0  0  0
 34 35  1  0  0  0  0
 35 36  1  0  0  0  0
 35 40  1  6  0  0  0
 36 24  1  1  0  0  0
 36 37  1  0  0  0  0
 37 38  1  0  0  0  0
 37 41  1  6  0  0  0
 38 42  1  1  0  0  0
M  CHG  6  14   1  20   1  26   1  32   1  39   1  40   1
M  END
>  <CHROM.1>
177.67155469,79.11300192,-54.10505999,-176.05377436,-95.14977003,-60.26266811
159.25695000,-73.50310343,179.39703416,-174.35139427,-70.93237669,56.34841793
72.74321223,59.15650717,-178.49859336,-163.48435860,62.59835230,163.23818941
169.26164647,-87.35100470,-54.70298663,-52.63311357,10.87190724,-4.27573563
-4.87604818,-0.86424299,-1.10608357,2.03598713

>  <Name>


>  <RI>
0

>  <Rbt.Current_Directory>
/home/itssahil/PROJECTS/Mol_Feturizer/New_Systems/rnas/1qd3

>  <Rbt.Executable>
rbdock ($Id: //depot/dev/client3/rdock/2013.1/src/exe/rbdock.cxx#4 $)

>  <Rbt.Library>
libRbt.so (2013.1, Build901 2013/11/27)

>  <Rbt.Parameter_File>
/export/apps/rDock/src/rDock_2013.1_src/data/scripts/dock_solv.prm

>  <Rbt.Receptor>
prm/pocket_docking_8.prm

>  <SCORE>
-56.6088

>  <SCORE.INTER>
-32.712

>  <SCORE.INTER.CONST>
1

>  <SCORE.INTER.POLAR>
-6.90907

>  <SCORE.INTER.ROT>
9

>  <SCORE.INTER.SOLV>
24.2032

>  <SCORE.INTER.VDW>
-16.4455

>  <SCORE.INTER.norm>
-0.778857

>  <SCORE.INTRA>
-23.8968

>  <SCORE.INTRA.DIHEDRAL>
-24.0467

>  <SCORE.INTRA.DIHEDRAL.0>
40.6252

>  <SCORE.INTRA.POLAR>
-0.134767

>  <SCORE.INTRA.POLAR.0>
-1.20161

>  <SCORE.INTRA.REPUL>
-0.101645

>  <SCORE.INTRA.REPUL.0>
0.115675

>  <SCORE.INTRA.SOLV>
-9.49609

>  <SCORE.INTRA.SOLV.lig_0>
-154.895

>  <SCORE.INTRA.VDW>
-6.15899

>  <SCORE.INTRA.VDW.0>
2.2925

>  <SCORE.INTRA.norm>
-0.568971

>  <SCORE.RESTR>
0

>  <SCORE.RESTR.CAVITY>
0

>  <SCORE.RESTR.norm>
0

>  <SCORE.SYSTEM>
0

>  <SCORE.SYSTEM.CONST>
0

>  <SCORE.SYSTEM.DIHEDRAL>
0

>  <SCORE.SYSTEM.SOLV>
0

>  <SCORE.SYSTEM.norm>
0

>  <SCORE.heavy>
42

>  <SCORE.norm>
-1.34783

>  <RMSD>
7.075

$$$$

 OpenBabel11021811413D
libRbt.so/2013.1/901 2013/11/27
 42 45  0  0  0  0  0  0  0  0999 V2000
    4.8818   -8.6539   -2.4994 O   0  0  0  0  0  0  0  0  0  0  0  0
    5.6082   -8.0890   -3.5815 C   0  0  0  0  0  0  0  0  0  0  0  0
    5.5073   -6.5640   -3.5327 C   0  0  1  0  0  0  0  0  0  0  0  0
    5.9439   -6.0495   -2.2559 O   0  0  0  0  0  0  0  0  0  0  0  0
    6.3680   -5.8687   -4.5744 C   0  0  2  0  0  0  0  0  0  0  0  0
    6.4569   -4.4752   -3.9751 C   0  0  1  0  0  0  0  0  0  0  0  0
    5.2427   -3.7714   -4.2121 O   0  0  0  0  0  0  0  0  0  0  0  0
    6.6032   -4.7757   -2.4694 C   0  0  2  0  0  0  0  0  0  0  0  0
    7.5319   -8.6736   -7.3785 C   0  0  2  0  0  0  0  0  0  0  0  0
    6.7172   -7.9488   -6.4446 O   0  0  0  0  0  0  0  0  0  0  0  0
    6.5090   -6.5860   -6.8574 C   0  0  2  0  0  0  0  0  0  0  0  0
    5.7370   -5.8712   -5.8701 O   0  0  0  0  0  0  0  0  0  0  0  0
    5.8064   -6.5343   -8.2249 C   0  0  2  0  0  0  0  0  0  0  0  0
    4.3926   -6.8327   -8.0889 N   0  3  0  0  0  0  0  0  0  0  0  0
    6.4522   -7.4560   -9.2661 C   0  0  1  0  0  0  0  0  0  0  0  0
    7.6364   -6.8510   -9.7607 O   0  0  0  0  0  0  0  0  0  0  0  0
    6.7819   -8.8325   -8.6949 C   0  0  2  0  0  0  0  0  0  0  0  0
    5.5841   -9.5727   -8.4899 O   0  0  0  0  0  0  0  0  0  0  0  0
    7.9229  -10.0341   -6.8084 C   0  0  0  0  0  0  0  0  0  0  0  0
    6.7398  -10.7836   -6.4297 N   0  3  0  0  0  0  0  0  0  0  0  0
   11.1085   -5.1971   -2.1586 C   0  0  1  0  0  0  0  0  0  0  0  0
   11.2058   -3.8065   -1.7859 O   0  0  0  0  0  0  0  0  0  0  0  0
   11.1511   -2.9055   -2.9158 C   0  0  2  0  0  0  0  0  0  0  0  0
    9.8625   -2.9415   -3.5777 O   0  0  0  0  0  0  0  0  0  0  0  0
   12.2873   -3.2048   -3.9012 C   0  0  2  0  0  0  0  0  0  0  0  0
   12.0986   -2.4424   -5.1214 N   0  3  0  0  0  0  0  0  0  0  0  0
   12.3619   -4.6886   -4.2439 C   0  0  1  0  0  0  0  0  0  0  0  0
   13.5574   -4.9540   -4.9612 O   0  0  0  0  0  0  0  0  0  0  0  0
   12.2963   -5.5909   -3.0213 C   0  0  2  0  0  0  0  0  0  0  0  0
   12.1806   -6.9500   -3.4166 O   0  0  0  0  0  0  0  0  0  0  0  0
   11.1312   -6.0750   -0.9106 C   0  0  0  0  0  0  0  0  0  0  0  0
   12.2259   -5.6968   -0.0358 N   0  3  0  0  0  0  0  0  0  0  0  0
    8.1284   -1.7502    0.1200 C   0  0  2  0  0  0  0  0  0  0  0  0
    8.0971   -0.7645   -1.0313 C   0  0  0  0  0  0  0  0  0  0  0  0
    9.0851   -1.1733   -2.1081 C   0  0  1  0  0  0  0  0  0  0  0  0
    8.7710   -2.5453   -2.7064 C   0  0  2  0  0  0  0  0  0  0  0  0
    8.5739   -3.6019   -1.5948 C   0  0  1  0  0  0  0  0  0  0  0  0
    7.7800   -3.1522   -0.3612 C   0  0  1  0  0  0  0  0  0  0  0  0
    7.1809   -1.3342    1.1364 N   0  3  0  0  0  0  0  0  0  0  0  0
    9.1016   -0.1577   -3.1427 N   0  3  0  0  0  0  0  0  0  0  0  0
    8.0167   -4.8307   -2.1223 O   0  0  0  0  0  0  0  0  0  0  0  0
    7.9678   -4.0841    0.6987 O   0  0  0  0  0  0  0  0  0  0  0  0
  1  2  1  0  0  0  0
  3  2  1  1  0  0  0
  3  4  1  0  0  0  0
  3  5  1  0  0  0  0
  4  8  1  0  0  0  0
  5  6  1  0  0  0  0
  5 12  1  6  0  0  0
  6  7  1  1  0  0  0
  6  8  1  0  0  0  0
  8 41  1  6  0  0  0
  9 10  1  0  0  0  0
  9 17  1  0  0  0  0
  9 19  1  1  0  0  0
 10 11  1  0  0  0  0
 11 12  1  1  0  0  0
 11 13  1  0  0  0  0
 13 14  1  1  0  0  0
 13 15  1  0  0  0  0
 15 16  1  1  0  0  0
 15 17  1  0  0  0  0
 17 18  1  1  0  0  0
 19 20  1  0  0  0  0
 21 22  1  0  0  0  0
 21 29  1  0  0  0  0
 21 31  1  1  0  0  0
 22 23  1  0  0  0  0
 23 24  1  6  0  0  0
 23 25  1  0  0  0  0
 25 26  1  6  0  0  0
 25 27  1  0  0  0  0
 27 28  1  1  0  0  0
 27 29  1  0  0  0  0
 29 30  1  6  0  0  0
 31 32  1  0  0  0  0
 33 34  1  0  0  0  0
 33 38  1  0  0  0  0
 33 39  1  1  0  0  0
 34 35  1  0  0  0  0
 35 36  1  0  0  0  0
 35 40  1  6  0  0  0
 36 24  1  6  0  0  0
 36 37  1  0  0  0  0
 37 38  1  0  0  0  0
 37 41  1  6  0  0  0
 38 42  1  1  0  0  0
M  CHG  6  14   1  20   1  26   1  32   1  39   1  40   1
M  END
>  <CHROM.1>
63.70285748,55.19313267,-118.11789419,-66.27489965,-147.43725240,55.65551924
58.42040337,104.12411428,-177.47294239,-174.69591475,-76.64532524,-48.79555722
60.88246716,54.21327741,-49.31028399,-60.19436529,-60.93404466,70.38012853
170.37015346,-124.78890041,-74.08702547,-63.49254449,8.28840444,-5.31173909
-3.97267387,2.01383025,-0.12633504,-2.24123716

>  <Name>


>  <RI>
0

>  <Rbt.Current_Directory>
/home/itssahil/PROJECTS/Mol_Feturizer/New_Systems/rnas/1qd3

>  <Rbt.Executable>
rbdock ($Id: //depot/dev/client3/rdock/2013.1/src/exe/rbdock.cxx#4 $)

>  <Rbt.Library>
libRbt.so (2013.1, Build901 2013/11/27)

>  <Rbt.Parameter_File>
/export/apps/rDock/src/rDock_2013.1_src/data/scripts/dock_solv.prm

>  <Rbt.Receptor>
prm/pocket_docking_4.prm

>  <SCORE>
-43.5188

>  <SCORE.INTER>
-24.5408

>  <SCORE.INTER.CONST>
1

>  <SCORE.INTER.POLAR>
-4.40389

>  <SCORE.INTER.ROT>
9

>  <SCORE.INTER.SOLV>
31.2442

>  <SCORE.INTER.VDW>
-21.6956

>  <SCORE.INTER.norm>
-0.584305

>  <SCORE.INTRA>
-19.5278

>  <SCORE.INTRA.DIHEDRAL>
-19.9257

>  <SCORE.INTRA.DIHEDRAL.0>
40.6252

>  <SCORE.INTRA.POLAR>
0.539996

>  <SCORE.INTRA.POLAR.0>
-1.20161

>  <SCORE.INTRA.REPUL>
-0.115675

>  <SCORE.INTRA.REPUL.0>
0.115675

>  <SCORE.INTRA.SOLV>
-9.71278

>  <SCORE.INTRA.SOLV.lig_0>
-154.895

>  <SCORE.INTRA.VDW>
-5.9662

>  <SCORE.INTRA.VDW.0>
2.2925

>  <SCORE.INTRA.norm>
-0.464948

>  <SCORE.RESTR>
0.549876

>  <SCORE.RESTR.CAVITY>
0.549876

>  <SCORE.RESTR.norm>
0.0130923

>  <SCORE.SYSTEM>
0

>  <SCORE.SYSTEM.CONST>
0

>  <SCORE.SYSTEM.DIHEDRAL>
0

>  <SCORE.SYSTEM.SOLV>
0

>  <SCORE.SYSTEM.norm>
0

>  <SCORE.heavy>
42

>  <SCORE.norm>
-1.03616

>  <RMSD>
7.090

$$$$

 OpenBabel11021811413D
libRbt.so/2013.1/901 2013/11/27
 42 45  0  0  0  0  0  0  0  0999 V2000
    6.3809   -4.0967   -5.6706 O   0  0  0  0  0  0  0  0  0  0  0  0
    6.3327   -5.2411   -4.8305 C   0  0  0  0  0  0  0  0  0  0  0  0
    7.7361   -5.8279   -4.6740 C   0  0  1  0  0  0  0  0  0  0  0  0
    8.6819   -4.8215   -4.2515 O   0  0  0  0  0  0  0  0  0  0  0  0
    7.8157   -6.9325   -3.6333 C   0  0  2  0  0  0  0  0  0  0  0  0
    9.3091   -6.9421   -3.3532 C   0  0  1  0  0  0  0  0  0  0  0  0
    9.9923   -7.6083   -4.4093 O   0  0  0  0  0  0  0  0  0  0  0  0
    9.6549   -5.4392   -3.3713 C   0  0  2  0  0  0  0  0  0  0  0  0
    6.3885   -9.4739   -0.8745 C   0  0  2  0  0  0  0  0  0  0  0  0
    6.5772   -8.5369   -1.9459 O   0  0  0  0  0  0  0  0  0  0  0  0
    7.1145   -9.1671   -3.1228 C   0  0  2  0  0  0  0  0  0  0  0  0
    7.3462   -8.1897   -4.1585 O   0  0  0  0  0  0  0  0  0  0  0  0
    6.1670  -10.2680   -3.6296 C   0  0  2  0  0  0  0  0  0  0  0  0
    5.0268   -9.6899   -4.3166 N   0  3  0  0  0  0  0  0  0  0  0  0
    5.7006  -11.2161   -2.5185 C   0  0  1  0  0  0  0  0  0  0  0  0
    6.7386  -12.1351   -2.2171 O   0  0  0  0  0  0  0  0  0  0  0  0
    5.2969  -10.4675   -1.2511 C   0  0  2  0  0  0  0  0  0  0  0  0
    4.0655   -9.7862   -1.4610 O   0  0  0  0  0  0  0  0  0  0  0  0
    6.0378   -8.7466    0.4204 C   0  0  0  0  0  0  0  0  0  0  0  0
    6.9404   -7.6313    0.6355 N   0  3  0  0  0  0  0  0  0  0  0  0
   14.8595   -2.2990   -1.1805 C   0  0  1  0  0  0  0  0  0  0  0  0
   14.3189   -2.6226   -2.4786 O   0  0  0  0  0  0  0  0  0  0  0  0
   13.4339   -3.7662   -2.4615 C   0  0  2  0  0  0  0  0  0  0  0  0
   12.2290   -3.5097   -1.6985 O   0  0  0  0  0  0  0  0  0  0  0  0
   14.1657   -5.0081   -1.9383 C   0  0  2  0  0  0  0  0  0  0  0  0
   13.2200   -6.0883   -1.7274 N   0  3  0  0  0  0  0  0  0  0  0  0
   14.9002   -4.7232   -0.6330 C   0  0  1  0  0  0  0  0  0  0  0  0
   15.7470   -5.8161   -0.3126 O   0  0  0  0  0  0  0  0  0  0  0  0
   15.7214   -3.4437   -0.6734 C   0  0  2  0  0  0  0  0  0  0  0  0
   16.2237   -3.1385    0.6193 O   0  0  0  0  0  0  0  0  0  0  0  0
   15.7453   -1.0601   -1.2776 C   0  0  0  0  0  0  0  0  0  0  0  0
   15.9720   -0.4859    0.0360 N   0  3  0  0  0  0  0  0  0  0  0  0
    8.7369   -1.2253   -2.5269 C   0  0  2  0  0  0  0  0  0  0  0  0
    9.9887   -0.9284   -3.3289 C   0  0  0  0  0  0  0  0  0  0  0  0
   11.2084   -1.5240   -2.6504 C   0  0  1  0  0  0  0  0  0  0  0  0
   11.1283   -3.0460   -2.5237 C   0  0  2  0  0  0  0  0  0  0  0  0
    9.7821   -3.4793   -1.8985 C   0  0  1  0  0  0  0  0  0  0  0  0
    8.5344   -2.7273   -2.3803 C   0  0  1  0  0  0  0  0  0  0  0  0
    7.5883   -0.6412   -3.1928 N   0  3  0  0  0  0  0  0  0  0  0  0
   12.3947   -1.1357   -3.3880 N   0  3  0  0  0  0  0  0  0  0  0  0
    9.5764   -4.9084   -2.0172 O   0  0  0  0  0  0  0  0  0  0  0  0
    7.4475   -2.9812   -1.4964 O   0  0  0  0  0  0  0  0  0  0  0  0
  1  2  1  0  0  0  0
  3  2  1  1  0  0  0
  3  4  1  0  0  0  0
  3  5  1  0  0  0  0
  4  8  1  0  0  0  0
  5  6  1  0  0  0  0
  5 12  1  6  0  0  0
  6  7  1  6  0  0  0
  6  8  1  0  0  0  0
  8 41  1  1  0  0  0
  9 10  1  0  0  0  0
  9 17  1  0  0  0  0
  9 19  1  1  0  0  0
 10 11  1  0  0  0  0
 11 12  1  6  0  0  0
 11 13  1  0  0  0  0
 13 14  1  1  0  0  0
 13 15  1  0  0  0  0
 15 16  1  1  0  0  0
 15 17  1  0  0  0  0
 17 18  1  6  0  0  0
 19 20  1  0  0  0  0
 21 22  1  0  0  0  0
 21 29  1  0  0  0  0
 21 31  1  6  0  0  0
 22 23  1  0  0  0  0
 23 24  1  1  0  0  0
 23 25  1  0  0  0  0
 25 26  1  1  0  0  0
 25 27  1  0  0  0  0
 27 28  1  6  0  0  0
 27 29  1  0  0  0  0
 29 30  1  1  0  0  0
 31 32  1  0  0  0  0
 33 34  1  0  0  0  0
 33 38  1  0  0  0  0
 33 39  1  6  0  0  0
 34 35  1  0  0  0  0
 35 36  1  0  0  0  0
 35 40  1  6  0  0  0
 36 24  1  1  0  0  0
 36 37  1  0  0  0  0
 37 38  1  0  0  0  0
 37 41  1  6  0  0  0
 38 42  1  1  0  0  0
M  CHG  6  14   1  20   1  26   1  32   1  39   1  40   1
M  END
>  <CHROM.1>
174.91772361,52.49951237,-166.33739181,-176.91710793,-58.77494566,-47.19202515
36.91323987,-171.98485523,-177.19910513,-173.74903818,21.08602305,162.97922296
93.98244861,-87.56467454,-174.40738497,61.15700049,-177.95099487,53.89026554
-122.31345620,73.71399961,-55.37150381,64.27179817,9.81139574,-5.39764837
-2.31801993,2.53016182,0.35217001,2.86815117

>  <Name>


>  <RI>
0

>  <Rbt.Current_Directory>
/home/itssahil/PROJECTS/Mol_Feturizer/New_Systems/rnas/1qd3

>  <Rbt.Executable>
rbdock ($Id: //depot/dev/client3/rdock/2013.1/src/exe/rbdock.cxx#4 $)

>  <Rbt.Library>
libRbt.so (2013.1, Build901 2013/11/27)

>  <Rbt.Parameter_File>
/export/apps/rDock/src/rDock_2013.1_src/data/scripts/dock_solv.prm

>  <Rbt.Receptor>
prm/pocket_docking_6.prm

>  <SCORE>
-39.1252

>  <SCORE.INTER>
-14.7226

>  <SCORE.INTER.CONST>
1

>  <SCORE.INTER.POLAR>
-3.9662

>  <SCORE.INTER.ROT>
9

>  <SCORE.INTER.SOLV>
20.9007

>  <SCORE.INTER.VDW>
-13.1613

>  <SCORE.INTER.norm>
-0.350538

>  <SCORE.INTRA>
-24.4027

>  <SCORE.INTRA.DIHEDRAL>
-19.8997

>  <SCORE.INTRA.DIHEDRAL.0>
40.6252

>  <SCORE.INTRA.POLAR>
-0.994409

>  <SCORE.INTRA.POLAR.0>
-1.20161

>  <SCORE.INTRA.REPUL>
-0.115675

>  <SCORE.INTRA.REPUL.0>
0.115675

>  <SCORE.INTRA.SOLV>
-6.67273

>  <SCORE.INTRA.SOLV.lig_0>
-154.895

>  <SCORE.INTRA.VDW>
-7.1571

>  <SCORE.INTRA.VDW.0>
2.2925

>  <SCORE.INTRA.norm>
-0.581016

>  <SCORE.RESTR>
0

>  <SCORE.RESTR.CAVITY>
0

>  <SCORE.RESTR.norm>
0

>  <SCORE.SYSTEM>
0

>  <SCORE.SYSTEM.CONST>
0

>  <SCORE.SYSTEM.DIHEDRAL>
0

>  <SCORE.SYSTEM.SOLV>
0

>  <SCORE.SYSTEM.norm>
0

>  <SCORE.heavy>
42

>  <SCORE.norm>
-0.931553

>  <RMSD>
7.127

$$$$

 OpenBabel11021811413D
libRbt.so/2013.1/901 2013/11/27
 42 45  0  0  0  0  0  0  0  0999 V2000
    6.1958   -8.7224    0.7779 O   0  0  0  0  0  0  0  0  0  0  0  0
    6.0660   -8.9571   -0.6170 C   0  0  0  0  0  0  0  0  0  0  0  0
    6.0897   -7.6265   -1.3702 C   0  0  1  0  0  0  0  0  0  0  0  0
    7.3198   -6.9090   -1.1300 O   0  0  0  0  0  0  0  0  0  0  0  0
    5.9917   -7.7850   -2.8784 C   0  0  2  0  0  0  0  0  0  0  0  0
    6.5329   -6.4403   -3.3341 C   0  0  1  0  0  0  0  0  0  0  0  0
    5.5344   -5.4394   -3.1697 O   0  0  0  0  0  0  0  0  0  0  0  0
    7.6865   -6.1981   -2.3395 C   0  0  2  0  0  0  0  0  0  0  0  0
    2.9995  -10.5608   -5.3363 C   0  0  2  0  0  0  0  0  0  0  0  0
    3.1420   -9.4606   -4.4249 O   0  0  0  0  0  0  0  0  0  0  0  0
    4.5177   -9.0696   -4.2652 C   0  0  2  0  0  0  0  0  0  0  0  0
    4.6311   -8.0025   -3.3008 O   0  0  0  0  0  0  0  0  0  0  0  0
    5.1193   -8.6373   -5.6134 C   0  0  2  0  0  0  0  0  0  0  0  0
    4.6619   -7.3094   -5.9792 N   0  3  0  0  0  0  0  0  0  0  0  0
    4.8353   -9.6335   -6.7438 C   0  0  1  0  0  0  0  0  0  0  0  0
    5.7060  -10.7469   -6.6200 O   0  0  0  0  0  0  0  0  0  0  0  0
    3.3869  -10.1147   -6.7404 C   0  0  2  0  0  0  0  0  0  0  0  0
    2.5267   -9.0686   -7.1767 O   0  0  0  0  0  0  0  0  0  0  0  0
    1.5713  -11.0981   -5.3116 C   0  0  0  0  0  0  0  0  0  0  0  0
    1.3167  -11.8032   -4.0695 N   0  3  0  0  0  0  0  0  0  0  0  0
    8.9692   -2.0199   -1.2810 C   0  0  1  0  0  0  0  0  0  0  0  0
    8.4962   -3.1658   -2.0195 O   0  0  0  0  0  0  0  0  0  0  0  0
    9.4999   -3.7430   -2.8860 C   0  0  2  0  0  0  0  0  0  0  0  0
   10.6020   -4.3123   -2.1370 O   0  0  0  0  0  0  0  0  0  0  0  0
    9.9980   -2.7071   -3.9011 C   0  0  2  0  0  0  0  0  0  0  0  0
   11.1451   -3.2297   -4.6200 N   0  3  0  0  0  0  0  0  0  0  0  0
   10.3844   -1.3955   -3.2267 C   0  0  1  0  0  0  0  0  0  0  0  0
   10.6102   -0.3996   -4.2123 O   0  0  0  0  0  0  0  0  0  0  0  0
    9.3409   -0.8989   -2.2378 C   0  0  2  0  0  0  0  0  0  0  0  0
    9.8397    0.2148   -1.5116 O   0  0  0  0  0  0  0  0  0  0  0  0
    7.8672   -1.4989   -0.3630 C   0  0  0  0  0  0  0  0  0  0  0  0
    6.7109   -2.3755   -0.3990 N   0  3  0  0  0  0  0  0  0  0  0  0
   11.0681   -7.9743   -0.0223 C   0  0  2  0  0  0  0  0  0  0  0  0
   10.9517   -6.6962    0.7845 C   0  0  0  0  0  0  0  0  0  0  0  0
   11.1974   -5.4863   -0.0980 C   0  0  1  0  0  0  0  0  0  0  0  0
   10.1830   -5.3713   -1.2367 C   0  0  2  0  0  0  0  0  0  0  0  0
   10.0658   -6.7050   -2.0103 C   0  0  1  0  0  0  0  0  0  0  0  0
   10.0604   -7.9848   -1.1638 C   0  0  1  0  0  0  0  0  0  0  0  0
   10.8350   -9.1140    0.8442 N   0  3  0  0  0  0  0  0  0  0  0  0
   11.1787   -4.2920    0.7238 N   0  3  0  0  0  0  0  0  0  0  0  0
    8.9295   -6.7001   -2.9090 O   0  0  0  0  0  0  0  0  0  0  0  0
   10.2916   -9.1152   -1.9979 O   0  0  0  0  0  0  0  0  0  0  0  0
  1  2  1  0  0  0  0
  3  2  1  1  0  0  0
  3  4  1  0  0  0  0
  3  5  1  0  0  0  0
  4  8  1  0  0  0  0
  5  6  1  0  0  0  0
  5 12  1  1  0  0  0
  6  7  1  1  0  0  0
  6  8  1  0  0  0  0
  8 41  1  6  0  0  0
  9 10  1  0  0  0  0
  9 17  1  0  0  0  0
  9 19  1  6  0  0  0
 10 11  1  0  0  0  0
 11 12  1  1  0  0  0
 11 13  1  0  0  0  0
 13 14  1  6  0  0  0
 13 15  1  0  0  0  0
 15 16  1  1  0  0  0
 15 17  1  0  0  0  0
 17 18  1  1  0  0  0
 19 20  1  0  0  0  0
 21 22  1  0  0  0  0
 21 29  1  0  0  0  0
 21 31  1  1  0  0  0
 22 23  1  0  0  0  0
 23 24  1  1  0  0  0
 23 25  1  0  0  0  0
 25 26  1  1  0  0  0
 25 27  1  0  0  0  0
 27 28  1  6  0  0  0
 27 29  1  0  0  0  0
 29 30  1  1  0  0  0
 31 32  1  0  0  0  0
 33 34  1  0  0  0  0
 33 38  1  0  0  0  0
 33 39  1  1  0  0  0
 34 35  1  0  0  0  0
 35 36  1  0  0  0  0
 35 40  1  1  0  0  0
 36 24  1  6  0  0  0
 36 37  1  0  0  0  0
 37 38  1  0  0  0  0
 37 41  1  1  0  0  0
 38 42  1  6  0  0  0
M  CHG  6  14   1  20   1  26   1  32   1  39   1  40   1
M  END
>  <CHROM.1>
179.46073757,59.39357560,-134.76371230,55.11233297,-55.05549828,-71.61047504
166.65412037,97.09753213,62.56728832,-173.56690815,49.56711827,5.48151452
60.09020447,-155.43531414,64.54371186,-65.61533072,-178.44562892,-167.11473471
-60.34339925,-55.87505454,-45.88494214,61.04664992,7.45925742,-6.39083784
-2.74495426,-2.64536979,-0.74208251,-0.42593897

>  <Name>


>  <RI>
0

>  <Rbt.Current_Directory>
/home/itssahil/PROJECTS/Mol_Feturizer/New_Systems/rnas/1qd3

>  <Rbt.Executable>
rbdock ($Id: //depot/dev/client3/rdock/2013.1/src/exe/rbdock.cxx#4 $)

>  <Rbt.Library>
libRbt.so (2013.1, Build901 2013/11/27)

>  <Rbt.Parameter_File>
/export/apps/rDock/src/rDock_2013.1_src/data/scripts/dock_solv.prm

>  <Rbt.Receptor>
prm/pocket_docking_7.prm

>  <SCORE>
-55.0091

>  <SCORE.INTER>
-33.8251

>  <SCORE.INTER.CONST>
1

>  <SCORE.INTER.POLAR>
-6.57726

>  <SCORE.INTER.ROT>
9

>  <SCORE.INTER.SOLV>
27.0375

>  <SCORE.INTER.VDW>
-19.2384

>  <SCORE.INTER.norm>
-0.80536

>  <SCORE.INTRA>
-21.2672

>  <SCORE.INTRA.DIHEDRAL>
-20.2647

>  <SCORE.INTRA.DIHEDRAL.0>
40.6252

>  <SCORE.INTRA.POLAR>
1.20161

>  <SCORE.INTRA.POLAR.0>
-1.20161

>  <SCORE.INTRA.REPUL>
-0.115675

>  <SCORE.INTRA.REPUL.0>
0.115675

>  <SCORE.INTRA.SOLV>
-12.3127

>  <SCORE.INTRA.SOLV.lig_0>
-154.895

>  <SCORE.INTRA.VDW>
-8.48562

>  <SCORE.INTRA.VDW.0>
2.2925

>  <SCORE.INTRA.norm>
-0.506363

>  <SCORE.RESTR>
0.0832579

>  <SCORE.RESTR.CAVITY>
0.0832579

>  <SCORE.RESTR.norm>
0.00198233

>  <SCORE.SYSTEM>
0

>  <SCORE.SYSTEM.CONST>
0

>  <SCORE.SYSTEM.DIHEDRAL>
0

>  <SCORE.SYSTEM.SOLV>
0

>  <SCORE.SYSTEM.norm>
0

>  <SCORE.heavy>
42

>  <SCORE.norm>
-1.30974

>  <RMSD>
7.131

$$$$

 OpenBabel11021811413D
libRbt.so/2013.1/901 2013/11/27
 42 45  0  0  0  0  0  0  0  0999 V2000
    4.3859   -5.8560   -7.6181 O   0  0  0  0  0  0  0  0  0  0  0  0
    5.1792   -6.7051   -6.8012 C   0  0  0  0  0  0  0  0  0  0  0  0
    6.4484   -5.9697   -6.3692 C   0  0  1  0  0  0  0  0  0  0  0  0
    6.1512   -4.6308   -5.9168 O   0  0  0  0  0  0  0  0  0  0  0  0
    7.1736   -6.6438   -5.2164 C   0  0  2  0  0  0  0  0  0  0  0  0
    8.0233   -5.4899   -4.7109 C   0  0  1  0  0  0  0  0  0  0  0  0
    9.1409   -5.3024   -5.5721 O   0  0  0  0  0  0  0  0  0  0  0  0
    7.0582   -4.2935   -4.8368 C   0  0  2  0  0  0  0  0  0  0  0  0
    5.7219  -10.3601   -6.9016 C   0  0  2  0  0  0  0  0  0  0  0  0
    6.5107   -9.1604   -6.8970 O   0  0  0  0  0  0  0  0  0  0  0  0
    7.2349   -8.9979   -5.6642 C   0  0  2  0  0  0  0  0  0  0  0  0
    7.9698   -7.7564   -5.6695 O   0  0  0  0  0  0  0  0  0  0  0  0
    8.1893  -10.1825   -5.4351 C   0  0  2  0  0  0  0  0  0  0  0  0
    9.3652  -10.0667   -6.2778 N   0  3  0  0  0  0  0  0  0  0  0  0
    7.5146  -11.5442   -5.6385 C   0  0  1  0  0  0  0  0  0  0  0  0
    6.7265  -11.8540   -4.5002 O   0  0  0  0  0  0  0  0  0  0  0  0
    6.6404  -11.5754   -6.8892 C   0  0  2  0  0  0  0  0  0  0  0  0
    7.4584  -11.5830   -8.0534 O   0  0  0  0  0  0  0  0  0  0  0  0
    4.7966  -10.3907   -8.1147 C   0  0  0  0  0  0  0  0  0  0  0  0
    3.4154  -10.2249   -7.7027 N   0  3  0  0  0  0  0  0  0  0  0  0
    8.0477   -6.9706    1.2157 C   0  0  1  0  0  0  0  0  0  0  0  0
    8.7550   -6.8652   -0.0376 O   0  0  0  0  0  0  0  0  0  0  0  0
    7.9215   -6.4126   -1.1294 C   0  0  2  0  0  0  0  0  0  0  0  0
    7.4646   -5.0511   -0.9360 O   0  0  0  0  0  0  0  0  0  0  0  0
    6.7402   -7.3676   -1.3394 C   0  0  2  0  0  0  0  0  0  0  0  0
    5.8033   -6.7956   -2.2885 N   0  3  0  0  0  0  0  0  0  0  0  0
    6.0124   -7.6622   -0.0325 C   0  0  1  0  0  0  0  0  0  0  0  0
    5.0875   -8.7206   -0.2285 O   0  0  0  0  0  0  0  0  0  0  0  0
    6.9512   -8.0179    1.1102 C   0  0  2  0  0  0  0  0  0  0  0  0
    6.2332   -8.0950    2.3329 O   0  0  0  0  0  0  0  0  0  0  0  0
    9.0043   -7.4113    2.3198 C   0  0  0  0  0  0  0  0  0  0  0  0
    9.8970   -8.4513    1.8418 N   0  3  0  0  0  0  0  0  0  0  0  0
    8.4681   -1.1722   -2.3666 C   0  0  2  0  0  0  0  0  0  0  0  0
    9.5861   -2.0448   -1.8311 C   0  0  0  0  0  0  0  0  0  0  0  0
    9.0206   -3.1900   -1.0117 C   0  0  1  0  0  0  0  0  0  0  0  0
    8.1116   -4.1080   -1.8302 C   0  0  2  0  0  0  0  0  0  0  0  0
    7.0450   -3.2912   -2.5958 C   0  0  1  0  0  0  0  0  0  0  0  0
    7.5229   -1.9841   -3.2419 C   0  0  1  0  0  0  0  0  0  0  0  0
    9.0346   -0.0837   -3.1400 N   0  3  0  0  0  0  0  0  0  0  0  0
   10.1171   -3.9422   -0.4335 N   0  3  0  0  0  0  0  0  0  0  0  0
    6.3545   -4.1050   -3.5755 O   0  0  0  0  0  0  0  0  0  0  0  0
    6.4001   -1.1870   -3.6041 O   0  0  0  0  0  0  0  0  0  0  0  0
  1  2  1  0  0  0  0
  3  2  1  1  0  0  0
  3  4  1  0  0  0  0
  3  5  1  0  0  0  0
  4  8  1  0  0  0  0
  5  6  1  0  0  0  0
  5 12  1  6  0  0  0
  6  7  1  6  0  0  0
  6  8  1  0  0  0  0
  8 41  1  1  0  0  0
  9 10  1  0  0  0  0
  9 17  1  0  0  0  0
  9 19  1  6  0  0  0
 10 11  1  0  0  0  0
 11 12  1  6  0  0  0
 11 13  1  0  0  0  0
 13 14  1  6  0  0  0
 13 15  1  0  0  0  0
 15 16  1  1  0  0  0
 15 17  1  0  0  0  0
 17 18  1  6  0  0  0
 19 20  1  0  0  0  0
 21 22  1  0  0  0  0
 21 29  1  0  0  0  0
 21 31  1  1  0  0  0
 22 23  1  0  0  0  0
 23 24  1  1  0  0  0
 23 25  1  0  0  0  0
 25 26  1  6  0  0  0
 25 27  1  0  0  0  0
 27 28  1  6  0  0  0
 27 29  1  0  0  0  0
 29 30  1  1  0  0  0
 31 32  1  0  0  0  0
 33 34  1  0  0  0  0
 33 38  1  0  0  0  0
 33 39  1  6  0  0  0
 34 35  1  0  0  0  0
 35 36  1  0  0  0  0
 35 40  1  6  0  0  0
 36 24  1  1  0  0  0
 36 37  1  0  0  0  0
 37 38  1  0  0  0  0
 37 41  1  6  0  0  0
 38 42  1  1  0  0  0
M  CHG  6  14   1  20   1  26   1  32   1  39   1  40   1
M  END
>  <CHROM.1>
55.39984742,45.71621257,-90.07816577,79.14143111,-157.15336229,-110.24574832
86.33822485,64.63738551,-179.05228687,-64.57507538,-67.76920186,-41.66782856
108.14439196,-111.67077218,145.70872802,-83.67273134,70.74108634,65.33184013
-98.38605750,60.72558198,-81.11684391,-59.93123324,7.24247056,-6.71917493
-3.48415626,2.84610868,1.32953972,2.66276566

>  <Name>


>  <RI>
0

>  <Rbt.Current_Directory>
/home/itssahil/PROJECTS/Mol_Feturizer/New_Systems/rnas/1qd3

>  <Rbt.Executable>
rbdock ($Id: //depot/dev/client3/rdock/2013.1/src/exe/rbdock.cxx#4 $)

>  <Rbt.Library>
libRbt.so (2013.1, Build901 2013/11/27)

>  <Rbt.Parameter_File>
/export/apps/rDock/src/rDock_2013.1_src/data/scripts/dock_solv.prm

>  <Rbt.Receptor>
prm/pocket_docking_6.prm

>  <SCORE>
-55.6599

>  <SCORE.INTER>
-42.4063

>  <SCORE.INTER.CONST>
1

>  <SCORE.INTER.POLAR>
-7.74346

>  <SCORE.INTER.ROT>
9

>  <SCORE.INTER.SOLV>
30.6579

>  <SCORE.INTER.VDW>
-22.2787

>  <SCORE.INTER.norm>
-1.00967

>  <SCORE.INTRA>
-13.2577

>  <SCORE.INTRA.DIHEDRAL>
1.14253

>  <SCORE.INTRA.DIHEDRAL.0>
40.6252

>  <SCORE.INTRA.POLAR>
0.0533615

>  <SCORE.INTRA.POLAR.0>
-1.20161

>  <SCORE.INTRA.REPUL>
-0.115675

>  <SCORE.INTRA.REPUL.0>
0.115675

>  <SCORE.INTRA.SOLV>
-9.08079

>  <SCORE.INTRA.SOLV.lig_0>
-154.895

>  <SCORE.INTRA.VDW>
-8.89159

>  <SCORE.INTRA.VDW.0>
2.2925

>  <SCORE.INTRA.norm>
-0.315659

>  <SCORE.RESTR>
0.00408623

>  <SCORE.RESTR.CAVITY>
0.00408623

>  <SCORE.RESTR.norm>
9.72912e-05

>  <SCORE.SYSTEM>
0

>  <SCORE.SYSTEM.CONST>
0

>  <SCORE.SYSTEM.DIHEDRAL>
0

>  <SCORE.SYSTEM.SOLV>
0

>  <SCORE.SYSTEM.norm>
0

>  <SCORE.heavy>
42

>  <SCORE.norm>
-1.32524

>  <RMSD>
7.147

$$$$

 OpenBabel11021811413D
libRbt.so/2013.1/901 2013/11/27
 42 45  0  0  0  0  0  0  0  0999 V2000
    5.1519   -4.9965   -6.1630 O   0  0  0  0  0  0  0  0  0  0  0  0
    6.1997   -4.7108   -5.2474 C   0  0  0  0  0  0  0  0  0  0  0  0
    6.7650   -6.0152   -4.6841 C   0  0  1  0  0  0  0  0  0  0  0  0
    8.0017   -5.7880   -3.9738 O   0  0  0  0  0  0  0  0  0  0  0  0
    5.8373   -6.6957   -3.6912 C   0  0  2  0  0  0  0  0  0  0  0  0
    6.8203   -7.6034   -2.9709 C   0  0  1  0  0  0  0  0  0  0  0  0
    7.1139   -8.7348   -3.7830 O   0  0  0  0  0  0  0  0  0  0  0  0
    8.0684   -6.7052   -2.8525 C   0  0  2  0  0  0  0  0  0  0  0  0
    5.4030  -10.4425   -6.3411 C   0  0  2  0  0  0  0  0  0  0  0  0
    4.8703   -9.6029   -5.3053 O   0  0  0  0  0  0  0  0  0  0  0  0
    5.2995   -8.2367   -5.4468 C   0  0  2  0  0  0  0  0  0  0  0  0
    4.7952   -7.4334   -4.3596 O   0  0  0  0  0  0  0  0  0  0  0  0
    4.8381   -7.6597   -6.7961 C   0  0  2  0  0  0  0  0  0  0  0  0
    3.4240   -7.3350   -6.7607 N   0  3  0  0  0  0  0  0  0  0  0  0
    5.1478   -8.5827   -7.9805 C   0  0  1  0  0  0  0  0  0  0  0  0
    6.5230   -8.4767   -8.3131 O   0  0  0  0  0  0  0  0  0  0  0  0
    4.8049  -10.0400   -7.6831 C   0  0  2  0  0  0  0  0  0  0  0  0
    3.3927  -10.2118   -7.6613 O   0  0  0  0  0  0  0  0  0  0  0  0
    5.1222  -11.9119   -6.0400 C   0  0  0  0  0  0  0  0  0  0  0  0
    5.7911  -12.7637   -7.0054 N   0  3  0  0  0  0  0  0  0  0  0  0
   10.3974   -2.0946   -2.5376 C   0  0  1  0  0  0  0  0  0  0  0  0
    9.4206   -3.1522   -2.6349 O   0  0  0  0  0  0  0  0  0  0  0  0
   10.0018   -4.4436   -2.9281 C   0  0  2  0  0  0  0  0  0  0  0  0
   10.8415   -4.9195   -1.8473 O   0  0  0  0  0  0  0  0  0  0  0  0
   10.7756   -4.4001   -4.2513 C   0  0  2  0  0  0  0  0  0  0  0  0
   11.5243   -5.6306   -4.4281 N   0  3  0  0  0  0  0  0  0  0  0  0
   11.7358   -3.2171   -4.3059 C   0  0  1  0  0  0  0  0  0  0  0  0
   12.2497   -3.0789   -5.6216 O   0  0  0  0  0  0  0  0  0  0  0  0
   11.0978   -1.9059   -3.8733 C   0  0  2  0  0  0  0  0  0  0  0  0
   12.0834   -0.8893   -3.7661 O   0  0  0  0  0  0  0  0  0  0  0  0
    9.7093   -0.7788   -2.1855 C   0  0  0  0  0  0  0  0  0  0  0  0
    9.0065   -0.8887   -0.9203 N   0  3  0  0  0  0  0  0  0  0  0  0
    9.7107   -6.9430    1.7201 C   0  0  2  0  0  0  0  0  0  0  0  0
   10.4575   -5.6305    1.8524 C   0  0  0  0  0  0  0  0  0  0  0  0
   11.1225   -5.2626    0.5389 C   0  0  1  0  0  0  0  0  0  0  0  0
   10.1176   -5.0742   -0.5984 C   0  0  2  0  0  0  0  0  0  0  0  0
    9.1559   -6.2813   -0.6928 C   0  0  1  0  0  0  0  0  0  0  0  0
    8.6440   -6.8495    0.6374 C   0  0  1  0  0  0  0  0  0  0  0  0
    9.0899   -7.2742    2.9885 N   0  3  0  0  0  0  0  0  0  0  0  0
   11.9083   -4.0590    0.7294 N   0  3  0  0  0  0  0  0  0  0  0  0
    8.0410   -6.0048   -1.5757 O   0  0  0  0  0  0  0  0  0  0  0  0
    8.0645   -8.1321    0.4223 O   0  0  0  0  0  0  0  0  0  0  0  0
  1  2  1  0  0  0  0
  3  2  1  1  0  0  0
  3  4  1  0  0  0  0
  3  5  1  0  0  0  0
  4  8  1  0  0  0  0
  5  6  1  0  0  0  0
  5 12  1  6  0  0  0
  6  7  1  6  0  0  0
  6  8  1  0  0  0  0
  8 41  1  1  0  0  0
  9 10  1  0  0  0  0
  9 17  1  0  0  0  0
  9 19  1  1  0  0  0
 10 11  1  0  0  0  0
 11 12  1  1  0  0  0
 11 13  1  0  0  0  0
 13 14  1  1  0  0  0
 13 15  1  0  0  0  0
 15 16  1  1  0  0  0
 15 17  1  0  0  0  0
 17 18  1  1  0  0  0
 19 20  1  0  0  0  0
 21 22  1  0  0  0  0
 21 29  1  0  0  0  0
 21 31  1  6  0  0  0
 22 23  1  0  0  0  0
 23 24  1  1  0  0  0
 23 25  1  0  0  0  0
 25 26  1  1  0  0  0
 25 27  1  0  0  0  0
 27 28  1  6  0  0  0
 27 29  1  0  0  0  0
 29 30  1  1  0  0  0
 31 32  1  0  0  0  0
 33 34  1  0  0  0  0
 33 38  1  0  0  0  0
 33 39  1  1  0  0  0
 34 35  1  0  0  0  0
 35 36  1  0  0  0  0
 35 40  1  1  0  0  0
 36 24  1  6  0  0  0
 36 37  1  0  0  0  0
 37 38  1  0  0  0  0
 37 41  1  6  0  0  0
 38 42  1  6  0  0  0
M  CHG  6  14   1  20   1  26   1  32   1  39   1  40   1
M  END
>  <CHROM.1>
-170.84707420,167.94954525,46.04174922,-176.44769666,-123.89697850,-173.50755912
127.10911359,171.32831702,62.71677362,46.43840542,172.41080509,59.52380225
60.17268685,-167.14458529,-42.87677183,60.32111092,-76.97797046,176.24979931
-67.43379205,169.92085942,108.02224820,-63.73692929,8.05051020,-6.21783077
-3.50344094,-2.95658235,0.93264951,2.09692500

>  <Name>


>  <RI>
0

>  <Rbt.Current_Directory>
/home/itssahil/PROJECTS/Mol_Feturizer/New_Systems/rnas/1qd3

>  <Rbt.Executable>
rbdock ($Id: //depot/dev/client3/rdock/2013.1/src/exe/rbdock.cxx#4 $)

>  <Rbt.Library>
libRbt.so (2013.1, Build901 2013/11/27)

>  <Rbt.Parameter_File>
/export/apps/rDock/src/rDock_2013.1_src/data/scripts/dock_solv.prm

>  <Rbt.Receptor>
prm/pocket_docking_6.prm

>  <SCORE>
-32.7365

>  <SCORE.INTER>
-19.3047

>  <SCORE.INTER.CONST>
1

>  <SCORE.INTER.POLAR>
-4.40066

>  <SCORE.INTER.ROT>
9

>  <SCORE.INTER.SOLV>
16.1694

>  <SCORE.INTER.VDW>
-13.1907

>  <SCORE.INTER.norm>
-0.459635

>  <SCORE.INTRA>
-13.4319

>  <SCORE.INTRA.DIHEDRAL>
-11.9026

>  <SCORE.INTRA.DIHEDRAL.0>
40.6252

>  <SCORE.INTRA.POLAR>
1.04351

>  <SCORE.INTRA.POLAR.0>
-1.20161

>  <SCORE.INTRA.REPUL>
-0.115675

>  <SCORE.INTRA.REPUL.0>
0.115675

>  <SCORE.INTRA.SOLV>
-10.9392

>  <SCORE.INTRA.SOLV.lig_0>
-154.895

>  <SCORE.INTRA.VDW>
-4.98052

>  <SCORE.INTRA.VDW.0>
2.2925

>  <SCORE.INTRA.norm>
-0.319806

>  <SCORE.RESTR>
0

>  <SCORE.RESTR.CAVITY>
0

>  <SCORE.RESTR.norm>
0

>  <SCORE.SYSTEM>
0

>  <SCORE.SYSTEM.CONST>
0

>  <SCORE.SYSTEM.DIHEDRAL>
0

>  <SCORE.SYSTEM.SOLV>
0

>  <SCORE.SYSTEM.norm>
0

>  <SCORE.heavy>
42

>  <SCORE.norm>
-0.779441

>  <RMSD>
7.170

$$$$

 OpenBabel11021811413D
libRbt.so/2013.1/901 2013/11/27
 42 45  0  0  0  0  0  0  0  0999 V2000
    4.8888   -9.1085   -0.2002 O   0  0  0  0  0  0  0  0  0  0  0  0
    5.4388   -8.9829   -1.5038 C   0  0  0  0  0  0  0  0  0  0  0  0
    5.4453   -7.5125   -1.9235 C   0  0  1  0  0  0  0  0  0  0  0  0
    6.2193   -6.7083   -1.0072 O   0  0  0  0  0  0  0  0  0  0  0  0
    6.0562   -7.2792   -3.2953 C   0  0  2  0  0  0  0  0  0  0  0  0
    6.3767   -5.7965   -3.2074 C   0  0  1  0  0  0  0  0  0  0  0  0
    5.1865   -5.0359   -3.3830 O   0  0  0  0  0  0  0  0  0  0  0  0
    6.8789   -5.6561   -1.7559 C   0  0  2  0  0  0  0  0  0  0  0  0
    5.4623   -8.9276   -7.7281 C   0  0  2  0  0  0  0  0  0  0  0  0
    4.8309   -8.5014   -6.5111 O   0  0  0  0  0  0  0  0  0  0  0  0
    5.7768   -7.9421   -5.5820 C   0  0  2  0  0  0  0  0  0  0  0  0
    5.1204   -7.5784   -4.3497 O   0  0  0  0  0  0  0  0  0  0  0  0
    6.4803   -6.7185   -6.1939 C   0  0  2  0  0  0  0  0  0  0  0  0
    5.6047   -5.5611   -6.1803 N   0  3  0  0  0  0  0  0  0  0  0  0
    7.0081   -6.9763   -7.6101 C   0  0  1  0  0  0  0  0  0  0  0  0
    8.2076   -7.7303   -7.5356 O   0  0  0  0  0  0  0  0  0  0  0  0
    5.9939   -7.7141   -8.4799 C   0  0  2  0  0  0  0  0  0  0  0  0
    4.9229   -6.8423   -8.8226 O   0  0  0  0  0  0  0  0  0  0  0  0
    4.4843   -9.7172   -8.5934 C   0  0  0  0  0  0  0  0  0  0  0  0
    3.2396   -8.9875   -8.7461 N   0  3  0  0  0  0  0  0  0  0  0  0
   11.4487   -8.2139    0.7968 C   0  0  1  0  0  0  0  0  0  0  0  0
   10.3163   -7.8505   -0.0204 O   0  0  0  0  0  0  0  0  0  0  0  0
    9.5612   -6.7369    0.5098 C   0  0  2  0  0  0  0  0  0  0  0  0
   10.3299   -5.5086    0.5072 O   0  0  0  0  0  0  0  0  0  0  0  0
    9.0381   -7.0587    1.9150 C   0  0  2  0  0  0  0  0  0  0  0  0
    8.4680   -5.8675    2.5163 N   0  3  0  0  0  0  0  0  0  0  0  0
   10.1414   -7.5974    2.8190 C   0  0  1  0  0  0  0  0  0  0  0  0
    9.5736   -8.0994    4.0189 O   0  0  0  0  0  0  0  0  0  0  0  0
   10.9772   -8.6855    2.1627 C   0  0  2  0  0  0  0  0  0  0  0  0
   12.0943   -9.0088    2.9777 O   0  0  0  0  0  0  0  0  0  0  0  0
   12.2131   -9.3643    0.1481 C   0  0  0  0  0  0  0  0  0  0  0  0
   13.5185   -9.5250    0.7621 N   0  3  0  0  0  0  0  0  0  0  0  0
    9.9648   -2.4198   -2.3955 C   0  0  2  0  0  0  0  0  0  0  0  0
   11.3584   -2.8886   -2.0261 C   0  0  0  0  0  0  0  0  0  0  0  0
   11.3285   -3.6732   -0.7276 C   0  0  1  0  0  0  0  0  0  0  0  0
   10.4608   -4.9294   -0.8175 C   0  0  2  0  0  0  0  0  0  0  0  0
    9.0625   -4.5965   -1.3875 C   0  0  1  0  0  0  0  0  0  0  0  0
    9.0229   -3.6052   -2.5580 C   0  0  1  0  0  0  0  0  0  0  0  0
   10.0218   -1.6689   -3.6352 N   0  3  0  0  0  0  0  0  0  0  0  0
   12.6864   -4.0175   -0.3537 N   0  3  0  0  0  0  0  0  0  0  0  0
    8.3284   -5.7976   -1.7299 O   0  0  0  0  0  0  0  0  0  0  0  0
    7.6916   -3.1378   -2.7488 O   0  0  0  0  0  0  0  0  0  0  0  0
  1  2  1  0  0  0  0
  3  2  1  1  0  0  0
  3  4  1  0  0  0  0
  3  5  1  0  0  0  0
  4  8  1  0  0  0  0
  5  6  1  0  0  0  0
  5 12  1  6  0  0  0
  6  7  1  1  0  0  0
  6  8  1  0  0  0  0
  8 41  1  6  0  0  0
  9 10  1  0  0  0  0
  9 17  1  0  0  0  0
  9 19  1  6  0  0  0
 10 11  1  0  0  0  0
 11 12  1  1  0  0  0
 11 13  1  0  0  0  0
 13 14  1  6  0  0  0
 13 15  1  0  0  0  0
 15 16  1  1  0  0  0
 15 17  1  0  0  0  0
 17 18  1  1  0  0  0
 19 20  1  0  0  0  0
 21 22  1  0  0  0  0
 21 29  1  0  0  0  0
 21 31  1  6  0  0  0
 22 23  1  0  0  0  0
 23 24  1  1  0  0  0
 23 25  1  0  0  0  0
 25 26  1  1  0  0  0
 25 27  1  0  0  0  0
 27 28  1  1  0  0  0
 27 29  1  0  0  0  0
 29 30  1  1  0  0  0
 31 32  1  0  0  0  0
 33 34  1  0  0  0  0
 33 38  1  0  0  0  0
 33 39  1  6  0  0  0
 34 35  1  0  0  0  0
 35 36  1  0  0  0  0
 35 40  1  6  0  0  0
 36 24  1  1  0  0  0
 36 37  1  0  0  0  0
 37 38  1  0  0  0  0
 37 41  1  6  0  0  0
 38 42  1  1  0  0  0
M  CHG  6  14   1  20   1  26   1  32   1  39   1  40   1
M  END
>  <CHROM.1>
69.12777466,59.21750064,-154.34527042,58.63616519,-131.02561555,50.27854257
167.80097843,175.02820032,63.67100482,169.21580734,51.78997214,165.83963858
75.09746745,-177.83071635,52.65211039,-64.11555478,-176.89542863,-54.72049171
49.98012862,-173.09866139,156.38714432,67.95281602,8.10911067,-6.65259203
-2.41949079,2.59518201,-0.86363005,-0.76217886

>  <Name>


>  <RI>
0

>  <Rbt.Current_Directory>
/home/itssahil/PROJECTS/Mol_Feturizer/New_Systems/rnas/1qd3

>  <Rbt.Executable>
rbdock ($Id: //depot/dev/client3/rdock/2013.1/src/exe/rbdock.cxx#4 $)

>  <Rbt.Library>
libRbt.so (2013.1, Build901 2013/11/27)

>  <Rbt.Parameter_File>
/export/apps/rDock/src/rDock_2013.1_src/data/scripts/dock_solv.prm

>  <Rbt.Receptor>
prm/pocket_docking_8.prm

>  <SCORE>
-60.2629

>  <SCORE.INTER>
-34.3759

>  <SCORE.INTER.CONST>
1

>  <SCORE.INTER.POLAR>
-6.81374

>  <SCORE.INTER.ROT>
9

>  <SCORE.INTER.SOLV>
23.1489

>  <SCORE.INTER.VDW>
-17.5211

>  <SCORE.INTER.norm>
-0.818474

>  <SCORE.INTRA>
-25.887

>  <SCORE.INTRA.DIHEDRAL>
-22.0422

>  <SCORE.INTRA.DIHEDRAL.0>
40.6252

>  <SCORE.INTRA.POLAR>
-1.31775

>  <SCORE.INTRA.POLAR.0>
-1.20161

>  <SCORE.INTRA.REPUL>
-0.115675

>  <SCORE.INTRA.REPUL.0>
0.115675

>  <SCORE.INTRA.SOLV>
-5.68079

>  <SCORE.INTRA.SOLV.lig_0>
-154.895

>  <SCORE.INTRA.VDW>
-6.96682

>  <SCORE.INTRA.VDW.0>
2.2925

>  <SCORE.INTRA.norm>
-0.616358

>  <SCORE.RESTR>
0

>  <SCORE.RESTR.CAVITY>
0

>  <SCORE.RESTR.norm>
0

>  <SCORE.SYSTEM>
0

>  <SCORE.SYSTEM.CONST>
0

>  <SCORE.SYSTEM.DIHEDRAL>
0

>  <SCORE.SYSTEM.SOLV>
0

>  <SCORE.SYSTEM.norm>
0

>  <SCORE.heavy>
42

>  <SCORE.norm>
-1.43483

>  <RMSD>
7.183

$$$$

 OpenBabel11021811413D
libRbt.so/2013.1/901 2013/11/27
 42 45  0  0  0  0  0  0  0  0999 V2000
    7.4432   -8.9525   -3.4716 O   0  0  0  0  0  0  0  0  0  0  0  0
    6.2546   -8.8012   -2.7087 C   0  0  0  0  0  0  0  0  0  0  0  0
    5.8610   -7.3247   -2.6510 C   0  0  1  0  0  0  0  0  0  0  0  0
    6.6013   -6.6235   -1.6283 O   0  0  0  0  0  0  0  0  0  0  0  0
    6.1342   -6.5763   -3.9451 C   0  0  2  0  0  0  0  0  0  0  0  0
    6.1352   -5.1428   -3.4413 C   0  0  1  0  0  0  0  0  0  0  0  0
    4.7968   -4.7056   -3.2324 O   0  0  0  0  0  0  0  0  0  0  0  0
    6.8615   -5.2726   -2.0870 C   0  0  2  0  0  0  0  0  0  0  0  0
    6.7215   -9.2153   -7.1525 C   0  0  2  0  0  0  0  0  0  0  0  0
    6.1395   -8.6773   -5.9553 O   0  0  0  0  0  0  0  0  0  0  0  0
    5.6269   -7.3479   -6.1573 C   0  0  2  0  0  0  0  0  0  0  0  0
    5.1029   -6.8153   -4.9230 O   0  0  0  0  0  0  0  0  0  0  0  0
    4.5390   -7.3449   -7.2448 C   0  0  2  0  0  0  0  0  0  0  0  0
    3.2910   -7.8740   -6.7261 N   0  3  0  0  0  0  0  0  0  0  0  0
    4.9565   -8.0992   -8.5127 C   0  0  1  0  0  0  0  0  0  0  0  0
    5.8355   -7.2877   -9.2755 O   0  0  0  0  0  0  0  0  0  0  0  0
    5.6339   -9.4300   -8.1974 C   0  0  2  0  0  0  0  0  0  0  0  0
    4.6722  -10.3630   -7.7188 O   0  0  0  0  0  0  0  0  0  0  0  0
    7.4541  -10.5205   -6.8548 C   0  0  0  0  0  0  0  0  0  0  0  0
    8.5642  -10.2836   -5.9513 N   0  3  0  0  0  0  0  0  0  0  0  0
   11.3596   -5.3190   -3.7242 C   0  0  1  0  0  0  0  0  0  0  0  0
   10.5448   -6.0444   -2.7798 O   0  0  0  0  0  0  0  0  0  0  0  0
   11.0241   -5.9500   -1.4186 C   0  0  2  0  0  0  0  0  0  0  0  0
   10.9356   -4.5984   -0.9038 O   0  0  0  0  0  0  0  0  0  0  0  0
   12.4554   -6.4900   -1.3110 C   0  0  2  0  0  0  0  0  0  0  0  0
   12.9977   -6.1978    0.0029 N   0  3  0  0  0  0  0  0  0  0  0  0
   13.3676   -5.8889   -2.3745 C   0  0  1  0  0  0  0  0  0  0  0  0
   14.6053   -6.5832   -2.3906 O   0  0  0  0  0  0  0  0  0  0  0  0
   12.7593   -5.9099   -3.7684 C   0  0  2  0  0  0  0  0  0  0  0  0
   13.5699   -5.1727   -4.6718 O   0  0  0  0  0  0  0  0  0  0  0  0
   10.7639   -5.4341   -5.1244 C   0  0  0  0  0  0  0  0  0  0  0  0
    9.3601   -5.0653   -5.1178 N   0  3  0  0  0  0  0  0  0  0  0  0
    8.5711   -1.2366   -2.0025 C   0  0  2  0  0  0  0  0  0  0  0  0
   10.0501   -1.2054   -2.3334 C   0  0  0  0  0  0  0  0  0  0  0  0
   10.7957   -2.2592   -1.5356 C   0  0  1  0  0  0  0  0  0  0  0  0
   10.3155   -3.6788   -1.8405 C   0  0  2  0  0  0  0  0  0  0  0  0
    8.7761   -3.7771   -1.7346 C   0  0  1  0  0  0  0  0  0  0  0  0
    7.9773   -2.6033   -2.3163 C   0  0  1  0  0  0  0  0  0  0  0  0
    7.8833   -0.2179   -2.7726 N   0  3  0  0  0  0  0  0  0  0  0  0
   12.2157   -2.1335   -1.8004 N   0  3  0  0  0  0  0  0  0  0  0  0
    8.2848   -5.0278   -2.2760 O   0  0  0  0  0  0  0  0  0  0  0  0
    6.6319   -2.6598   -1.8540 O   0  0  0  0  0  0  0  0  0  0  0  0
  1  2  1  0  0  0  0
  3  2  1  6  0  0  0
  3  4  1  0  0  0  0
  3  5  1  0  0  0  0
  4  8  1  0  0  0  0
  5  6  1  0  0  0  0
  5 12  1  6  0  0  0
  6  7  1  1  0  0  0
  6  8  1  0  0  0  0
  8 41  1  6  0  0  0
  9 10  1  0  0  0  0
  9 17  1  0  0  0  0
  9 19  1  1  0  0  0
 10 11  1  0  0  0  0
 11 12  1  1  0  0  0
 11 13  1  0  0  0  0
 13 14  1  1  0  0  0
 13 15  1  0  0  0  0
 15 16  1  1  0  0  0
 15 17  1  0  0  0  0
 17 18  1  1  0  0  0
 19 20  1  0  0  0  0
 21 22  1  0  0  0  0
 21 29  1  0  0  0  0
 21 31  1  6  0  0  0
 22 23  1  0  0  0  0
 23 24  1  6  0  0  0
 23 25  1  0  0  0  0
 25 26  1  1  0  0  0
 25 27  1  0  0  0  0
 27 28  1  6  0  0  0
 27 29  1  0  0  0  0
 29 30  1  6  0  0  0
 31 32  1  0  0  0  0
 33 34  1  0  0  0  0
 33 38  1  0  0  0  0
 33 39  1  6  0  0  0
 34 35  1  0  0  0  0
 35 36  1  0  0  0  0
 35 40  1  6  0  0  0
 36 24  1  1  0  0  0
 36 37  1  0  0  0  0
 37 38  1  0  0  0  0
 37 41  1  6  0  0  0
 38 42  1  1  0  0  0
M  CHG  6  14   1  20   1  26   1  32   1  39   1  40   1
M  END
>  <CHROM.1>
-66.81205008,-82.13155458,-123.28588370,-31.03584619,-134.44710419,-63.34413170
67.54506593,72.45727692,-59.20038317,45.80228806,171.81746615,51.86264064
3.49078770,-155.22261677,62.27746683,62.95048120,-68.68465399,-97.10275926
75.43418296,-52.94512898,173.56863938,63.44310675,8.42286656,-5.96694768
-3.86752038,-2.34206078,-0.26672675,0.55553971

>  <Name>


>  <RI>
0

>  <Rbt.Current_Directory>
/home/itssahil/PROJECTS/Mol_Feturizer/New_Systems/rnas/1qd3

>  <Rbt.Executable>
rbdock ($Id: //depot/dev/client3/rdock/2013.1/src/exe/rbdock.cxx#4 $)

>  <Rbt.Library>
libRbt.so (2013.1, Build901 2013/11/27)

>  <Rbt.Parameter_File>
/export/apps/rDock/src/rDock_2013.1_src/data/scripts/dock_solv.prm

>  <Rbt.Receptor>
prm/pocket_docking_5.prm

>  <SCORE>
-47.3851

>  <SCORE.INTER>
-28.7075

>  <SCORE.INTER.CONST>
1

>  <SCORE.INTER.POLAR>
-6.4105

>  <SCORE.INTER.ROT>
9

>  <SCORE.INTER.SOLV>
22.6058

>  <SCORE.INTER.VDW>
-14.9053

>  <SCORE.INTER.norm>
-0.683511

>  <SCORE.INTRA>
-18.6776

>  <SCORE.INTRA.DIHEDRAL>
-5.03003

>  <SCORE.INTRA.DIHEDRAL.0>
40.6252

>  <SCORE.INTRA.POLAR>
-2.35027

>  <SCORE.INTRA.POLAR.0>
-1.20161

>  <SCORE.INTRA.REPUL>
-0.10842

>  <SCORE.INTRA.REPUL.0>
0.115675

>  <SCORE.INTRA.SOLV>
-4.42655

>  <SCORE.INTRA.SOLV.lig_0>
-154.895

>  <SCORE.INTRA.VDW>
-5.41633

>  <SCORE.INTRA.VDW.0>
2.2925

>  <SCORE.INTRA.norm>
-0.444706

>  <SCORE.RESTR>
0

>  <SCORE.RESTR.CAVITY>
0

>  <SCORE.RESTR.norm>
0

>  <SCORE.SYSTEM>
0

>  <SCORE.SYSTEM.CONST>
0

>  <SCORE.SYSTEM.DIHEDRAL>
0

>  <SCORE.SYSTEM.SOLV>
0

>  <SCORE.SYSTEM.norm>
0

>  <SCORE.heavy>
42

>  <SCORE.norm>
-1.12822

>  <RMSD>
7.184

$$$$

 OpenBabel11021811413D
libRbt.so/2013.1/901 2013/11/27
 42 45  0  0  0  0  0  0  0  0999 V2000
   14.4710   -3.9133   -2.2703 O   0  0  0  0  0  0  0  0  0  0  0  0
   13.4914   -4.7287   -2.8973 C   0  0  0  0  0  0  0  0  0  0  0  0
   13.0028   -5.7965   -1.9179 C   0  0  1  0  0  0  0  0  0  0  0  0
   12.3510   -5.2016   -0.7746 O   0  0  0  0  0  0  0  0  0  0  0  0
   11.9861   -6.7504   -2.5229 C   0  0  2  0  0  0  0  0  0  0  0  0
   11.3494   -7.3124   -1.2629 C   0  0  1  0  0  0  0  0  0  0  0  0
   12.2134   -8.2806   -0.6782 O   0  0  0  0  0  0  0  0  0  0  0  0
   11.2663   -6.0681   -0.3556 C   0  0  2  0  0  0  0  0  0  0  0  0
   10.1466   -8.7936   -5.8017 C   0  0  2  0  0  0  0  0  0  0  0  0
   11.1413   -7.9871   -5.1524 O   0  0  0  0  0  0  0  0  0  0  0  0
   11.6713   -8.6288   -3.9785 C   0  0  2  0  0  0  0  0  0  0  0  0
   12.6236   -7.7688   -3.3188 O   0  0  0  0  0  0  0  0  0  0  0  0
   12.3272   -9.9716   -4.3431 C   0  0  2  0  0  0  0  0  0  0  0  0
   13.6252   -9.7606   -4.9572 N   0  3  0  0  0  0  0  0  0  0  0  0
   11.4441  -10.8463   -5.2408 C   0  0  1  0  0  0  0  0  0  0  0  0
   10.4351  -11.4600   -4.4545 O   0  0  0  0  0  0  0  0  0  0  0  0
   10.7974  -10.0483   -6.3698 C   0  0  2  0  0  0  0  0  0  0  0  0
   11.7780   -9.6957   -7.3387 O   0  0  0  0  0  0  0  0  0  0  0  0
    9.4445   -8.0007   -6.9004 C   0  0  0  0  0  0  0  0  0  0  0  0
    8.7993   -6.8263   -6.3442 N   0  3  0  0  0  0  0  0  0  0  0  0
    7.5489   -3.6050   -1.6830 C   0  0  1  0  0  0  0  0  0  0  0  0
    6.8474   -4.5675   -0.8685 O   0  0  0  0  0  0  0  0  0  0  0  0
    6.4540   -5.7543   -1.5952 C   0  0  2  0  0  0  0  0  0  0  0  0
    7.5985   -6.5248   -2.0381 O   0  0  0  0  0  0  0  0  0  0  0  0
    5.5435   -5.3893   -2.7740 C   0  0  2  0  0  0  0  0  0  0  0  0
    5.3292   -6.5534   -3.6134 N   0  3  0  0  0  0  0  0  0  0  0  0
    6.1347   -4.2652   -3.6175 C   0  0  1  0  0  0  0  0  0  0  0  0
    5.1647   -3.8024   -4.5444 O   0  0  0  0  0  0  0  0  0  0  0  0
    6.6391   -3.0942   -2.7883 C   0  0  2  0  0  0  0  0  0  0  0  0
    7.3421   -2.1740   -3.6103 O   0  0  0  0  0  0  0  0  0  0  0  0
    7.9644   -2.4067   -0.8344 C   0  0  0  0  0  0  0  0  0  0  0  0
    8.8088   -1.5050   -1.5966 N   0  3  0  0  0  0  0  0  0  0  0  0
    8.1911   -7.6413    2.0241 C   0  0  2  0  0  0  0  0  0  0  0  0
    7.8639   -8.7343    1.0259 C   0  0  0  0  0  0  0  0  0  0  0  0
    7.2979   -8.1374   -0.2493 C   0  0  1  0  0  0  0  0  0  0  0  0
    8.2811   -7.1965   -0.9470 C   0  0  2  0  0  0  0  0  0  0  0  0
    8.8456   -6.1522    0.0438 C   0  0  1  0  0  0  0  0  0  0  0  0
    9.2072   -6.6673    1.4432 C   0  0  1  0  0  0  0  0  0  0  0  0
    8.7241   -8.2377    3.2341 N   0  3  0  0  0  0  0  0  0  0  0  0
    6.9034   -9.2127   -1.1383 N   0  3  0  0  0  0  0  0  0  0  0  0
    9.9669   -5.4321   -0.5245 O   0  0  0  0  0  0  0  0  0  0  0  0
    9.3807   -5.5681    2.3313 O   0  0  0  0  0  0  0  0  0  0  0  0
  1  2  1  0  0  0  0
  3  2  1  6  0  0  0
  3  4  1  0  0  0  0
  3  5  1  0  0  0  0
  4  8  1  0  0  0  0
  5  6  1  0  0  0  0
  5 12  1  1  0  0  0
  6  7  1  1  0  0  0
  6  8  1  0  0  0  0
  8 41  1  6  0  0  0
  9 10  1  0  0  0  0
  9 17  1  0  0  0  0
  9 19  1  6  0  0  0
 10 11  1  0  0  0  0
 11 12  1  6  0  0  0
 11 13  1  0  0  0  0
 13 14  1  6  0  0  0
 13 15  1  0  0  0  0
 15 16  1  1  0  0  0
 15 17  1  0  0  0  0
 17 18  1  6  0  0  0
 19 20  1  0  0  0  0
 21 22  1  0  0  0  0
 21 29  1  0  0  0  0
 21 31  1  1  0  0  0
 22 23  1  0  0  0  0
 23 24  1  6  0  0  0
 23 25  1  0  0  0  0
 25 26  1  6  0  0  0
 25 27  1  0  0  0  0
 27 28  1  6  0  0  0
 27 29  1  0  0  0  0
 29 30  1  6  0  0  0
 31 32  1  0  0  0  0
 33 34  1  0  0  0  0
 33 38  1  0  0  0  0
 33 39  1  1  0  0  0
 34 35  1  0  0  0  0
 35 36  1  0  0  0  0
 35 40  1  6  0  0  0
 36 24  1  6  0  0  0
 36 37  1  0  0  0  0
 37 38  1  0  0  0  0
 37 41  1  6  0  0  0
 38 42  1  1  0  0  0
M  CHG  6  14   1  20   1  26   1  32   1  39   1  40   1
M  END
>  <CHROM.1>
58.53394018,63.01639456,-175.93086588,-64.22940886,-171.64159264,-59.65142255
79.26512625,78.19670581,178.62432518,-177.35084732,69.60573186,173.12711285
71.49064032,59.21215596,51.51594030,56.68841835,64.94828344,-58.66799420
-159.90502565,-168.41366229,-86.46261595,165.97379452,9.54937193,-6.66597513
-2.38592922,-0.77093846,-0.61014413,1.28241518

>  <Name>


>  <RI>
0

>  <Rbt.Current_Directory>
/home/itssahil/PROJECTS/Mol_Feturizer/New_Systems/rnas/1qd3

>  <Rbt.Executable>
rbdock ($Id: //depot/dev/client3/rdock/2013.1/src/exe/rbdock.cxx#4 $)

>  <Rbt.Library>
libRbt.so (2013.1, Build901 2013/11/27)

>  <Rbt.Parameter_File>
/export/apps/rDock/src/rDock_2013.1_src/data/scripts/dock_solv.prm

>  <Rbt.Receptor>
prm/pocket_docking_8.prm

>  <SCORE>
-34.9753

>  <SCORE.INTER>
-11.0285

>  <SCORE.INTER.CONST>
1

>  <SCORE.INTER.POLAR>
-3.21118

>  <SCORE.INTER.ROT>
9

>  <SCORE.INTER.SOLV>
13.4126

>  <SCORE.INTER.VDW>
-10.7193

>  <SCORE.INTER.norm>
-0.262584

>  <SCORE.INTRA>
-23.9467

>  <SCORE.INTRA.DIHEDRAL>
-29.0123

>  <SCORE.INTRA.DIHEDRAL.0>
40.6252

>  <SCORE.INTRA.POLAR>
0.771032

>  <SCORE.INTRA.POLAR.0>
-1.20161

>  <SCORE.INTRA.REPUL>
-0.115675

>  <SCORE.INTRA.REPUL.0>
0.115675

>  <SCORE.INTRA.SOLV>
-10.1258

>  <SCORE.INTRA.SOLV.lig_0>
-154.895

>  <SCORE.INTRA.VDW>
-6.42081

>  <SCORE.INTRA.VDW.0>
2.2925

>  <SCORE.INTRA.norm>
-0.570161

>  <SCORE.RESTR>
0

>  <SCORE.RESTR.CAVITY>
0

>  <SCORE.RESTR.norm>
0

>  <SCORE.SYSTEM>
0

>  <SCORE.SYSTEM.CONST>
0

>  <SCORE.SYSTEM.DIHEDRAL>
0

>  <SCORE.SYSTEM.SOLV>
0

>  <SCORE.SYSTEM.norm>
0

>  <SCORE.heavy>
42

>  <SCORE.norm>
-0.832745

>  <RMSD>
7.204

$$$$

 OpenBabel11021811413D
libRbt.so/2013.1/901 2013/11/27
 42 45  0  0  0  0  0  0  0  0999 V2000
    3.9838  -10.4792   -1.5065 O   0  0  0  0  0  0  0  0  0  0  0  0
    4.1364   -9.9837   -2.8290 C   0  0  0  0  0  0  0  0  0  0  0  0
    4.5448   -8.5107   -2.7860 C   0  0  1  0  0  0  0  0  0  0  0  0
    5.2609   -8.1996   -1.5711 O   0  0  0  0  0  0  0  0  0  0  0  0
    5.4673   -8.1068   -3.9241 C   0  0  2  0  0  0  0  0  0  0  0  0
    6.0706   -6.8343   -3.3536 C   0  0  1  0  0  0  0  0  0  0  0  0
    5.1346   -5.7675   -3.4624 O   0  0  0  0  0  0  0  0  0  0  0  0
    6.2727   -7.2048   -1.8702 C   0  0  2  0  0  0  0  0  0  0  0  0
    6.9311   -9.2513   -7.7138 C   0  0  2  0  0  0  0  0  0  0  0  0
    6.0355   -9.2153   -6.5922 O   0  0  0  0  0  0  0  0  0  0  0  0
    5.5840   -7.8789   -6.3076 C   0  0  2  0  0  0  0  0  0  0  0  0
    4.7338   -7.8702   -5.1419 O   0  0  0  0  0  0  0  0  0  0  0  0
    4.8385   -7.2886   -7.5168 C   0  0  2  0  0  0  0  0  0  0  0  0
    3.5018   -7.8444   -7.6191 N   0  3  0  0  0  0  0  0  0  0  0  0
    5.5980   -7.4697   -8.8363 C   0  0  1  0  0  0  0  0  0  0  0  0
    6.6445   -6.5147   -8.9123 O   0  0  0  0  0  0  0  0  0  0  0  0
    6.1767   -8.8745   -8.9824 C   0  0  2  0  0  0  0  0  0  0  0  0
    5.1305   -9.8077   -9.2256 O   0  0  0  0  0  0  0  0  0  0  0  0
    7.5674  -10.6317   -7.8499 C   0  0  0  0  0  0  0  0  0  0  0  0
    8.3016  -10.9720   -6.6457 N   0  3  0  0  0  0  0  0  0  0  0  0
    8.2445   -3.4456   -0.9413 C   0  0  1  0  0  0  0  0  0  0  0  0
    8.1714   -4.7161   -1.6214 O   0  0  0  0  0  0  0  0  0  0  0  0
    9.3185   -5.5626   -1.3787 C   0  0  2  0  0  0  0  0  0  0  0  0
    9.4045   -5.9772    0.0071 O   0  0  0  0  0  0  0  0  0  0  0  0
   10.6087   -4.8665   -1.8286 C   0  0  2  0  0  0  0  0  0  0  0  0
   11.7623   -5.6297   -1.3900 N   0  3  0  0  0  0  0  0  0  0  0  0
   10.7073   -3.4483   -1.2775 C   0  0  1  0  0  0  0  0  0  0  0  0
   11.7837   -2.7664   -1.9024 O   0  0  0  0  0  0  0  0  0  0  0  0
    9.4287   -2.6444   -1.4572 C   0  0  2  0  0  0  0  0  0  0  0  0
    9.5202   -1.4096   -0.7618 O   0  0  0  0  0  0  0  0  0  0  0  0
    6.9817   -2.6335   -1.2144 C   0  0  0  0  0  0  0  0  0  0  0  0
    6.9438   -1.4461   -0.3806 N   0  3  0  0  0  0  0  0  0  0  0  0
    7.2199   -9.1356    1.8380 C   0  0  2  0  0  0  0  0  0  0  0  0
    7.2033   -7.7762    2.5088 C   0  0  0  0  0  0  0  0  0  0  0  0
    8.3240   -6.9050    1.9724 C   0  0  1  0  0  0  0  0  0  0  0  0
    8.2020   -6.6459    0.4701 C   0  0  2  0  0  0  0  0  0  0  0  0
    8.0030   -7.9689   -0.3052 C   0  0  1  0  0  0  0  0  0  0  0  0
    7.0557   -8.9948    0.3307 C   0  0  1  0  0  0  0  0  0  0  0  0
    6.1444   -9.9495    2.3716 N   0  3  0  0  0  0  0  0  0  0  0  0
    8.3406   -5.6542    2.7055 N   0  3  0  0  0  0  0  0  0  0  0  0
    7.6196   -7.7261   -1.6811 O   0  0  0  0  0  0  0  0  0  0  0  0
    7.2310  -10.2632   -0.2919 O   0  0  0  0  0  0  0  0  0  0  0  0
  1  2  1  0  0  0  0
  3  2  1  6  0  0  0
  3  4  1  0  0  0  0
  3  5  1  0  0  0  0
  4  8  1  0  0  0  0
  5  6  1  0  0  0  0
  5 12  1  6  0  0  0
  6  7  1  1  0  0  0
  6  8  1  0  0  0  0
  8 41  1  6  0  0  0
  9 10  1  0  0  0  0
  9 17  1  0  0  0  0
  9 19  1  6  0  0  0
 10 11  1  0  0  0  0
 11 12  1  1  0  0  0
 11 13  1  0  0  0  0
 13 14  1  6  0  0  0
 13 15  1  0  0  0  0
 15 16  1  1  0  0  0
 15 17  1  0  0  0  0
 17 18  1  1  0  0  0
 19 20  1  0  0  0  0
 21 22  1  0  0  0  0
 21 29  1  0  0  0  0
 21 31  1  6  0  0  0
 22 23  1  0  0  0  0
 23 24  1  1  0  0  0
 23 25  1  0  0  0  0
 25 26  1  1  0  0  0
 25 27  1  0  0  0  0
 27 28  1  6  0  0  0
 27 29  1  0  0  0  0
 29 30  1  1  0  0  0
 31 32  1  0  0  0  0
 33 34  1  0  0  0  0
 33 38  1  0  0  0  0
 33 39  1  1  0  0  0
 34 35  1  0  0  0  0
 35 36  1  0  0  0  0
 35 40  1  1  0  0  0
 36 24  1  6  0  0  0
 36 37  1  0  0  0  0
 37 38  1  0  0  0  0
 37 41  1  6  0  0  0
 38 42  1  6  0  0  0
M  CHG  6  14   1  20   1  26   1  32   1  39   1  40   1
M  END
>  <CHROM.1>
-177.24203447,27.44499449,-162.73945535,79.68910018,-70.07749345,-59.13772003
71.21683886,-175.62954071,62.00084664,-61.35260655,-177.33613732,171.29267244
55.88566480,-173.78355442,71.75163724,-60.00489054,-176.89484771,-166.87250891
172.36096863,164.55985449,-70.60660134,-58.90364656,7.14673009,-7.00736981
-2.77933522,2.34094474,-1.04127331,-1.34974095

>  <Name>


>  <RI>
0

>  <Rbt.Current_Directory>
/home/itssahil/PROJECTS/Mol_Feturizer/New_Systems/rnas/1qd3

>  <Rbt.Executable>
rbdock ($Id: //depot/dev/client3/rdock/2013.1/src/exe/rbdock.cxx#4 $)

>  <Rbt.Library>
libRbt.so (2013.1, Build901 2013/11/27)

>  <Rbt.Parameter_File>
/export/apps/rDock/src/rDock_2013.1_src/data/scripts/dock_solv.prm

>  <Rbt.Receptor>
prm/pocket_docking_8.prm

>  <SCORE>
-50.9773

>  <SCORE.INTER>
-24.9937

>  <SCORE.INTER.CONST>
1

>  <SCORE.INTER.POLAR>
-4.32413

>  <SCORE.INTER.ROT>
9

>  <SCORE.INTER.SOLV>
26.0768

>  <SCORE.INTER.VDW>
-20.5409

>  <SCORE.INTER.norm>
-0.595087

>  <SCORE.INTRA>
-25.9836

>  <SCORE.INTRA.DIHEDRAL>
-28.8667

>  <SCORE.INTRA.DIHEDRAL.0>
40.6252

>  <SCORE.INTRA.POLAR>
0.893292

>  <SCORE.INTRA.POLAR.0>
-1.20161

>  <SCORE.INTRA.REPUL>
-0.115675

>  <SCORE.INTRA.REPUL.0>
0.115675

>  <SCORE.INTRA.SOLV>
-13.6271

>  <SCORE.INTRA.SOLV.lig_0>
-154.895

>  <SCORE.INTRA.VDW>
-7.19556

>  <SCORE.INTRA.VDW.0>
2.2925

>  <SCORE.INTRA.norm>
-0.618658

>  <SCORE.RESTR>
0

>  <SCORE.RESTR.CAVITY>
0

>  <SCORE.RESTR.norm>
0

>  <SCORE.SYSTEM>
0

>  <SCORE.SYSTEM.CONST>
0

>  <SCORE.SYSTEM.DIHEDRAL>
0

>  <SCORE.SYSTEM.SOLV>
0

>  <SCORE.SYSTEM.norm>
0

>  <SCORE.heavy>
42

>  <SCORE.norm>
-1.21374

>  <RMSD>
7.299

$$$$

 OpenBabel11021811413D
libRbt.so/2013.1/901 2013/11/27
 42 45  0  0  0  0  0  0  0  0999 V2000
    4.4536   -9.6415   -3.4310 O   0  0  0  0  0  0  0  0  0  0  0  0
    5.0243   -8.7172   -2.5157 C   0  0  0  0  0  0  0  0  0  0  0  0
    4.9882   -7.3093   -3.1114 C   0  0  1  0  0  0  0  0  0  0  0  0
    5.4965   -6.3312   -2.1784 O   0  0  0  0  0  0  0  0  0  0  0  0
    5.8343   -7.1629   -4.3652 C   0  0  2  0  0  0  0  0  0  0  0  0
    6.0045   -5.6536   -4.4099 C   0  0  1  0  0  0  0  0  0  0  0  0
    4.8117   -5.0494   -4.8980 O   0  0  0  0  0  0  0  0  0  0  0  0
    6.1985   -5.3022   -2.9208 C   0  0  2  0  0  0  0  0  0  0  0  0
    6.3217   -9.1273   -8.6693 C   0  0  2  0  0  0  0  0  0  0  0  0
    5.4311   -8.8005   -7.5915 O   0  0  0  0  0  0  0  0  0  0  0  0
    6.0527   -7.9356   -6.6239 C   0  0  2  0  0  0  0  0  0  0  0  0
    5.1523   -7.6744   -5.5272 O   0  0  0  0  0  0  0  0  0  0  0  0
    6.4932   -6.6155   -7.2794 C   0  0  2  0  0  0  0  0  0  0  0  0
    5.3532   -5.7446   -7.4995 N   0  3  0  0  0  0  0  0  0  0  0  0
    7.2699   -6.8240   -8.5848 C   0  0  1  0  0  0  0  0  0  0  0  0
    8.6007   -7.2129   -8.2839 O   0  0  0  0  0  0  0  0  0  0  0  0
    6.6211   -7.8743   -9.4823 C   0  0  2  0  0  0  0  0  0  0  0  0
    5.4211   -7.3574  -10.0455 O   0  0  0  0  0  0  0  0  0  0  0  0
    5.7203  -10.2171   -9.5522 C   0  0  0  0  0  0  0  0  0  0  0  0
    6.5764  -11.3883   -9.5652 N   0  3  0  0  0  0  0  0  0  0  0  0
   10.5788   -7.9614   -1.4637 C   0  0  1  0  0  0  0  0  0  0  0  0
    9.3287   -7.3007   -1.7514 O   0  0  0  0  0  0  0  0  0  0  0  0
    8.8819   -6.4310   -0.6858 C   0  0  2  0  0  0  0  0  0  0  0  0
    9.7717   -5.3033   -0.4956 O   0  0  0  0  0  0  0  0  0  0  0  0
    8.7033   -7.2202    0.6169 C   0  0  2  0  0  0  0  0  0  0  0  0
    8.4618   -6.3083    1.7195 N   0  3  0  0  0  0  0  0  0  0  0  0
    9.9260   -8.0748    0.9320 C   0  0  1  0  0  0  0  0  0  0  0  0
    9.6290   -8.9577    2.0028 O   0  0  0  0  0  0  0  0  0  0  0  0
   10.4207   -8.8777   -0.2613 C   0  0  2  0  0  0  0  0  0  0  0  0
   11.6607   -9.4997    0.0423 O   0  0  0  0  0  0  0  0  0  0  0  0
   10.9993   -8.8233   -2.6506 C   0  0  0  0  0  0  0  0  0  0  0  0
   11.3060   -7.9963   -3.8034 N   0  3  0  0  0  0  0  0  0  0  0  0
    8.2557   -1.5896   -1.9131 C   0  0  2  0  0  0  0  0  0  0  0  0
    9.7590   -1.7473   -1.7975 C   0  0  0  0  0  0  0  0  0  0  0  0
   10.1027   -2.9367   -0.9200 C   0  0  1  0  0  0  0  0  0  0  0  0
    9.5726   -4.2567   -1.4817 C   0  0  2  0  0  0  0  0  0  0  0  0
    8.0715   -4.1445   -1.8353 C   0  0  1  0  0  0  0  0  0  0  0  0
    7.6268   -2.8408   -2.5112 C   0  0  1  0  0  0  0  0  0  0  0  0
    7.9543   -0.4444   -2.7508 N   0  3  0  0  0  0  0  0  0  0  0  0
   11.5414   -2.9965   -0.7497 N   0  3  0  0  0  0  0  0  0  0  0  0
    7.6213   -5.2831   -2.6098 O   0  0  0  0  0  0  0  0  0  0  0  0
    6.2078   -2.7338   -2.4653 O   0  0  0  0  0  0  0  0  0  0  0  0
  1  2  1  0  0  0  0
  3  2  1  1  0  0  0
  3  4  1  0  0  0  0
  3  5  1  0  0  0  0
  4  8  1  0  0  0  0
  5  6  1  0  0  0  0
  5 12  1  6  0  0  0
  6  7  1  1  0  0  0
  6  8  1  0  0  0  0
  8 41  1  1  0  0  0
  9 10  1  0  0  0  0
  9 17  1  0  0  0  0
  9 19  1  6  0  0  0
 10 11  1  0  0  0  0
 11 12  1  1  0  0  0
 11 13  1  0  0  0  0
 13 14  1  6  0  0  0
 13 15  1  0  0  0  0
 15 16  1  1  0  0  0
 15 17  1  0  0  0  0
 17 18  1  1  0  0  0
 19 20  1  0  0  0  0
 21 22  1  0  0  0  0
 21 29  1  0  0  0  0
 21 31  1  6  0  0  0
 22 23  1  0  0  0  0
 23 24  1  1  0  0  0
 23 25  1  0  0  0  0
 25 26  1  1  0  0  0
 25 27  1  0  0  0  0
 27 28  1  1  0  0  0
 27 29  1  0  0  0  0
 29 30  1  1  0  0  0
 31 32  1  0  0  0  0
 33 34  1  0  0  0  0
 33 38  1  0  0  0  0
 33 39  1  6  0  0  0
 34 35  1  0  0  0  0
 35 36  1  0  0  0  0
 35 40  1  6  0  0  0
 36 24  1  1  0  0  0
 36 37  1  0  0  0  0
 37 38  1  0  0  0  0
 37 41  1  6  0  0  0
 38 42  1  1  0  0  0
M  CHG  6  14   1  20   1  26   1  32   1  39   1  40   1
M  END
>  <CHROM.1>
-177.85470868,176.95511248,-161.85674885,53.27277472,-109.12870757,-119.61850565
162.62486226,-37.95583828,-59.21657251,-171.36597973,-57.96561119,65.99966516
78.52689109,157.73894210,53.14147149,-58.93127393,64.84863961,-177.54214986
-45.08859682,-146.87169903,176.48320147,66.68850890,7.71495215,-6.52676929
-3.61884482,-2.55532164,-1.06963431,0.29434415

>  <Name>


>  <RI>
0

>  <Rbt.Current_Directory>
/home/itssahil/PROJECTS/Mol_Feturizer/New_Systems/rnas/1qd3

>  <Rbt.Executable>
rbdock ($Id: //depot/dev/client3/rdock/2013.1/src/exe/rbdock.cxx#4 $)

>  <Rbt.Library>
libRbt.so (2013.1, Build901 2013/11/27)

>  <Rbt.Parameter_File>
/export/apps/rDock/src/rDock_2013.1_src/data/scripts/dock_solv.prm

>  <Rbt.Receptor>
prm/pocket_docking_5.prm

>  <SCORE>
-43.3442

>  <SCORE.INTER>
-27.3035

>  <SCORE.INTER.CONST>
1

>  <SCORE.INTER.POLAR>
-5.88379

>  <SCORE.INTER.ROT>
9

>  <SCORE.INTER.SOLV>
27.9635

>  <SCORE.INTER.VDW>
-17.5109

>  <SCORE.INTER.norm>
-0.650084

>  <SCORE.INTRA>
-17.1999

>  <SCORE.INTRA.DIHEDRAL>
-15.6024

>  <SCORE.INTRA.DIHEDRAL.0>
40.6252

>  <SCORE.INTRA.POLAR>
0.172597

>  <SCORE.INTRA.POLAR.0>
-1.20161

>  <SCORE.INTRA.REPUL>
-0.115675

>  <SCORE.INTRA.REPUL.0>
0.115675

>  <SCORE.INTRA.SOLV>
-12.2572

>  <SCORE.INTRA.SOLV.lig_0>
-154.895

>  <SCORE.INTRA.VDW>
-3.27851

>  <SCORE.INTRA.VDW.0>
2.2925

>  <SCORE.INTRA.norm>
-0.409521

>  <SCORE.RESTR>
1.15919

>  <SCORE.RESTR.CAVITY>
1.15919

>  <SCORE.RESTR.norm>
0.0275998

>  <SCORE.SYSTEM>
0

>  <SCORE.SYSTEM.CONST>
0

>  <SCORE.SYSTEM.DIHEDRAL>
0

>  <SCORE.SYSTEM.SOLV>
0

>  <SCORE.SYSTEM.norm>
0

>  <SCORE.heavy>
42

>  <SCORE.norm>
-1.03201

>  <RMSD>
7.373

$$$$

 OpenBabel11021811413D
libRbt.so/2013.1/901 2013/11/27
 42 45  0  0  0  0  0  0  0  0999 V2000
    8.3762  -10.0876   -5.6012 O   0  0  0  0  0  0  0  0  0  0  0  0
    9.0914   -9.2241   -4.7290 C   0  0  0  0  0  0  0  0  0  0  0  0
    8.1102   -8.3528   -3.9439 C   0  0  1  0  0  0  0  0  0  0  0  0
    8.7996   -7.5096   -2.9955 O   0  0  0  0  0  0  0  0  0  0  0  0
    7.3025   -7.4119   -4.8224 C   0  0  2  0  0  0  0  0  0  0  0  0
    6.8451   -6.3941   -3.7910 C   0  0  1  0  0  0  0  0  0  0  0  0
    5.7708   -6.9322   -3.0280 O   0  0  0  0  0  0  0  0  0  0  0  0
    8.0963   -6.2449   -2.9017 C   0  0  2  0  0  0  0  0  0  0  0  0
    7.1454   -7.8152   -8.9700 C   0  0  2  0  0  0  0  0  0  0  0  0
    7.2197   -8.1900   -7.5860 O   0  0  0  0  0  0  0  0  0  0  0  0
    6.0654   -7.7510   -6.8474 C   0  0  2  0  0  0  0  0  0  0  0  0
    6.1986   -8.0918   -5.4518 O   0  0  0  0  0  0  0  0  0  0  0  0
    4.7819   -8.3691   -7.4281 C   0  0  2  0  0  0  0  0  0  0  0  0
    4.6540   -9.7589   -7.0298 N   0  3  0  0  0  0  0  0  0  0  0  0
    4.6890   -8.2365   -8.9527 C   0  0  1  0  0  0  0  0  0  0  0  0
    4.3004   -6.9138   -9.2876 O   0  0  0  0  0  0  0  0  0  0  0  0
    6.0079   -8.5720   -9.6439 C   0  0  2  0  0  0  0  0  0  0  0  0
    6.2466   -9.9732   -9.5805 O   0  0  0  0  0  0  0  0  0  0  0  0
    8.4717   -8.0890   -9.6733 C   0  0  0  0  0  0  0  0  0  0  0  0
    8.5130   -7.4145  -10.9572 N   0  3  0  0  0  0  0  0  0  0  0  0
   12.8893   -3.2393   -5.1755 C   0  0  1  0  0  0  0  0  0  0  0  0
   11.8020   -4.1454   -4.8944 O   0  0  0  0  0  0  0  0  0  0  0  0
   11.5149   -4.2750   -3.4829 C   0  0  2  0  0  0  0  0  0  0  0  0
   11.0196   -3.0381   -2.9133 O   0  0  0  0  0  0  0  0  0  0  0  0
   12.7491   -4.7778   -2.7242 C   0  0  2  0  0  0  0  0  0  0  0  0
   12.5161   -4.7025   -1.2939 N   0  3  0  0  0  0  0  0  0  0  0  0
   13.9943   -3.9700   -3.0723 C   0  0  1  0  0  0  0  0  0  0  0  0
   15.1435   -4.6094   -2.5388 O   0  0  0  0  0  0  0  0  0  0  0  0
   14.1790   -3.7667   -4.5683 C   0  0  2  0  0  0  0  0  0  0  0  0
   15.2406   -2.8563   -4.8153 O   0  0  0  0  0  0  0  0  0  0  0  0
   13.0991   -3.1270   -6.6828 C   0  0  0  0  0  0  0  0  0  0  0  0
   12.0142   -2.3853   -7.2990 N   0  3  0  0  0  0  0  0  0  0  0  0
    6.9456   -2.1402   -2.0788 C   0  0  2  0  0  0  0  0  0  0  0  0
    7.7546   -1.1206   -2.8561 C   0  0  0  0  0  0  0  0  0  0  0  0
    9.2393   -1.4004   -2.7147 C   0  0  1  0  0  0  0  0  0  0  0  0
    9.6354   -2.7727   -3.2615 C   0  0  2  0  0  0  0  0  0  0  0  0
    8.7251   -3.8818   -2.6854 C   0  0  1  0  0  0  0  0  0  0  0  0
    7.2309   -3.5496   -2.5796 C   0  0  1  0  0  0  0  0  0  0  0  0
    5.5326   -1.8473   -2.2256 N   0  3  0  0  0  0  0  0  0  0  0  0
    9.9826   -0.3510   -3.3844 N   0  3  0  0  0  0  0  0  0  0  0  0
    8.9057   -5.1359   -3.3878 O   0  0  0  0  0  0  0  0  0  0  0  0
    6.5847   -4.4983   -1.7373 O   0  0  0  0  0  0  0  0  0  0  0  0
  1  2  1  0  0  0  0
  3  2  1  6  0  0  0
  3  4  1  0  0  0  0
  3  5  1  0  0  0  0
  4  8  1  0  0  0  0
  5  6  1  0  0  0  0
  5 12  1  1  0  0  0
  6  7  1  1  0  0  0
  6  8  1  0  0  0  0
  8 41  1  6  0  0  0
  9 10  1  0  0  0  0
  9 17  1  0  0  0  0
  9 19  1  6  0  0  0
 10 11  1  0  0  0  0
 11 12  1  1  0  0  0
 11 13  1  0  0  0  0
 13 14  1  6  0  0  0
 13 15  1  0  0  0  0
 15 16  1  1  0  0  0
 15 17  1  0  0  0  0
 17 18  1  1  0  0  0
 19 20  1  0  0  0  0
 21 22  1  0  0  0  0
 21 29  1  0  0  0  0
 21 31  1  6  0  0  0
 22 23  1  0  0  0  0
 23 24  1  1  0  0  0
 23 25  1  0  0  0  0
 25 26  1  1  0  0  0
 25 27  1  0  0  0  0
 27 28  1  6  0  0  0
 27 29  1  0  0  0  0
 29 30  1  1  0  0  0
 31 32  1  0  0  0  0
 33 34  1  0  0  0  0
 33 38  1  0  0  0  0
 33 39  1  6  0  0  0
 34 35  1  0  0  0  0
 35 36  1  0  0  0  0
 35 40  1  6  0  0  0
 36 24  1  1  0  0  0
 36 37  1  0  0  0  0
 37 38  1  0  0  0  0
 37 41  1  6  0  0  0
 38 42  1  1  0  0  0
M  CHG  6  14   1  20   1  26   1  32   1  39   1  40   1
M  END
>  <CHROM.1>
67.18972438,177.02038446,-135.60471767,54.48908996,-145.03177190,-165.71845234
63.95742771,68.78270353,73.21896799,45.81281924,61.57237697,71.36210560,76.01309103
-175.42364051,-177.06193267,-173.54924561,-170.82819242,177.28395268,-126.17369999
82.56547392,179.36124190,78.09311419,8.89266931,-5.55666042,-5.00776609,-2.28650292
0.25701326,0.91360655

>  <Name>


>  <RI>
0

>  <Rbt.Current_Directory>
/home/itssahil/PROJECTS/Mol_Feturizer/New_Systems/rnas/1qd3

>  <Rbt.Executable>
rbdock ($Id: //depot/dev/client3/rdock/2013.1/src/exe/rbdock.cxx#4 $)

>  <Rbt.Library>
libRbt.so (2013.1, Build901 2013/11/27)

>  <Rbt.Parameter_File>
/export/apps/rDock/src/rDock_2013.1_src/data/scripts/dock_solv.prm

>  <Rbt.Receptor>
prm/pocket_docking_5.prm

>  <SCORE>
-42.7708

>  <SCORE.INTER>
-21.6779

>  <SCORE.INTER.CONST>
1

>  <SCORE.INTER.POLAR>
-5.3031

>  <SCORE.INTER.ROT>
9

>  <SCORE.INTER.SOLV>
28.5214

>  <SCORE.INTER.VDW>
-15.882

>  <SCORE.INTER.norm>
-0.51614

>  <SCORE.INTRA>
-21.0929

>  <SCORE.INTRA.DIHEDRAL>
-17.0995

>  <SCORE.INTRA.DIHEDRAL.0>
40.6252

>  <SCORE.INTRA.POLAR>
0.192061

>  <SCORE.INTRA.POLAR.0>
-1.20161

>  <SCORE.INTRA.REPUL>
-0.115675

>  <SCORE.INTRA.REPUL.0>
0.115675

>  <SCORE.INTRA.SOLV>
-14.339

>  <SCORE.INTRA.SOLV.lig_0>
-154.895

>  <SCORE.INTRA.VDW>
-5.44823

>  <SCORE.INTRA.VDW.0>
2.2925

>  <SCORE.INTRA.norm>
-0.502212

>  <SCORE.RESTR>
0

>  <SCORE.RESTR.CAVITY>
0

>  <SCORE.RESTR.norm>
0

>  <SCORE.SYSTEM>
0

>  <SCORE.SYSTEM.CONST>
0

>  <SCORE.SYSTEM.DIHEDRAL>
0

>  <SCORE.SYSTEM.SOLV>
0

>  <SCORE.SYSTEM.norm>
0

>  <SCORE.heavy>
42

>  <SCORE.norm>
-1.01835

>  <RMSD>
7.375

$$$$

 OpenBabel11021811413D
libRbt.so/2013.1/901 2013/11/27
 42 45  0  0  0  0  0  0  0  0999 V2000
    3.8730   -9.0691   -3.8283 O   0  0  0  0  0  0  0  0  0  0  0  0
    4.9411   -8.9554   -4.7579 C   0  0  0  0  0  0  0  0  0  0  0  0
    5.3103   -7.4833   -4.9447 C   0  0  1  0  0  0  0  0  0  0  0  0
    6.1267   -7.0042   -3.8540 O   0  0  0  0  0  0  0  0  0  0  0  0
    6.1118   -7.2179   -6.2082 C   0  0  2  0  0  0  0  0  0  0  0  0
    6.7294   -5.8721   -5.8670 C   0  0  1  0  0  0  0  0  0  0  0  0
    5.7579   -4.8437   -6.0230 O   0  0  0  0  0  0  0  0  0  0  0  0
    7.0783   -6.0415   -4.3743 C   0  0  2  0  0  0  0  0  0  0  0  0
    7.3005   -9.1987   -9.6112 C   0  0  2  0  0  0  0  0  0  0  0  0
    6.5523   -8.8256   -8.4439 O   0  0  0  0  0  0  0  0  0  0  0  0
    5.9567   -7.5228   -8.5808 C   0  0  2  0  0  0  0  0  0  0  0  0
    5.2624   -7.1547   -7.3708 O   0  0  0  0  0  0  0  0  0  0  0  0
    4.9940   -7.4894   -9.7802 C   0  0  2  0  0  0  0  0  0  0  0  0
    3.7457   -8.1554   -9.4571 N   0  3  0  0  0  0  0  0  0  0  0  0
    5.6044   -8.0818  -11.0559 C   0  0  1  0  0  0  0  0  0  0  0  0
    6.4899   -7.1376  -11.6366 O   0  0  0  0  0  0  0  0  0  0  0  0
    6.3515   -9.3855  -10.7881 C   0  0  2  0  0  0  0  0  0  0  0  0
    5.4242  -10.4279  -10.5089 O   0  0  0  0  0  0  0  0  0  0  0  0
    8.1020  -10.4712   -9.3522 C   0  0  0  0  0  0  0  0  0  0  0  0
    9.0269  -10.7180  -10.4424 N   0  3  0  0  0  0  0  0  0  0  0  0
    7.2474   -2.6342   -2.7282 C   0  0  1  0  0  0  0  0  0  0  0  0
    7.7494   -3.5917   -3.6839 O   0  0  0  0  0  0  0  0  0  0  0  0
    9.1711   -3.8285   -3.5649 C   0  0  2  0  0  0  0  0  0  0  0  0
    9.5129   -4.4631   -2.3079 O   0  0  0  0  0  0  0  0  0  0  0  0
    9.9541   -2.5239   -3.7565 C   0  0  2  0  0  0  0  0  0  0  0  0
   11.3520   -2.7323   -3.4278 N   0  3  0  0  0  0  0  0  0  0  0  0
    9.3982   -1.3988   -2.8908 C   0  0  1  0  0  0  0  0  0  0  0  0
    9.9910   -0.1663   -3.2700 O   0  0  0  0  0  0  0  0  0  0  0  0
    7.8842   -1.2749   -2.9671 C   0  0  2  0  0  0  0  0  0  0  0  0
    7.4161   -0.3427   -2.0035 O   0  0  0  0  0  0  0  0  0  0  0  0
    5.7387   -2.4742   -2.8923 C   0  0  0  0  0  0  0  0  0  0  0  0
    5.1166   -3.7497   -3.1970 N   0  3  0  0  0  0  0  0  0  0  0  0
    8.5776   -8.3767   -0.9264 C   0  0  2  0  0  0  0  0  0  0  0  0
    8.0869   -7.1974   -0.1101 C   0  0  0  0  0  0  0  0  0  0  0  0
    8.8300   -5.9336   -0.5019 C   0  0  1  0  0  0  0  0  0  0  0  0
    8.6220   -5.5583   -1.9698 C   0  0  2  0  0  0  0  0  0  0  0  0
    8.8978   -6.7666   -2.8944 C   0  0  1  0  0  0  0  0  0  0  0  0
    8.3715   -8.1255   -2.4141 C   0  0  1  0  0  0  0  0  0  0  0  0
    7.8566   -9.5710   -0.5293 N   0  3  0  0  0  0  0  0  0  0  0  0
    8.4087   -4.8510    0.3657 N   0  3  0  0  0  0  0  0  0  0  0  0
    8.4509   -6.5123   -4.2488 O   0  0  0  0  0  0  0  0  0  0  0  0
    8.9789   -9.1707   -3.1662 O   0  0  0  0  0  0  0  0  0  0  0  0
  1  2  1  0  0  0  0
  3  2  1  1  0  0  0
  3  4  1  0  0  0  0
  3  5  1  0  0  0  0
  4  8  1  0  0  0  0
  5  6  1  0  0  0  0
  5 12  1  6  0  0  0
  6  7  1  1  0  0  0
  6  8  1  0  0  0  0
  8 41  1  6  0  0  0
  9 10  1  0  0  0  0
  9 17  1  0  0  0  0
  9 19  1  1  0  0  0
 10 11  1  0  0  0  0
 11 12  1  1  0  0  0
 11 13  1  0  0  0  0
 13 14  1  1  0  0  0
 13 15  1  0  0  0  0
 15 16  1  1  0  0  0
 15 17  1  0  0  0  0
 17 18  1  1  0  0  0
 19 20  1  0  0  0  0
 21 22  1  0  0  0  0
 21 29  1  0  0  0  0
 21 31  1  6  0  0  0
 22 23  1  0  0  0  0
 23 24  1  1  0  0  0
 23 25  1  0  0  0  0
 25 26  1  1  0  0  0
 25 27  1  0  0  0  0
 27 28  1  6  0  0  0
 27 29  1  0  0  0  0
 29 30  1  1  0  0  0
 31 32  1  0  0  0  0
 33 34  1  0  0  0  0
 33 38  1  0  0  0  0
 33 39  1  1  0  0  0
 34 35  1  0  0  0  0
 35 36  1  0  0  0  0
 35 40  1  1  0  0  0
 36 24  1  6  0  0  0
 36 37  1  0  0  0  0
 37 38  1  0  0  0  0
 37 41  1  6  0  0  0
 38 42  1  6  0  0  0
M  CHG  6  14   1  20   1  26   1  32   1  39   1  40   1
M  END
>  <CHROM.1>
-63.92325194,79.10515695,-153.05376027,-56.66600274,-60.80111631,-170.23806419
55.19240420,-177.85250385,61.79061657,-178.60038833,54.74196740,37.80527339
44.83201681,-166.09204040,-164.47951834,-171.14639757,-172.61822874,-160.39877081
-70.10927853,-52.96049567,-51.25779028,-62.69021574,7.28120740,-6.25025117
-5.00702464,-3.06080140,-1.31217156,-0.54577585

>  <Name>


>  <RI>
0

>  <Rbt.Current_Directory>
/home/itssahil/PROJECTS/Mol_Feturizer/New_Systems/rnas/1qd3

>  <Rbt.Executable>
rbdock ($Id: //depot/dev/client3/rdock/2013.1/src/exe/rbdock.cxx#4 $)

>  <Rbt.Library>
libRbt.so (2013.1, Build901 2013/11/27)

>  <Rbt.Parameter_File>
/export/apps/rDock/src/rDock_2013.1_src/data/scripts/dock_solv.prm

>  <Rbt.Receptor>
prm/pocket_docking_6.prm

>  <SCORE>
-52.3034

>  <SCORE.INTER>
-24.4302

>  <SCORE.INTER.CONST>
1

>  <SCORE.INTER.POLAR>
-4.1689

>  <SCORE.INTER.ROT>
9

>  <SCORE.INTER.SOLV>
24.5527

>  <SCORE.INTER.VDW>
-20.1747

>  <SCORE.INTER.norm>
-0.581671

>  <SCORE.INTRA>
-27.8732

>  <SCORE.INTRA.DIHEDRAL>
-28.2806

>  <SCORE.INTRA.DIHEDRAL.0>
40.6252

>  <SCORE.INTRA.POLAR>
-0.0293367

>  <SCORE.INTRA.POLAR.0>
-1.20161

>  <SCORE.INTRA.REPUL>
-0.115675

>  <SCORE.INTRA.REPUL.0>
0.115675

>  <SCORE.INTRA.SOLV>
-10.0893

>  <SCORE.INTRA.SOLV.lig_0>
-154.895

>  <SCORE.INTRA.VDW>
-8.01017

>  <SCORE.INTRA.VDW.0>
2.2925

>  <SCORE.INTRA.norm>
-0.663649

>  <SCORE.RESTR>
0

>  <SCORE.RESTR.CAVITY>
0

>  <SCORE.RESTR.norm>
0

>  <SCORE.SYSTEM>
0

>  <SCORE.SYSTEM.CONST>
0

>  <SCORE.SYSTEM.DIHEDRAL>
0

>  <SCORE.SYSTEM.SOLV>
0

>  <SCORE.SYSTEM.norm>
0

>  <SCORE.heavy>
42

>  <SCORE.norm>
-1.24532

>  <RMSD>
7.441

$$$$

 OpenBabel11021811413D
libRbt.so/2013.1/901 2013/11/27
 42 45  0  0  0  0  0  0  0  0999 V2000
    9.3141  -12.2383   -5.9812 O   0  0  0  0  0  0  0  0  0  0  0  0
    9.6322  -11.6089   -4.7482 C   0  0  0  0  0  0  0  0  0  0  0  0
    8.4318  -10.8000   -4.2551 C   0  0  1  0  0  0  0  0  0  0  0  0
    8.7143  -10.1577   -2.9928 O   0  0  0  0  0  0  0  0  0  0  0  0
    8.0247   -9.6849   -5.2039 C   0  0  2  0  0  0  0  0  0  0  0  0
    7.2162   -8.8043   -4.2660 C   0  0  1  0  0  0  0  0  0  0  0  0
    5.9290   -9.3759   -4.0600 O   0  0  0  0  0  0  0  0  0  0  0  0
    8.0363   -8.8762   -2.9618 C   0  0  2  0  0  0  0  0  0  0  0  0
    7.8881   -7.5450   -8.7439 C   0  0  2  0  0  0  0  0  0  0  0  0
    8.1512   -8.6066   -7.8137 O   0  0  0  0  0  0  0  0  0  0  0  0
    6.9380   -9.1631   -7.2759 C   0  0  2  0  0  0  0  0  0  0  0  0
    7.2386  -10.1855   -6.3033 O   0  0  0  0  0  0  0  0  0  0  0  0
    6.0591   -9.7374   -8.4002 C   0  0  2  0  0  0  0  0  0  0  0  0
    6.5789  -11.0122   -8.8598 N   0  3  0  0  0  0  0  0  0  0  0  0
    5.8857   -8.7718   -9.5784 C   0  0  1  0  0  0  0  0  0  0  0  0
    4.9363   -7.7751   -9.2347 O   0  0  0  0  0  0  0  0  0  0  0  0
    7.2000   -8.1083   -9.9807 C   0  0  2  0  0  0  0  0  0  0  0  0
    8.0455   -9.0555  -10.6230 O   0  0  0  0  0  0  0  0  0  0  0  0
    9.1812   -6.8275   -9.1208 C   0  0  0  0  0  0  0  0  0  0  0  0
    9.5515   -5.8759   -8.0901 N   0  3  0  0  0  0  0  0  0  0  0  0
    9.7620   -7.1604    1.1570 C   0  0  1  0  0  0  0  0  0  0  0  0
    9.3568   -7.9770    0.0385 O   0  0  0  0  0  0  0  0  0  0  0  0
    7.9267   -7.9853   -0.1762 C   0  0  2  0  0  0  0  0  0  0  0  0
    7.4286   -6.6827   -0.5695 O   0  0  0  0  0  0  0  0  0  0  0  0
    7.1963   -8.5038    1.0685 C   0  0  2  0  0  0  0  0  0  0  0  0
    5.7659   -8.3099    0.9203 N   0  3  0  0  0  0  0  0  0  0  0  0
    7.6689   -7.7993    2.3354 C   0  0  1  0  0  0  0  0  0  0  0  0
    7.1479   -8.4652    3.4753 O   0  0  0  0  0  0  0  0  0  0  0  0
    9.1835   -7.7177    2.4473 C   0  0  2  0  0  0  0  0  0  0  0  0
    9.5537   -6.8928    3.5424 O   0  0  0  0  0  0  0  0  0  0  0  0
   11.2824   -7.1717    1.2883 C   0  0  0  0  0  0  0  0  0  0  0  0
   11.8995   -6.4698    0.1777 N   0  3  0  0  0  0  0  0  0  0  0  0
    8.6044   -4.0523   -3.6997 C   0  0  2  0  0  0  0  0  0  0  0  0
    8.8389   -3.6069   -2.2698 C   0  0  0  0  0  0  0  0  0  0  0  0
    8.0178   -4.4476   -1.3097 C   0  0  1  0  0  0  0  0  0  0  0  0
    8.3833   -5.9316   -1.3645 C   0  0  2  0  0  0  0  0  0  0  0  0
    8.3784   -6.4493   -2.8215 C   0  0  1  0  0  0  0  0  0  0  0  0
    8.9849   -5.5160   -3.8777 C   0  0  1  0  0  0  0  0  0  0  0  0
    9.3950   -3.2307   -4.5962 N   0  3  0  0  0  0  0  0  0  0  0  0
    8.1881   -3.9301    0.0340 N   0  3  0  0  0  0  0  0  0  0  0  0
    8.9770   -7.7649   -2.9201 O   0  0  0  0  0  0  0  0  0  0  0  0
    8.6112   -5.9543   -5.1797 O   0  0  0  0  0  0  0  0  0  0  0  0
  1  2  1  0  0  0  0
  3  2  1  6  0  0  0
  3  4  1  0  0  0  0
  3  5  1  0  0  0  0
  4  8  1  0  0  0  0
  5  6  1  0  0  0  0
  5 12  1  6  0  0  0
  6  7  1  1  0  0  0
  6  8  1  0  0  0  0
  8 41  1  6  0  0  0
  9 10  1  0  0  0  0
  9 17  1  0  0  0  0
  9 19  1  6  0  0  0
 10 11  1  0  0  0  0
 11 12  1  1  0  0  0
 11 13  1  0  0  0  0
 13 14  1  6  0  0  0
 13 15  1  0  0  0  0
 15 16  1  1  0  0  0
 15 17  1  0  0  0  0
 17 18  1  1  0  0  0
 19 20  1  0  0  0  0
 21 22  1  0  0  0  0
 21 29  1  0  0  0  0
 21 31  1  1  0  0  0
 22 23  1  0  0  0  0
 23 24  1  1  0  0  0
 23 25  1  0  0  0  0
 25 26  1  6  0  0  0
 25 27  1  0  0  0  0
 27 28  1  1  0  0  0
 27 29  1  0  0  0  0
 29 30  1  1  0  0  0
 31 32  1  0  0  0  0
 33 34  1  0  0  0  0
 33 38  1  0  0  0  0
 33 39  1  6  0  0  0
 34 35  1  0  0  0  0
 35 36  1  0  0  0  0
 35 40  1  1  0  0  0
 36 24  1  1  0  0  0
 36 37  1  0  0  0  0
 37 38  1  0  0  0  0
 37 41  1  1  0  0  0
 38 42  1  6  0  0  0
M  CHG  6  14   1  20   1  26   1  32   1  39   1  40   1
M  END
>  <CHROM.1>
169.33963358,179.30978568,-175.04822574,174.28987307,-177.11697144,-80.47333083
59.23332607,179.37021612,-178.74428570,-64.48587029,38.01769682,68.55653836
32.91499132,-159.91795834,39.53475221,-167.22625150,158.85074325,-53.23703648
-70.22798909,-71.72445409,98.71617265,178.40692712,8.18536765,-7.76829333
-3.59824935,2.13433774,-1.32438002,-1.21420218

>  <Name>


>  <RI>
0

>  <Rbt.Current_Directory>
/home/itssahil/PROJECTS/Mol_Feturizer/New_Systems/rnas/1qd3

>  <Rbt.Executable>
rbdock ($Id: //depot/dev/client3/rdock/2013.1/src/exe/rbdock.cxx#4 $)

>  <Rbt.Library>
libRbt.so (2013.1, Build901 2013/11/27)

>  <Rbt.Parameter_File>
/export/apps/rDock/src/rDock_2013.1_src/data/scripts/dock_solv.prm

>  <Rbt.Receptor>
prm/pocket_docking_7.prm

>  <SCORE>
-53.3378

>  <SCORE.INTER>
-29.1938

>  <SCORE.INTER.CONST>
1

>  <SCORE.INTER.POLAR>
-6.95722

>  <SCORE.INTER.ROT>
9

>  <SCORE.INTER.SOLV>
25.0039

>  <SCORE.INTER.VDW>
-14.2064

>  <SCORE.INTER.norm>
-0.695089

>  <SCORE.INTRA>
-24.1441

>  <SCORE.INTRA.DIHEDRAL>
-21.0192

>  <SCORE.INTRA.DIHEDRAL.0>
40.6252

>  <SCORE.INTRA.POLAR>
-0.0382538

>  <SCORE.INTRA.POLAR.0>
-1.20161

>  <SCORE.INTRA.REPUL>
-0.115675

>  <SCORE.INTRA.REPUL.0>
0.115675

>  <SCORE.INTRA.SOLV>
-9.60174

>  <SCORE.INTRA.SOLV.lig_0>
-154.895

>  <SCORE.INTRA.VDW>
-8.12515

>  <SCORE.INTRA.VDW.0>
2.2925

>  <SCORE.INTRA.norm>
-0.574859

>  <SCORE.RESTR>
0

>  <SCORE.RESTR.CAVITY>
0

>  <SCORE.RESTR.norm>
0

>  <SCORE.SYSTEM>
0

>  <SCORE.SYSTEM.CONST>
0

>  <SCORE.SYSTEM.DIHEDRAL>
0

>  <SCORE.SYSTEM.SOLV>
0

>  <SCORE.SYSTEM.norm>
0

>  <SCORE.heavy>
42

>  <SCORE.norm>
-1.26995

>  <RMSD>
7.444

$$$$

 OpenBabel11021811413D
libRbt.so/2013.1/901 2013/11/27
 42 45  0  0  0  0  0  0  0  0999 V2000
    5.0191   -8.1616   -1.4081 O   0  0  0  0  0  0  0  0  0  0  0  0
    5.9359   -8.1367   -2.4928 C   0  0  0  0  0  0  0  0  0  0  0  0
    5.8336   -6.7989   -3.2264 C   0  0  1  0  0  0  0  0  0  0  0  0
    6.2926   -5.7091   -2.3974 O   0  0  0  0  0  0  0  0  0  0  0  0
    6.6740   -6.7384   -4.4910 C   0  0  2  0  0  0  0  0  0  0  0  0
    6.7718   -5.2347   -4.6871 C   0  0  1  0  0  0  0  0  0  0  0  0
    5.5524   -4.7402   -5.2296 O   0  0  0  0  0  0  0  0  0  0  0  0
    6.9460   -4.7272   -3.2411 C   0  0  2  0  0  0  0  0  0  0  0  0
    7.1835   -8.9594   -8.6844 C   0  0  2  0  0  0  0  0  0  0  0  0
    6.2825   -8.5533   -7.6429 O   0  0  0  0  0  0  0  0  0  0  0  0
    6.9365   -7.7375   -6.6542 C   0  0  2  0  0  0  0  0  0  0  0  0
    6.0195   -7.3958   -5.5940 O   0  0  0  0  0  0  0  0  0  0  0  0
    7.5103   -6.4625   -7.2957 C   0  0  2  0  0  0  0  0  0  0  0  0
    6.4563   -5.5010   -7.5622 N   0  3  0  0  0  0  0  0  0  0  0  0
    8.3165   -6.7426   -8.5694 C   0  0  1  0  0  0  0  0  0  0  0  0
    9.5977   -7.2391   -8.2161 O   0  0  0  0  0  0  0  0  0  0  0  0
    7.6174   -7.7406   -9.4886 C   0  0  2  0  0  0  0  0  0  0  0  0
    6.4872   -7.1290  -10.0993 O   0  0  0  0  0  0  0  0  0  0  0  0
    6.5277  -10.0006   -9.5871 C   0  0  0  0  0  0  0  0  0  0  0  0
    6.0201  -11.1074   -8.7982 N   0  3  0  0  0  0  0  0  0  0  0  0
   11.7190   -2.6832   -6.2682 C   0  0  1  0  0  0  0  0  0  0  0  0
   10.4094   -3.2258   -5.9987 O   0  0  0  0  0  0  0  0  0  0  0  0
   10.1987   -3.5485   -4.6048 C   0  0  2  0  0  0  0  0  0  0  0  0
   10.2037   -2.3664   -3.7667 O   0  0  0  0  0  0  0  0  0  0  0  0
   11.2353   -4.5713   -4.1242 C   0  0  2  0  0  0  0  0  0  0  0  0
   11.1476   -4.7264   -2.6841 N   0  3  0  0  0  0  0  0  0  0  0  0
   12.6540   -4.1564   -4.4980 C   0  0  1  0  0  0  0  0  0  0  0  0
   13.5475   -5.2305   -4.2487 O   0  0  0  0  0  0  0  0  0  0  0  0
   12.7880   -3.7149   -5.9473 C   0  0  2  0  0  0  0  0  0  0  0  0
   14.0775   -3.1672   -6.1791 O   0  0  0  0  0  0  0  0  0  0  0  0
   11.8442   -2.3314   -7.7478 C   0  0  0  0  0  0  0  0  0  0  0  0
   11.8005   -3.5291   -8.5665 N   0  3  0  0  0  0  0  0  0  0  0  0
    7.9014   -1.9880   -0.2092 C   0  0  2  0  0  0  0  0  0  0  0  0
    7.9297   -0.8134   -1.1672 C   0  0  0  0  0  0  0  0  0  0  0  0
    9.0827   -0.9519   -2.1440 C   0  0  1  0  0  0  0  0  0  0  0  0
    8.9764   -2.2099   -3.0072 C   0  0  2  0  0  0  0  0  0  0  0  0
    8.7344   -3.4621   -2.1330 C   0  0  1  0  0  0  0  0  0  0  0  0
    7.7488   -3.2991   -0.9683 C   0  0  1  0  0  0  0  0  0  0  0  0
    6.7955   -1.8288    0.7159 N   0  3  0  0  0  0  0  0  0  0  0  0
    9.1402    0.2340   -2.9763 N   0  3  0  0  0  0  0  0  0  0  0  0
    8.3657   -4.6090   -2.9378 O   0  0  0  0  0  0  0  0  0  0  0  0
    7.8819   -4.3937   -0.0676 O   0  0  0  0  0  0  0  0  0  0  0  0
  1  2  1  0  0  0  0
  3  2  1  1  0  0  0
  3  4  1  0  0  0  0
  3  5  1  0  0  0  0
  4  8  1  0  0  0  0
  5  6  1  0  0  0  0
  5 12  1  6  0  0  0
  6  7  1  1  0  0  0
  6  8  1  0  0  0  0
  8 41  1  1  0  0  0
  9 10  1  0  0  0  0
  9 17  1  0  0  0  0
  9 19  1  6  0  0  0
 10 11  1  0  0  0  0
 11 12  1  1  0  0  0
 11 13  1  0  0  0  0
 13 14  1  6  0  0  0
 13 15  1  0  0  0  0
 15 16  1  1  0  0  0
 15 17  1  0  0  0  0
 17 18  1  1  0  0  0
 19 20  1  0  0  0  0
 21 22  1  0  0  0  0
 21 29  1  0  0  0  0
 21 31  1  6  0  0  0
 22 23  1  0  0  0  0
 23 24  1  1  0  0  0
 23 25  1  0  0  0  0
 25 26  1  1  0  0  0
 25 27  1  0  0  0  0
 27 28  1  6  0  0  0
 27 29  1  0  0  0  0
 29 30  1  1  0  0  0
 31 32  1  0  0  0  0
 33 34  1  0  0  0  0
 33 38  1  0  0  0  0
 33 39  1  1  0  0  0
 34 35  1  0  0  0  0
 35 36  1  0  0  0  0
 35 40  1  6  0  0  0
 36 24  1  1  0  0  0
 36 37  1  0  0  0  0
 37 38  1  0  0  0  0
 37 41  1  6  0  0  0
 38 42  1  1  0  0  0
M  CHG  6  14   1  20   1  26   1  32   1  39   1  40   1
M  END
>  <CHROM.1>
177.57539337,66.96521727,-161.11095277,-177.63180576,-101.54862319,-53.53034735
171.90440359,164.10922839,-71.67445130,-65.63279742,58.92243866,-66.27566042
122.40309868,179.27163877,-173.56330698,-168.27071318,-174.11377288,-161.30952383
157.13982972,-87.45024568,-86.14863055,-177.82491847,8.52389866,-5.05143986
-4.88790449,1.93079467,-0.59758076,-2.14221531

>  <Name>


>  <RI>
0

>  <Rbt.Current_Directory>
/home/itssahil/PROJECTS/Mol_Feturizer/New_Systems/rnas/1qd3

>  <Rbt.Executable>
rbdock ($Id: //depot/dev/client3/rdock/2013.1/src/exe/rbdock.cxx#4 $)

>  <Rbt.Library>
libRbt.so (2013.1, Build901 2013/11/27)

>  <Rbt.Parameter_File>
/export/apps/rDock/src/rDock_2013.1_src/data/scripts/dock_solv.prm

>  <Rbt.Receptor>
prm/pocket_docking_5.prm

>  <SCORE>
-52.2084

>  <SCORE.INTER>
-37.1264

>  <SCORE.INTER.CONST>
1

>  <SCORE.INTER.POLAR>
-6.49669

>  <SCORE.INTER.ROT>
9

>  <SCORE.INTER.SOLV>
38.8625

>  <SCORE.INTER.VDW>
-25.6495

>  <SCORE.INTER.norm>
-0.883962

>  <SCORE.INTRA>
-15.7605

>  <SCORE.INTRA.DIHEDRAL>
-15.19

>  <SCORE.INTRA.DIHEDRAL.0>
40.6252

>  <SCORE.INTRA.POLAR>
-0.0836439

>  <SCORE.INTRA.POLAR.0>
-1.20161

>  <SCORE.INTRA.REPUL>
-0.115675

>  <SCORE.INTRA.REPUL.0>
0.115675

>  <SCORE.INTRA.SOLV>
-5.74955

>  <SCORE.INTRA.SOLV.lig_0>
-154.895

>  <SCORE.INTRA.VDW>
-4.42794

>  <SCORE.INTRA.VDW.0>
2.2925

>  <SCORE.INTRA.norm>
-0.375249

>  <SCORE.RESTR>
0.67845

>  <SCORE.RESTR.CAVITY>
0.67845

>  <SCORE.RESTR.norm>
0.0161536

>  <SCORE.SYSTEM>
0

>  <SCORE.SYSTEM.CONST>
0

>  <SCORE.SYSTEM.DIHEDRAL>
0

>  <SCORE.SYSTEM.SOLV>
0

>  <SCORE.SYSTEM.norm>
0

>  <SCORE.heavy>
42

>  <SCORE.norm>
-1.24306

>  <RMSD>
7.502

$$$$

 OpenBabel11021811413D
libRbt.so/2013.1/901 2013/11/27
 42 45  0  0  0  0  0  0  0  0999 V2000
    4.8386   -9.6165   -3.5856 O   0  0  0  0  0  0  0  0  0  0  0  0
    4.9823   -8.9291   -4.8203 C   0  0  0  0  0  0  0  0  0  0  0  0
    5.3167   -7.4600   -4.5591 C   0  0  1  0  0  0  0  0  0  0  0  0
    6.5202   -7.3273   -3.7719 O   0  0  0  0  0  0  0  0  0  0  0  0
    5.5636   -6.6623   -5.8288 C   0  0  2  0  0  0  0  0  0  0  0  0
    6.3289   -5.4762   -5.2664 C   0  0  1  0  0  0  0  0  0  0  0  0
    5.4251   -4.5768   -4.6340 O   0  0  0  0  0  0  0  0  0  0  0  0
    7.2322   -6.1418   -4.2083 C   0  0  2  0  0  0  0  0  0  0  0  0
    4.2761   -9.0154   -8.8698 C   0  0  2  0  0  0  0  0  0  0  0  0
    4.4175   -8.3366   -7.6125 O   0  0  0  0  0  0  0  0  0  0  0  0
    4.1193   -6.9331   -7.7227 C   0  0  2  0  0  0  0  0  0  0  0  0
    4.3272   -6.2714   -6.4576 O   0  0  0  0  0  0  0  0  0  0  0  0
    2.6740   -6.7214   -8.2052 C   0  0  2  0  0  0  0  0  0  0  0  0
    1.7316   -6.9570   -7.1269 N   0  3  0  0  0  0  0  0  0  0  0  0
    2.3180   -7.5775   -9.4263 C   0  0  1  0  0  0  0  0  0  0  0  0
    2.8785   -6.9925  -10.5910 O   0  0  0  0  0  0  0  0  0  0  0  0
    2.8114   -9.0152   -9.2885 C   0  0  2  0  0  0  0  0  0  0  0  0
    2.0264   -9.7077   -8.3248 O   0  0  0  0  0  0  0  0  0  0  0  0
    4.8139  -10.4403   -8.7753 C   0  0  0  0  0  0  0  0  0  0  0  0
    4.6158  -10.9690   -7.4388 N   0  3  0  0  0  0  0  0  0  0  0  0
    8.3144   -2.6588   -1.7240 C   0  0  1  0  0  0  0  0  0  0  0  0
    7.9706   -3.5183   -2.8309 O   0  0  0  0  0  0  0  0  0  0  0  0
    9.1025   -3.8603   -3.6635 C   0  0  2  0  0  0  0  0  0  0  0  0
   10.0734   -4.6698   -2.9552 O   0  0  0  0  0  0  0  0  0  0  0  0
    9.7516   -2.5958   -4.2391 C   0  0  2  0  0  0  0  0  0  0  0  0
   11.0012   -2.9347   -4.8944 N   0  3  0  0  0  0  0  0  0  0  0  0
   10.0193   -1.5554   -3.1572 C   0  0  1  0  0  0  0  0  0  0  0  0
   10.3952   -0.3261   -3.7586 O   0  0  0  0  0  0  0  0  0  0  0  0
    8.8290   -1.3246   -2.2390 C   0  0  2  0  0  0  0  0  0  0  0  0
    9.2003   -0.4933   -1.1491 O   0  0  0  0  0  0  0  0  0  0  0  0
    7.0775   -2.3814   -0.8744 C   0  0  0  0  0  0  0  0  0  0  0  0
    6.0042   -1.8426   -1.6895 N   0  3  0  0  0  0  0  0  0  0  0  0
   10.3379   -8.8906   -2.4922 C   0  0  2  0  0  0  0  0  0  0  0  0
   10.1217   -8.0502   -1.2492 C   0  0  0  0  0  0  0  0  0  0  0  0
   10.4517   -6.5954   -1.5271 C   0  0  1  0  0  0  0  0  0  0  0  0
    9.5678   -5.9880   -2.6173 C   0  0  2  0  0  0  0  0  0  0  0  0
    9.5487   -6.8840   -3.8773 C   0  0  1  0  0  0  0  0  0  0  0  0
    9.4620   -8.3967   -3.6358 C   0  0  1  0  0  0  0  0  0  0  0  0
   10.0214  -10.2754   -2.1988 N   0  3  0  0  0  0  0  0  0  0  0  0
   10.3316   -5.8412   -0.2946 N   0  3  0  0  0  0  0  0  0  0  0  0
    8.5182   -6.4706   -4.8080 O   0  0  0  0  0  0  0  0  0  0  0  0
    9.7941   -9.0954   -4.8311 O   0  0  0  0  0  0  0  0  0  0  0  0
  1  2  1  0  0  0  0
  3  2  1  6  0  0  0
  3  4  1  0  0  0  0
  3  5  1  0  0  0  0
  4  8  1  0  0  0  0
  5  6  1  0  0  0  0
  5 12  1  1  0  0  0
  6  7  1  1  0  0  0
  6  8  1  0  0  0  0
  8 41  1  6  0  0  0
  9 10  1  0  0  0  0
  9 17  1  0  0  0  0
  9 19  1  1  0  0  0
 10 11  1  0  0  0  0
 11 12  1  1  0  0  0
 11 13  1  0  0  0  0
 13 14  1  1  0  0  0
 13 15  1  0  0  0  0
 15 16  1  6  0  0  0
 15 17  1  0  0  0  0
 17 18  1  1  0  0  0
 19 20  1  0  0  0  0
 21 22  1  0  0  0  0
 21 29  1  0  0  0  0
 21 31  1  1  0  0  0
 22 23  1  0  0  0  0
 23 24  1  1  0  0  0
 23 25  1  0  0  0  0
 25 26  1  1  0  0  0
 25 27  1  0  0  0  0
 27 28  1  6  0  0  0
 27 29  1  0  0  0  0
 29 30  1  1  0  0  0
 31 32  1  0  0  0  0
 33 34  1  0  0  0  0
 33 38  1  0  0  0  0
 33 39  1  1  0  0  0
 34 35  1  0  0  0  0
 35 36  1  0  0  0  0
 35 40  1  1  0  0  0
 36 24  1  6  0  0  0
 36 37  1  0  0  0  0
 37 38  1  0  0  0  0
 37 41  1  6  0  0  0
 38 42  1  6  0  0  0
M  CHG  6  14   1  20   1  26   1  32   1  39   1  40   1
M  END
>  <CHROM.1>
-66.57339446,57.72446067,-112.44546262,-67.22931919,-73.59077739,31.95622529
45.24928466,31.20533851,64.42580316,-65.09196323,-86.42220356,-54.75630547
66.75265145,-162.54716212,-44.85101361,57.33884471,-75.36934870,-50.25758939
-171.34828859,86.04328358,-43.24363908,68.24626758,6.96089620,-6.18878774
-4.68509393,-2.50707230,-0.69806303,0.11979465

>  <Name>


>  <RI>
0

>  <Rbt.Current_Directory>
/home/itssahil/PROJECTS/Mol_Feturizer/New_Systems/rnas/1qd3

>  <Rbt.Executable>
rbdock ($Id: //depot/dev/client3/rdock/2013.1/src/exe/rbdock.cxx#4 $)

>  <Rbt.Library>
libRbt.so (2013.1, Build901 2013/11/27)

>  <Rbt.Parameter_File>
/export/apps/rDock/src/rDock_2013.1_src/data/scripts/dock_solv.prm

>  <Rbt.Receptor>
prm/pocket_docking_8.prm

>  <SCORE>
-50.2873

>  <SCORE.INTER>
-31.4294

>  <SCORE.INTER.CONST>
1

>  <SCORE.INTER.POLAR>
-5.66835

>  <SCORE.INTER.ROT>
9

>  <SCORE.INTER.SOLV>
25.0692

>  <SCORE.INTER.VDW>
-20.0149

>  <SCORE.INTER.norm>
-0.74832

>  <SCORE.INTRA>
-18.8579

>  <SCORE.INTRA.DIHEDRAL>
-18.2291

>  <SCORE.INTRA.DIHEDRAL.0>
40.6252

>  <SCORE.INTRA.POLAR>
0.724038

>  <SCORE.INTRA.POLAR.0>
-1.20161

>  <SCORE.INTRA.REPUL>
-0.115675

>  <SCORE.INTRA.REPUL.0>
0.115675

>  <SCORE.INTRA.SOLV>
-7.89952

>  <SCORE.INTRA.SOLV.lig_0>
-154.895

>  <SCORE.INTRA.VDW>
-7.67695

>  <SCORE.INTRA.VDW.0>
2.2925

>  <SCORE.INTRA.norm>
-0.448997

>  <SCORE.RESTR>
0

>  <SCORE.RESTR.CAVITY>
0

>  <SCORE.RESTR.norm>
0

>  <SCORE.SYSTEM>
0

>  <SCORE.SYSTEM.CONST>
0

>  <SCORE.SYSTEM.DIHEDRAL>
0

>  <SCORE.SYSTEM.SOLV>
0

>  <SCORE.SYSTEM.norm>
0

>  <SCORE.heavy>
42

>  <SCORE.norm>
-1.19732

>  <RMSD>
7.527

$$$$

 OpenBabel11021811413D
libRbt.so/2013.1/901 2013/11/27
 42 45  0  0  0  0  0  0  0  0999 V2000
    4.4662  -10.1485   -5.2277 O   0  0  0  0  0  0  0  0  0  0  0  0
    5.5481   -9.4923   -5.8730 C   0  0  0  0  0  0  0  0  0  0  0  0
    5.2530   -7.9961   -5.9857 C   0  0  1  0  0  0  0  0  0  0  0  0
    4.9656   -7.4188   -4.6935 O   0  0  0  0  0  0  0  0  0  0  0  0
    6.4140   -7.1928   -6.5480 C   0  0  2  0  0  0  0  0  0  0  0  0
    6.0390   -5.7974   -6.0776 C   0  0  1  0  0  0  0  0  0  0  0  0
    5.0079   -5.2716   -6.9061 O   0  0  0  0  0  0  0  0  0  0  0  0
    5.4881   -6.0665   -4.6624 C   0  0  2  0  0  0  0  0  0  0  0  0
    9.8766   -8.5325   -8.4993 C   0  0  2  0  0  0  0  0  0  0  0  0
    8.5047   -8.5134   -8.0761 O   0  0  0  0  0  0  0  0  0  0  0  0
    7.8361   -7.3030   -8.4746 C   0  0  2  0  0  0  0  0  0  0  0  0
    6.4792   -7.2903   -7.9844 O   0  0  0  0  0  0  0  0  0  0  0  0
    7.8524   -7.1526  -10.0055 C   0  0  2  0  0  0  0  0  0  0  0  0
    6.8761   -8.0334  -10.6198 N   0  3  0  0  0  0  0  0  0  0  0  0
    9.2404   -7.3804  -10.6157 C   0  0  1  0  0  0  0  0  0  0  0  0
   10.0394   -6.2258  -10.4125 O   0  0  0  0  0  0  0  0  0  0  0  0
    9.9413   -8.5983  -10.0198 C   0  0  2  0  0  0  0  0  0  0  0  0
    9.3213   -9.7914  -10.4853 O   0  0  0  0  0  0  0  0  0  0  0  0
   10.6164   -9.7110   -7.8725 C   0  0  0  0  0  0  0  0  0  0  0  0
    9.8845  -10.9440   -8.0936 N   0  3  0  0  0  0  0  0  0  0  0  0
    9.1546   -6.8473    1.1011 C   0  0  1  0  0  0  0  0  0  0  0  0
    9.1399   -7.0377   -0.3292 O   0  0  0  0  0  0  0  0  0  0  0  0
    7.8194   -7.2965   -0.8590 C   0  0  2  0  0  0  0  0  0  0  0  0
    6.9395   -6.1553   -0.7067 O   0  0  0  0  0  0  0  0  0  0  0  0
    7.2150   -8.5504   -0.2154 C   0  0  2  0  0  0  0  0  0  0  0  0
    5.8202   -8.6785   -0.5944 N   0  3  0  0  0  0  0  0  0  0  0  0
    7.3195   -8.5113    1.3052 C   0  0  1  0  0  0  0  0  0  0  0  0
    6.9696   -9.7780    1.8411 O   0  0  0  0  0  0  0  0  0  0  0  0
    8.7022   -8.1179    1.8019 C   0  0  2  0  0  0  0  0  0  0  0  0
    8.6831   -7.9175    3.2076 O   0  0  0  0  0  0  0  0  0  0  0  0
   10.5728   -6.5384    1.5723 C   0  0  0  0  0  0  0  0  0  0  0  0
   11.5171   -7.4926    1.0206 N   0  3  0  0  0  0  0  0  0  0  0  0
    6.4478   -2.3131   -2.4661 C   0  0  2  0  0  0  0  0  0  0  0  0
    7.5621   -2.4956   -1.4546 C   0  0  0  0  0  0  0  0  0  0  0  0
    7.3462   -3.7633   -0.6489 C   0  0  1  0  0  0  0  0  0  0  0  0
    7.3429   -5.0213   -1.5184 C   0  0  2  0  0  0  0  0  0  0  0  0
    6.3800   -4.8626   -2.7177 C   0  0  1  0  0  0  0  0  0  0  0  0
    6.3863   -3.4984   -3.4201 C   0  0  1  0  0  0  0  0  0  0  0  0
    6.6744   -1.0936   -3.2179 N   0  3  0  0  0  0  0  0  0  0  0  0
    8.3712   -3.8526    0.3728 N   0  3  0  0  0  0  0  0  0  0  0  0
    6.5623   -5.9215   -3.6896 O   0  0  0  0  0  0  0  0  0  0  0  0
    5.2406   -3.3820   -4.2572 O   0  0  0  0  0  0  0  0  0  0  0  0
  1  2  1  0  0  0  0
  3  2  1  1  0  0  0
  3  4  1  0  0  0  0
  3  5  1  0  0  0  0
  4  8  1  0  0  0  0
  5  6  1  0  0  0  0
  5 12  1  6  0  0  0
  6  7  1  6  0  0  0
  6  8  1  0  0  0  0
  8 41  1  1  0  0  0
  9 10  1  0  0  0  0
  9 17  1  0  0  0  0
  9 19  1  1  0  0  0
 10 11  1  0  0  0  0
 11 12  1  6  0  0  0
 11 13  1  0  0  0  0
 13 14  1  6  0  0  0
 13 15  1  0  0  0  0
 15 16  1  1  0  0  0
 15 17  1  0  0  0  0
 17 18  1  6  0  0  0
 19 20  1  0  0  0  0
 21 22  1  0  0  0  0
 21 29  1  0  0  0  0
 21 31  1  1  0  0  0
 22 23  1  0  0  0  0
 23 24  1  1  0  0  0
 23 25  1  0  0  0  0
 25 26  1  1  0  0  0
 25 27  1  0  0  0  0
 27 28  1  1  0  0  0
 27 29  1  0  0  0  0
 29 30  1  1  0  0  0
 31 32  1  0  0  0  0
 33 34  1  0  0  0  0
 33 38  1  0  0  0  0
 33 39  1  6  0  0  0
 34 35  1  0  0  0  0
 35 36  1  0  0  0  0
 35 40  1  1  0  0  0
 36 24  1  1  0  0  0
 36 37  1  0  0  0  0
 37 38  1  0  0  0  0
 37 41  1  6  0  0  0
 38 42  1  1  0  0  0
M  CHG  6  14   1  20   1  26   1  32   1  39   1  40   1
M  END
>  <CHROM.1>
-51.27093228,55.49761405,-144.43667292,-158.64803601,-125.83963479,51.25721531
67.46390637,-28.96039976,-61.59538529,55.77455644,174.39287991,-48.85619756
66.98653497,-131.73034544,-168.61656757,-173.24153164,64.73396277,80.67050863
-56.31142118,62.12475222,164.49151606,-56.66173230,7.55730060,-6.88446930
-4.07180922,-1.53958871,-1.14942682,1.42856865

>  <Name>


>  <RI>
0

>  <Rbt.Current_Directory>
/home/itssahil/PROJECTS/Mol_Feturizer/New_Systems/rnas/1qd3

>  <Rbt.Executable>
rbdock ($Id: //depot/dev/client3/rdock/2013.1/src/exe/rbdock.cxx#4 $)

>  <Rbt.Library>
libRbt.so (2013.1, Build901 2013/11/27)

>  <Rbt.Parameter_File>
/export/apps/rDock/src/rDock_2013.1_src/data/scripts/dock_solv.prm

>  <Rbt.Receptor>
prm/pocket_docking_6.prm

>  <SCORE>
-41.4476

>  <SCORE.INTER>
-25.5076

>  <SCORE.INTER.CONST>
1

>  <SCORE.INTER.POLAR>
-4.57899

>  <SCORE.INTER.ROT>
9

>  <SCORE.INTER.SOLV>
25.9708

>  <SCORE.INTER.VDW>
-19.9987

>  <SCORE.INTER.norm>
-0.607323

>  <SCORE.INTRA>
-15.94

>  <SCORE.INTRA.DIHEDRAL>
-13.6066

>  <SCORE.INTRA.DIHEDRAL.0>
40.6252

>  <SCORE.INTRA.POLAR>
1.08608

>  <SCORE.INTRA.POLAR.0>
-1.20161

>  <SCORE.INTRA.REPUL>
-0.115675

>  <SCORE.INTRA.REPUL.0>
0.115675

>  <SCORE.INTRA.SOLV>
-8.15642

>  <SCORE.INTRA.SOLV.lig_0>
-154.895

>  <SCORE.INTRA.VDW>
-8.17281

>  <SCORE.INTRA.VDW.0>
2.2925

>  <SCORE.INTRA.norm>
-0.379525

>  <SCORE.RESTR>
0

>  <SCORE.RESTR.CAVITY>
0

>  <SCORE.RESTR.norm>
0

>  <SCORE.SYSTEM>
0

>  <SCORE.SYSTEM.CONST>
0

>  <SCORE.SYSTEM.DIHEDRAL>
0

>  <SCORE.SYSTEM.SOLV>
0

>  <SCORE.SYSTEM.norm>
0

>  <SCORE.heavy>
42

>  <SCORE.norm>
-0.986848

>  <RMSD>
7.536

$$$$

 OpenBabel11021811413D
libRbt.so/2013.1/901 2013/11/27
 42 45  0  0  0  0  0  0  0  0999 V2000
    7.3438  -10.7748   -4.7061 O   0  0  0  0  0  0  0  0  0  0  0  0
    8.6527  -10.4750   -4.2429 C   0  0  0  0  0  0  0  0  0  0  0  0
    9.1454   -9.1785   -4.8868 C   0  0  1  0  0  0  0  0  0  0  0  0
    8.2537   -8.0788   -4.6016 O   0  0  0  0  0  0  0  0  0  0  0  0
   10.5134   -8.7404   -4.3909 C   0  0  2  0  0  0  0  0  0  0  0  0
   10.4929   -7.2723   -4.7822 C   0  0  1  0  0  0  0  0  0  0  0  0
   10.7325   -7.1437   -6.1793 O   0  0  0  0  0  0  0  0  0  0  0  0
    9.0397   -6.8683   -4.4604 C   0  0  2  0  0  0  0  0  0  0  0  0
   10.0732  -10.3093   -8.2681 C   0  0  2  0  0  0  0  0  0  0  0  0
   10.6178   -9.5056   -7.2103 O   0  0  0  0  0  0  0  0  0  0  0  0
   11.0854  -10.3084   -6.1114 C   0  0  2  0  0  0  0  0  0  0  0  0
   11.5717   -9.4692   -5.0434 O   0  0  0  0  0  0  0  0  0  0  0  0
   12.1884  -11.2749   -6.5759 C   0  0  2  0  0  0  0  0  0  0  0  0
   13.4468  -10.5735   -6.7521 N   0  3  0  0  0  0  0  0  0  0  0  0
   11.8170  -12.0404   -7.8513 C   0  0  1  0  0  0  0  0  0  0  0  0
   10.9208  -13.0910   -7.5258 O   0  0  0  0  0  0  0  0  0  0  0  0
   11.1831  -11.1361   -8.9048 C   0  0  2  0  0  0  0  0  0  0  0  0
   12.1705  -10.2799   -9.4674 O   0  0  0  0  0  0  0  0  0  0  0  0
    9.3835   -9.4324   -9.3093 C   0  0  0  0  0  0  0  0  0  0  0  0
    8.6520  -10.2517  -10.2573 N   0  3  0  0  0  0  0  0  0  0  0  0
    9.8038   -2.5110   -2.8590 C   0  0  1  0  0  0  0  0  0  0  0  0
    9.0309   -3.3935   -2.0188 O   0  0  0  0  0  0  0  0  0  0  0  0
    7.6133   -3.3584   -2.3024 C   0  0  2  0  0  0  0  0  0  0  0  0
    7.3104   -3.8721   -3.6231 O   0  0  0  0  0  0  0  0  0  0  0  0
    7.0608   -1.9394   -2.1211 C   0  0  2  0  0  0  0  0  0  0  0  0
    5.6956   -1.8732   -2.6086 N   0  3  0  0  0  0  0  0  0  0  0  0
    7.9062   -0.9056   -2.8566 C   0  0  1  0  0  0  0  0  0  0  0  0
    7.5049    0.4005   -2.4728 O   0  0  0  0  0  0  0  0  0  0  0  0
    9.3987   -1.0670   -2.6120 C   0  0  2  0  0  0  0  0  0  0  0  0
   10.1349   -0.2027   -3.4650 O   0  0  0  0  0  0  0  0  0  0  0  0
   11.2875   -2.6391   -2.5258 C   0  0  0  0  0  0  0  0  0  0  0  0
   11.4713   -3.0300   -1.1401 N   0  3  0  0  0  0  0  0  0  0  0  0
    5.5170   -7.2774   -1.8101 C   0  0  2  0  0  0  0  0  0  0  0  0
    4.7757   -6.6032   -2.9476 C   0  0  0  0  0  0  0  0  0  0  0  0
    5.3337   -5.2142   -3.1964 C   0  0  1  0  0  0  0  0  0  0  0  0
    6.8098   -5.2345   -3.5958 C   0  0  2  0  0  0  0  0  0  0  0  0
    7.6400   -6.0812   -2.6035 C   0  0  1  0  0  0  0  0  0  0  0  0
    7.0017   -7.3929   -2.1278 C   0  0  1  0  0  0  0  0  0  0  0  0
    4.9616   -8.5990   -1.5892 N   0  3  0  0  0  0  0  0  0  0  0  0
    4.5380   -4.5628   -4.2186 N   0  3  0  0  0  0  0  0  0  0  0  0
    8.9748   -6.3334   -3.1072 O   0  0  0  0  0  0  0  0  0  0  0  0
    7.7000   -7.8830   -0.9879 O   0  0  0  0  0  0  0  0  0  0  0  0
  1  2  1  0  0  0  0
  3  2  1  1  0  0  0
  3  4  1  0  0  0  0
  3  5  1  0  0  0  0
  4  8  1  0  0  0  0
  5  6  1  0  0  0  0
  5 12  1  6  0  0  0
  6  7  1  6  0  0  0
  6  8  1  0  0  0  0
  8 41  1  1  0  0  0
  9 10  1  0  0  0  0
  9 17  1  0  0  0  0
  9 19  1  6  0  0  0
 10 11  1  0  0  0  0
 11 12  1  1  0  0  0
 11 13  1  0  0  0  0
 13 14  1  6  0  0  0
 13 15  1  0  0  0  0
 15 16  1  1  0  0  0
 15 17  1  0  0  0  0
 17 18  1  1  0  0  0
 19 20  1  0  0  0  0
 21 22  1  0  0  0  0
 21 29  1  0  0  0  0
 21 31  1  1  0  0  0
 22 23  1  0  0  0  0
 23 24  1  6  0  0  0
 23 25  1  0  0  0  0
 25 26  1  6  0  0  0
 25 27  1  0  0  0  0
 27 28  1  1  0  0  0
 27 29  1  0  0  0  0
 29 30  1  6  0  0  0
 31 32  1  0  0  0  0
 33 34  1  0  0  0  0
 33 38  1  0  0  0  0
 33 39  1  6  0  0  0
 34 35  1  0  0  0  0
 35 36  1  0  0  0  0
 35 40  1  6  0  0  0
 36 24  1  1  0  0  0
 36 37  1  0  0  0  0
 37 38  1  0  0  0  0
 37 41  1  6  0  0  0
 38 42  1  1  0  0  0
M  CHG  6  14   1  20   1  26   1  32   1  39   1  40   1
M  END
>  <CHROM.1>
-179.75859343,57.81834841,7.05564007,35.22779361,-55.10244129,-170.79968144
69.10666764,-81.02389321,-60.44537772,-59.22321298,60.03693032,-28.25656975
101.21406494,78.94918474,-171.83644644,60.09672018,87.02170838,69.62886200
-68.98157365,104.60962443,-51.07656546,65.20352463,8.92001874,-6.80751132
-4.49985274,1.21912394,-0.48164917,-2.75821416

>  <Name>


>  <RI>
0

>  <Rbt.Current_Directory>
/home/itssahil/PROJECTS/Mol_Feturizer/New_Systems/rnas/1qd3

>  <Rbt.Executable>
rbdock ($Id: //depot/dev/client3/rdock/2013.1/src/exe/rbdock.cxx#4 $)

>  <Rbt.Library>
libRbt.so (2013.1, Build901 2013/11/27)

>  <Rbt.Parameter_File>
/export/apps/rDock/src/rDock_2013.1_src/data/scripts/dock_solv.prm

>  <Rbt.Receptor>
prm/pocket_docking_7.prm

>  <SCORE>
-40.2367

>  <SCORE.INTER>
-27.8685

>  <SCORE.INTER.CONST>
1

>  <SCORE.INTER.POLAR>
-6.74677

>  <SCORE.INTER.ROT>
9

>  <SCORE.INTER.SOLV>
31.4829

>  <SCORE.INTER.VDW>
-16.1841

>  <SCORE.INTER.norm>
-0.663537

>  <SCORE.INTRA>
-12.3682

>  <SCORE.INTRA.DIHEDRAL>
-10.9874

>  <SCORE.INTRA.DIHEDRAL.0>
40.6252

>  <SCORE.INTRA.POLAR>
-0.25991

>  <SCORE.INTRA.POLAR.0>
-1.20161

>  <SCORE.INTRA.REPUL>
-0.115675

>  <SCORE.INTRA.REPUL.0>
0.115675

>  <SCORE.INTRA.SOLV>
-7.5203

>  <SCORE.INTRA.SOLV.lig_0>
-154.895

>  <SCORE.INTRA.VDW>
-1.65224

>  <SCORE.INTRA.VDW.0>
2.2925

>  <SCORE.INTRA.norm>
-0.29448

>  <SCORE.RESTR>
0

>  <SCORE.RESTR.CAVITY>
0

>  <SCORE.RESTR.norm>
0

>  <SCORE.SYSTEM>
0

>  <SCORE.SYSTEM.CONST>
0

>  <SCORE.SYSTEM.DIHEDRAL>
0

>  <SCORE.SYSTEM.SOLV>
0

>  <SCORE.SYSTEM.norm>
0

>  <SCORE.heavy>
42

>  <SCORE.norm>
-0.958017

>  <RMSD>
7.537

$$$$

 OpenBabel11021811413D
libRbt.so/2013.1/901 2013/11/27
 42 45  0  0  0  0  0  0  0  0999 V2000
    5.3630   -8.7970   -3.0811 O   0  0  0  0  0  0  0  0  0  0  0  0
    5.8786   -7.9926   -4.1322 C   0  0  0  0  0  0  0  0  0  0  0  0
    5.6104   -6.5169   -3.8341 C   0  0  1  0  0  0  0  0  0  0  0  0
    6.3821   -6.0615   -2.7015 O   0  0  0  0  0  0  0  0  0  0  0  0
    5.9780   -5.5927   -4.9830 C   0  0  2  0  0  0  0  0  0  0  0  0
    6.0882   -4.2673   -4.2481 C   0  0  1  0  0  0  0  0  0  0  0  0
    4.7871   -3.7547   -3.9832 O   0  0  0  0  0  0  0  0  0  0  0  0
    6.7672   -4.6816   -2.9267 C   0  0  2  0  0  0  0  0  0  0  0  0
    6.5021   -8.2631   -7.9302 C   0  0  2  0  0  0  0  0  0  0  0  0
    6.0690   -7.5105   -6.7868 O   0  0  0  0  0  0  0  0  0  0  0  0
    5.3239   -6.3389   -7.1651 C   0  0  2  0  0  0  0  0  0  0  0  0
    4.9546   -5.5760   -5.9976 O   0  0  0  0  0  0  0  0  0  0  0  0
    4.0704   -6.7284   -7.9672 C   0  0  2  0  0  0  0  0  0  0  0  0
    3.0372   -7.2456   -7.0889 N   0  3  0  0  0  0  0  0  0  0  0  0
    4.3653   -7.7248   -9.0946 C   0  0  1  0  0  0  0  0  0  0  0  0
    4.9514   -7.0379  -10.1889 O   0  0  0  0  0  0  0  0  0  0  0  0
    5.2912   -8.8512   -8.6433 C   0  0  2  0  0  0  0  0  0  0  0  0
    4.5927   -9.7352   -7.7744 O   0  0  0  0  0  0  0  0  0  0  0  0
    7.4743   -9.3631   -7.5133 C   0  0  0  0  0  0  0  0  0  0  0  0
    8.6913   -8.7860   -6.9742 N   0  3  0  0  0  0  0  0  0  0  0  0
   12.1217   -2.3742   -6.3531 C   0  0  1  0  0  0  0  0  0  0  0  0
   10.6808   -2.4387   -6.3106 O   0  0  0  0  0  0  0  0  0  0  0  0
   10.1764   -3.2880   -5.2544 C   0  0  2  0  0  0  0  0  0  0  0  0
   10.4845   -2.7617   -3.9399 O   0  0  0  0  0  0  0  0  0  0  0  0
   10.7028   -4.7195   -5.4140 C   0  0  2  0  0  0  0  0  0  0  0  0
   10.3651   -5.5052   -4.2417 N   0  3  0  0  0  0  0  0  0  0  0  0
   12.2136   -4.7466   -5.6171 C   0  0  1  0  0  0  0  0  0  0  0  0
   12.6220   -6.0527   -5.9934 O   0  0  0  0  0  0  0  0  0  0  0  0
   12.6974   -3.7477   -6.6571 C   0  0  2  0  0  0  0  0  0  0  0  0
   14.1162   -3.6897   -6.6632 O   0  0  0  0  0  0  0  0  0  0  0  0
   12.5697   -1.4282   -7.4635 C   0  0  0  0  0  0  0  0  0  0  0  0
   12.0223   -1.8413   -8.7427 N   0  3  0  0  0  0  0  0  0  0  0  0
    8.2538   -1.7424   -0.4636 C   0  0  2  0  0  0  0  0  0  0  0  0
    8.5390   -0.6477   -1.4728 C   0  0  0  0  0  0  0  0  0  0  0  0
    9.6540   -1.0683   -2.4124 C   0  0  1  0  0  0  0  0  0  0  0  0
    9.3041   -2.3189   -3.2201 C   0  0  2  0  0  0  0  0  0  0  0  0
    8.7950   -3.4498   -2.2966 C   0  0  1  0  0  0  0  0  0  0  0  0
    7.8459   -3.0303   -1.1663 C   0  0  1  0  0  0  0  0  0  0  0  0
    7.1901   -1.3138    0.4245 N   0  3  0  0  0  0  0  0  0  0  0  0
    9.9681    0.0377   -3.2958 N   0  3  0  0  0  0  0  0  0  0  0  0
    8.2104   -4.5350   -3.0578 O   0  0  0  0  0  0  0  0  0  0  0  0
    7.7361   -4.0828   -0.2138 O   0  0  0  0  0  0  0  0  0  0  0  0
  1  2  1  0  0  0  0
  3  2  1  6  0  0  0
  3  4  1  0  0  0  0
  3  5  1  0  0  0  0
  4  8  1  0  0  0  0
  5  6  1  0  0  0  0
  5 12  1  6  0  0  0
  6  7  1  1  0  0  0
  6  8  1  0  0  0  0
  8 41  1  6  0  0  0
  9 10  1  0  0  0  0
  9 17  1  0  0  0  0
  9 19  1  1  0  0  0
 10 11  1  0  0  0  0
 11 12  1  1  0  0  0
 11 13  1  0  0  0  0
 13 14  1  1  0  0  0
 13 15  1  0  0  0  0
 15 16  1  6  0  0  0
 15 17  1  0  0  0  0
 17 18  1  1  0  0  0
 19 20  1  0  0  0  0
 21 22  1  0  0  0  0
 21 29  1  0  0  0  0
 21 31  1  6  0  0  0
 22 23  1  0  0  0  0
 23 24  1  1  0  0  0
 23 25  1  0  0  0  0
 25 26  1  1  0  0  0
 25 27  1  0  0  0  0
 27 28  1  6  0  0  0
 27 29  1  0  0  0  0
 29 30  1  1  0  0  0
 31 32  1  0  0  0  0
 33 34  1  0  0  0  0
 33 38  1  0  0  0  0
 33 39  1  1  0  0  0
 34 35  1  0  0  0  0
 35 36  1  0  0  0  0
 35 40  1  6  0  0  0
 36 24  1  1  0  0  0
 36 37  1  0  0  0  0
 37 38  1  0  0  0  0
 37 41  1  6  0  0  0
 38 42  1  1  0  0  0
M  CHG  6  14   1  20   1  26   1  32   1  39   1  40   1
M  END
>  <CHROM.1>
-55.27373555,67.82871166,-104.26396321,-64.39216190,-133.63930173,-64.72317543
36.49335887,34.99972797,62.74106089,45.35319975,-73.40105369,-56.52849627
112.08433523,-143.28101349,163.78904425,-44.35814033,-173.33614902,-25.88570161
-50.57067064,-80.75186519,-110.65467569,76.79380059,8.05663756,-4.91824229
-5.06792264,2.36498513,-0.49143878,-2.15433133

>  <Name>


>  <RI>
0

>  <Rbt.Current_Directory>
/home/itssahil/PROJECTS/Mol_Feturizer/New_Systems/rnas/1qd3

>  <Rbt.Executable>
rbdock ($Id: //depot/dev/client3/rdock/2013.1/src/exe/rbdock.cxx#4 $)

>  <Rbt.Library>
libRbt.so (2013.1, Build901 2013/11/27)

>  <Rbt.Parameter_File>
/export/apps/rDock/src/rDock_2013.1_src/data/scripts/dock_solv.prm

>  <Rbt.Receptor>
prm/pocket_docking_8.prm

>  <SCORE>
-50.6787

>  <SCORE.INTER>
-43.6549

>  <SCORE.INTER.CONST>
1

>  <SCORE.INTER.POLAR>
-7.74729

>  <SCORE.INTER.ROT>
9

>  <SCORE.INTER.SOLV>
38.1909

>  <SCORE.INTER.VDW>
-25.6093

>  <SCORE.INTER.norm>
-1.0394

>  <SCORE.INTRA>
-7.02379

>  <SCORE.INTRA.DIHEDRAL>
3.78861

>  <SCORE.INTRA.DIHEDRAL.0>
40.6252

>  <SCORE.INTRA.POLAR>
-0.166086

>  <SCORE.INTRA.POLAR.0>
-1.20161

>  <SCORE.INTRA.REPUL>
-0.115675

>  <SCORE.INTRA.REPUL.0>
0.115675

>  <SCORE.INTRA.SOLV>
-7.57139

>  <SCORE.INTRA.SOLV.lig_0>
-154.895

>  <SCORE.INTRA.VDW>
-3.98933

>  <SCORE.INTRA.VDW.0>
2.2925

>  <SCORE.INTRA.norm>
-0.167233

>  <SCORE.RESTR>
0

>  <SCORE.RESTR.CAVITY>
0

>  <SCORE.RESTR.norm>
0

>  <SCORE.SYSTEM>
0

>  <SCORE.SYSTEM.CONST>
0

>  <SCORE.SYSTEM.DIHEDRAL>
0

>  <SCORE.SYSTEM.SOLV>
0

>  <SCORE.SYSTEM.norm>
0

>  <SCORE.heavy>
42

>  <SCORE.norm>
-1.20664

>  <RMSD>
7.635

$$$$

 OpenBabel11021811413D
libRbt.so/2013.1/901 2013/11/27
 42 45  0  0  0  0  0  0  0  0999 V2000
   11.9823   -1.0369   -5.5822 O   0  0  0  0  0  0  0  0  0  0  0  0
   11.4733   -2.2898   -6.0167 C   0  0  0  0  0  0  0  0  0  0  0  0
   12.3450   -3.4206   -5.4689 C   0  0  1  0  0  0  0  0  0  0  0  0
   12.3582   -3.4210   -4.0248 O   0  0  0  0  0  0  0  0  0  0  0  0
   11.8663   -4.8037   -5.8780 C   0  0  2  0  0  0  0  0  0  0  0  0
   12.5613   -5.6583   -4.8313 C   0  0  1  0  0  0  0  0  0  0  0  0
   13.9354   -5.8105   -5.1698 O   0  0  0  0  0  0  0  0  0  0  0  0
   12.4271   -4.7934   -3.5614 C   0  0  2  0  0  0  0  0  0  0  0  0
    9.6740   -7.0614   -8.9045 C   0  0  2  0  0  0  0  0  0  0  0  0
   10.4018   -5.9189   -8.4286 O   0  0  0  0  0  0  0  0  0  0  0  0
   11.6035   -6.2982   -7.7337 C   0  0  2  0  0  0  0  0  0  0  0  0
   12.2793   -5.1320   -7.2192 O   0  0  0  0  0  0  0  0  0  0  0  0
   12.5394   -7.0920   -8.6613 C   0  0  2  0  0  0  0  0  0  0  0  0
   13.2161   -6.2061   -9.5906 N   0  3  0  0  0  0  0  0  0  0  0  0
   11.8220   -8.2167   -9.4172 C   0  0  1  0  0  0  0  0  0  0  0  0
   11.6209   -9.3170   -8.5443 O   0  0  0  0  0  0  0  0  0  0  0  0
   10.4804   -7.7656   -9.9882 C   0  0  2  0  0  0  0  0  0  0  0  0
   10.6912   -6.8894  -11.0892 O   0  0  0  0  0  0  0  0  0  0  0  0
    8.3036   -6.6450   -9.4310 C   0  0  0  0  0  0  0  0  0  0  0  0
    7.5564   -5.9464   -8.4021 N   0  3  0  0  0  0  0  0  0  0  0  0
    6.9302   -6.2617   -2.8642 C   0  0  1  0  0  0  0  0  0  0  0  0
    8.2735   -5.9082   -3.2550 O   0  0  0  0  0  0  0  0  0  0  0  0
    8.6221   -4.5415   -2.9356 C   0  0  2  0  0  0  0  0  0  0  0  0
    8.6633   -4.3112   -1.5056 O   0  0  0  0  0  0  0  0  0  0  0  0
    7.6631   -3.5638   -3.6257 C   0  0  2  0  0  0  0  0  0  0  0  0
    7.8891   -2.2176   -3.1334 N   0  3  0  0  0  0  0  0  0  0  0  0
    6.2049   -3.9439   -3.3936 C   0  0  1  0  0  0  0  0  0  0  0  0
    5.3681   -3.1641   -4.2337 O   0  0  0  0  0  0  0  0  0  0  0  0
    5.9242   -5.4197   -3.6318 C   0  0  2  0  0  0  0  0  0  0  0  0
    4.6043   -5.7437   -3.2201 O   0  0  0  0  0  0  0  0  0  0  0  0
    6.6578   -7.7260   -3.1964 C   0  0  0  0  0  0  0  0  0  0  0  0
    5.2619   -8.0533   -2.9704 N   0  3  0  0  0  0  0  0  0  0  0  0
   12.2300   -4.6022    0.7951 C   0  0  2  0  0  0  0  0  0  0  0  0
   10.9629   -5.2069    1.3667 C   0  0  0  0  0  0  0  0  0  0  0  0
    9.7436   -4.6738    0.6373 C   0  0  1  0  0  0  0  0  0  0  0  0
    9.7511   -5.0171   -0.8530 C   0  0  2  0  0  0  0  0  0  0  0  0
   11.0982   -4.6269   -1.5040 C   0  0  1  0  0  0  0  0  0  0  0  0
   12.3616   -4.9271   -0.6867 C   0  0  1  0  0  0  0  0  0  0  0  0
   13.3784   -5.1228    1.5122 N   0  3  0  0  0  0  0  0  0  0  0  0
    8.5490   -5.1934    1.2740 N   0  3  0  0  0  0  0  0  0  0  0  0
   11.2256   -5.1826   -2.8359 O   0  0  0  0  0  0  0  0  0  0  0  0
   13.4699   -4.2223   -1.2362 O   0  0  0  0  0  0  0  0  0  0  0  0
  1  2  1  0  0  0  0
  3  2  1  1  0  0  0
  3  4  1  0  0  0  0
  3  5  1  0  0  0  0
  4  8  1  0  0  0  0
  5  6  1  0  0  0  0
  5 12  1  6  0  0  0
  6  7  1  6  0  0  0
  6  8  1  0  0  0  0
  8 41  1  6  0  0  0
  9 10  1  0  0  0  0
  9 17  1  0  0  0  0
  9 19  1  6  0  0  0
 10 11  1  0  0  0  0
 11 12  1  6  0  0  0
 11 13  1  0  0  0  0
 13 14  1  6  0  0  0
 13 15  1  0  0  0  0
 15 16  1  1  0  0  0
 15 17  1  0  0  0  0
 17 18  1  6  0  0  0
 19 20  1  0  0  0  0
 21 22  1  0  0  0  0
 21 29  1  0  0  0  0
 21 31  1  6  0  0  0
 22 23  1  0  0  0  0
 23 24  1  1  0  0  0
 23 25  1  0  0  0  0
 25 26  1  1  0  0  0
 25 27  1  0  0  0  0
 27 28  1  6  0  0  0
 27 29  1  0  0  0  0
 29 30  1  1  0  0  0
 31 32  1  0  0  0  0
 33 34  1  0  0  0  0
 33 38  1  0  0  0  0
 33 39  1  1  0  0  0
 34 35  1  0  0  0  0
 35 36  1  0  0  0  0
 35 40  1  1  0  0  0
 36 24  1  6  0  0  0
 36 37  1  0  0  0  0
 37 38  1  0  0  0  0
 37 41  1  6  0  0  0
 38 42  1  6  0  0  0
M  CHG  6  14   1  20   1  26   1  32   1  39   1  40   1
M  END
>  <CHROM.1>
67.50095419,60.47805893,-167.41248151,56.93622252,-73.86699335,-56.79552132
91.07458075,69.64665964,-57.16694773,-175.22952901,51.10254245,-172.65173774
67.63902113,177.97156136,36.33934447,-174.94331769,72.99758029,-49.66512183
-62.02836161,179.96471903,176.10751186,-61.49331357,10.07979157,-5.30198457
-4.47465380,-1.38943165,0.12090989,1.32078892

>  <Name>


>  <RI>
0

>  <Rbt.Current_Directory>
/home/itssahil/PROJECTS/Mol_Feturizer/New_Systems/rnas/1qd3

>  <Rbt.Executable>
rbdock ($Id: //depot/dev/client3/rdock/2013.1/src/exe/rbdock.cxx#4 $)

>  <Rbt.Library>
libRbt.so (2013.1, Build901 2013/11/27)

>  <Rbt.Parameter_File>
/export/apps/rDock/src/rDock_2013.1_src/data/scripts/dock_solv.prm

>  <Rbt.Receptor>
prm/pocket_docking_5.prm

>  <SCORE>
-51.179

>  <SCORE.INTER>
-28.0129

>  <SCORE.INTER.CONST>
1

>  <SCORE.INTER.POLAR>
-6.53414

>  <SCORE.INTER.ROT>
9

>  <SCORE.INTER.SOLV>
24.3541

>  <SCORE.INTER.VDW>
-14.6128

>  <SCORE.INTER.norm>
-0.666973

>  <SCORE.INTRA>
-23.1661

>  <SCORE.INTRA.DIHEDRAL>
-29.2593

>  <SCORE.INTRA.DIHEDRAL.0>
40.6252

>  <SCORE.INTRA.POLAR>
0.717881

>  <SCORE.INTRA.POLAR.0>
-1.20161

>  <SCORE.INTRA.REPUL>
-0.115675

>  <SCORE.INTRA.REPUL.0>
0.115675

>  <SCORE.INTRA.SOLV>
-12.7866

>  <SCORE.INTRA.SOLV.lig_0>
-154.895

>  <SCORE.INTRA.VDW>
-4.00559

>  <SCORE.INTRA.VDW.0>
2.2925

>  <SCORE.INTRA.norm>
-0.551574

>  <SCORE.RESTR>
0

>  <SCORE.RESTR.CAVITY>
0

>  <SCORE.RESTR.norm>
0

>  <SCORE.SYSTEM>
0

>  <SCORE.SYSTEM.CONST>
0

>  <SCORE.SYSTEM.DIHEDRAL>
0

>  <SCORE.SYSTEM.SOLV>
0

>  <SCORE.SYSTEM.norm>
0

>  <SCORE.heavy>
42

>  <SCORE.norm>
-1.21855

>  <RMSD>
7.641

$$$$

 OpenBabel11021811413D
libRbt.so/2013.1/901 2013/11/27
 42 45  0  0  0  0  0  0  0  0999 V2000
    4.4932   -6.0628   -6.2413 O   0  0  0  0  0  0  0  0  0  0  0  0
    5.2348   -5.6618   -7.3845 C   0  0  0  0  0  0  0  0  0  0  0  0
    6.7170   -5.5474   -7.0260 C   0  0  1  0  0  0  0  0  0  0  0  0
    6.9150   -4.6957   -5.8767 O   0  0  0  0  0  0  0  0  0  0  0  0
    7.3558   -6.8791   -6.6683 C   0  0  2  0  0  0  0  0  0  0  0  0
    8.5829   -6.4028   -5.9093 C   0  0  1  0  0  0  0  0  0  0  0  0
    9.5689   -5.9448   -6.8280 O   0  0  0  0  0  0  0  0  0  0  0  0
    8.0262   -5.2127   -5.1016 C   0  0  2  0  0  0  0  0  0  0  0  0
    7.4317  -11.0344   -6.5295 C   0  0  2  0  0  0  0  0  0  0  0  0
    7.0359   -9.7064   -6.9052 O   0  0  0  0  0  0  0  0  0  0  0  0
    8.1092   -8.9834   -7.5347 C   0  0  2  0  0  0  0  0  0  0  0  0
    7.6968   -7.6364   -7.8462 O   0  0  0  0  0  0  0  0  0  0  0  0
    8.5770   -9.7070   -8.8091 C   0  0  2  0  0  0  0  0  0  0  0  0
    7.6390   -9.4938   -9.8959 N   0  3  0  0  0  0  0  0  0  0  0  0
    8.8179  -11.2057   -8.5936 C   0  0  1  0  0  0  0  0  0  0  0  0
   10.0598  -11.3930   -7.9337 O   0  0  0  0  0  0  0  0  0  0  0  0
    7.7037  -11.8596   -7.7808 C   0  0  2  0  0  0  0  0  0  0  0  0
    6.5227  -11.9593   -8.5681 O   0  0  0  0  0  0  0  0  0  0  0  0
    6.3576  -11.6922   -5.6678 C   0  0  0  0  0  0  0  0  0  0  0  0
    6.9052  -12.8340   -4.9598 N   0  3  0  0  0  0  0  0  0  0  0  0
    6.7336   -7.6342   -1.4781 C   0  0  1  0  0  0  0  0  0  0  0  0
    6.7388   -6.3305   -0.8598 O   0  0  0  0  0  0  0  0  0  0  0  0
    7.9919   -6.0079   -0.2138 C   0  0  2  0  0  0  0  0  0  0  0  0
    9.0778   -5.8847   -1.1653 O   0  0  0  0  0  0  0  0  0  0  0  0
    8.3220   -7.0400    0.8713 C   0  0  2  0  0  0  0  0  0  0  0  0
    9.6708   -6.8282    1.3627 N   0  3  0  0  0  0  0  0  0  0  0  0
    8.1969   -8.4674    0.3502 C   0  0  1  0  0  0  0  0  0  0  0  0
    8.2772   -9.3805    1.4337 O   0  0  0  0  0  0  0  0  0  0  0  0
    6.9103   -8.7136   -0.4227 C   0  0  2  0  0  0  0  0  0  0  0  0
    6.9407   -9.9937   -1.0367 O   0  0  0  0  0  0  0  0  0  0  0  0
    5.3960   -7.8783   -2.1708 C   0  0  0  0  0  0  0  0  0  0  0  0
    4.9080   -6.6599   -2.7905 N   0  3  0  0  0  0  0  0  0  0  0  0
    7.3986   -2.1561   -2.3388 C   0  0  2  0  0  0  0  0  0  0  0  0
    8.8199   -2.1624   -1.8117 C   0  0  0  0  0  0  0  0  0  0  0  0
    9.1095   -3.4594   -1.0791 C   0  0  1  0  0  0  0  0  0  0  0  0
    8.9786   -4.6878   -1.9807 C   0  0  2  0  0  0  0  0  0  0  0  0
    7.6309   -4.6768   -2.7387 C   0  0  1  0  0  0  0  0  0  0  0  0
    7.1723   -3.3214   -3.2926 C   0  0  1  0  0  0  0  0  0  0  0  0
    7.1460   -0.9054   -3.0286 N   0  3  0  0  0  0  0  0  0  0  0  0
   10.4384   -3.3890   -0.5034 N   0  3  0  0  0  0  0  0  0  0  0  0
    7.6027   -5.6761   -3.7873 O   0  0  0  0  0  0  0  0  0  0  0  0
    5.7961   -3.3880   -3.6512 O   0  0  0  0  0  0  0  0  0  0  0  0
  1  2  1  0  0  0  0
  3  2  1  1  0  0  0
  3  4  1  0  0  0  0
  3  5  1  0  0  0  0
  4  8  1  0  0  0  0
  5  6  1  0  0  0  0
  5 12  1  6  0  0  0
  6  7  1  6  0  0  0
  6  8  1  0  0  0  0
  8 41  1  1  0  0  0
  9 10  1  0  0  0  0
  9 17  1  0  0  0  0
  9 19  1  6  0  0  0
 10 11  1  0  0  0  0
 11 12  1  6  0  0  0
 11 13  1  0  0  0  0
 13 14  1  6  0  0  0
 13 15  1  0  0  0  0
 15 16  1  1  0  0  0
 15 17  1  0  0  0  0
 17 18  1  6  0  0  0
 19 20  1  0  0  0  0
 21 22  1  0  0  0  0
 21 29  1  0  0  0  0
 21 31  1  1  0  0  0
 22 23  1  0  0  0  0
 23 24  1  6  0  0  0
 23 25  1  0  0  0  0
 25 26  1  6  0  0  0
 25 27  1  0  0  0  0
 27 28  1  1  0  0  0
 27 29  1  0  0  0  0
 29 30  1  6  0  0  0
 31 32  1  0  0  0  0
 33 34  1  0  0  0  0
 33 38  1  0  0  0  0
 33 39  1  6  0  0  0
 34 35  1  0  0  0  0
 35 36  1  0  0  0  0
 35 40  1  6  0  0  0
 36 24  1  1  0  0  0
 36 37  1  0  0  0  0
 37 38  1  0  0  0  0
 37 41  1  6  0  0  0
 38 42  1  1  0  0  0
M  CHG  6  14   1  20   1  26   1  32   1  39   1  40   1
M  END
>  <CHROM.1>
-64.41359074,-53.16360237,-170.92321602,64.62859658,-89.74649019,-162.56109948
62.19981732,73.92911898,-58.21578064,-177.00314903,-52.08783646,37.67126181
71.46687007,64.09882077,69.37292904,-175.87754168,-62.43573229,55.60078506
164.61872219,52.92506547,-92.32525961,174.91997596,7.58527313,-7.13106492
-4.11603917,2.22983374,1.47600345,-2.92435891

>  <Name>


>  <RI>
0

>  <Rbt.Current_Directory>
/home/itssahil/PROJECTS/Mol_Feturizer/New_Systems/rnas/1qd3

>  <Rbt.Executable>
rbdock ($Id: //depot/dev/client3/rdock/2013.1/src/exe/rbdock.cxx#4 $)

>  <Rbt.Library>
libRbt.so (2013.1, Build901 2013/11/27)

>  <Rbt.Parameter_File>
/export/apps/rDock/src/rDock_2013.1_src/data/scripts/dock_solv.prm

>  <Rbt.Receptor>
prm/pocket_docking_7.prm

>  <SCORE>
-56.0745

>  <SCORE.INTER>
-30.713

>  <SCORE.INTER.CONST>
1

>  <SCORE.INTER.POLAR>
-6.35248

>  <SCORE.INTER.ROT>
9

>  <SCORE.INTER.SOLV>
26.5519

>  <SCORE.INTER.VDW>
-17.751

>  <SCORE.INTER.norm>
-0.731261

>  <SCORE.INTRA>
-25.3615

>  <SCORE.INTRA.DIHEDRAL>
-25.4255

>  <SCORE.INTRA.DIHEDRAL.0>
40.6252

>  <SCORE.INTRA.POLAR>
-0.522084

>  <SCORE.INTRA.POLAR.0>
-1.20161

>  <SCORE.INTRA.REPUL>
-0.115675

>  <SCORE.INTRA.REPUL.0>
0.115675

>  <SCORE.INTRA.SOLV>
-6.74506

>  <SCORE.INTRA.SOLV.lig_0>
-154.895

>  <SCORE.INTRA.VDW>
-6.92276

>  <SCORE.INTRA.VDW.0>
2.2925

>  <SCORE.INTRA.norm>
-0.603845

>  <SCORE.RESTR>
0

>  <SCORE.RESTR.CAVITY>
0

>  <SCORE.RESTR.norm>
0

>  <SCORE.SYSTEM>
0

>  <SCORE.SYSTEM.CONST>
0

>  <SCORE.SYSTEM.DIHEDRAL>
0

>  <SCORE.SYSTEM.SOLV>
0

>  <SCORE.SYSTEM.norm>
0

>  <SCORE.heavy>
42

>  <SCORE.norm>
-1.33511

>  <RMSD>
7.648

$$$$

 OpenBabel11021811413D
libRbt.so/2013.1/901 2013/11/27
 42 45  0  0  0  0  0  0  0  0999 V2000
    4.6272  -10.9499   -5.4089 O   0  0  0  0  0  0  0  0  0  0  0  0
    4.5995  -10.4113   -4.0948 C   0  0  0  0  0  0  0  0  0  0  0  0
    4.6002   -8.8835   -4.1614 C   0  0  1  0  0  0  0  0  0  0  0  0
    4.4588   -8.3006   -2.8477 O   0  0  0  0  0  0  0  0  0  0  0  0
    5.8835   -8.3052   -4.7341 C   0  0  2  0  0  0  0  0  0  0  0  0
    5.7987   -6.8783   -4.2185 C   0  0  1  0  0  0  0  0  0  0  0  0
    4.8728   -6.1370   -5.0053 O   0  0  0  0  0  0  0  0  0  0  0  0
    5.2361   -7.0775   -2.7963 C   0  0  2  0  0  0  0  0  0  0  0  0
    9.0714   -9.0488   -7.8522 C   0  0  2  0  0  0  0  0  0  0  0  0
    7.7478   -9.2735   -7.3434 O   0  0  0  0  0  0  0  0  0  0  0  0
    7.2023   -8.0944   -6.7247 C   0  0  2  0  0  0  0  0  0  0  0  0
    5.8977   -8.3702   -6.1737 O   0  0  0  0  0  0  0  0  0  0  0  0
    7.1213   -6.9384   -7.7365 C   0  0  2  0  0  0  0  0  0  0  0  0
    6.0021   -7.1240   -8.6417 N   0  3  0  0  0  0  0  0  0  0  0  0
    8.4216   -6.7384   -8.5239 C   0  0  1  0  0  0  0  0  0  0  0  0
    9.3674   -6.0656   -7.7080 O   0  0  0  0  0  0  0  0  0  0  0  0
    9.0130   -8.0592   -9.0089 C   0  0  2  0  0  0  0  0  0  0  0  0
    8.2200   -8.5873  -10.0657 O   0  0  0  0  0  0  0  0  0  0  0  0
    9.7084  -10.3634   -8.2936 C   0  0  0  0  0  0  0  0  0  0  0  0
    9.8826  -11.2486   -7.1573 N   0  3  0  0  0  0  0  0  0  0  0  0
    9.0559   -8.5096    2.8318 C   0  0  1  0  0  0  0  0  0  0  0  0
    9.1166   -8.6633    1.3983 O   0  0  0  0  0  0  0  0  0  0  0  0
    7.8940   -8.2783    0.7287 C   0  0  2  0  0  0  0  0  0  0  0  0
    7.6258   -6.8604    0.8598 O   0  0  0  0  0  0  0  0  0  0  0  0
    6.7130   -9.1138    1.2377 C   0  0  2  0  0  0  0  0  0  0  0  0
    5.4679   -8.5795    0.7181 N   0  3  0  0  0  0  0  0  0  0  0  0
    6.6516   -9.1363    2.7609 C   0  0  1  0  0  0  0  0  0  0  0  0
    5.7011  -10.1003    3.1868 O   0  0  0  0  0  0  0  0  0  0  0  0
    7.9946   -9.4305    3.4113 C   0  0  2  0  0  0  0  0  0  0  0  0
    7.9115   -9.2522    4.8177 O   0  0  0  0  0  0  0  0  0  0  0  0
   10.3942   -8.8950    3.4556 C   0  0  0  0  0  0  0  0  0  0  0  0
   11.4780   -8.1394    2.8547 N   0  3  0  0  0  0  0  0  0  0  0  0
    7.4514   -3.5289   -1.7803 C   0  0  2  0  0  0  0  0  0  0  0  0
    8.7680   -3.8201   -1.0876 C   0  0  0  0  0  0  0  0  0  0  0  0
    8.5544   -4.7548    0.0887 C   0  0  1  0  0  0  0  0  0  0  0  0
    7.9792   -6.1084   -0.3306 C   0  0  2  0  0  0  0  0  0  0  0  0
    6.7332   -5.9261   -1.2279 C   0  0  1  0  0  0  0  0  0  0  0  0
    6.8111   -4.8155   -2.2837 C   0  0  1  0  0  0  0  0  0  0  0  0
    7.6821   -2.6304   -2.8954 N   0  3  0  0  0  0  0  0  0  0  0  0
    9.8135   -4.9301    0.7860 N   0  3  0  0  0  0  0  0  0  0  0  0
    6.3385   -7.1740   -1.8493 O   0  0  0  0  0  0  0  0  0  0  0  0
    5.5090   -4.5381   -2.7884 O   0  0  0  0  0  0  0  0  0  0  0  0
  1  2  1  0  0  0  0
  3  2  1  1  0  0  0
  3  4  1  0  0  0  0
  3  5  1  0  0  0  0
  4  8  1  0  0  0  0
  5  6  1  0  0  0  0
  5 12  1  6  0  0  0
  6  7  1  6  0  0  0
  6  8  1  0  0  0  0
  8 41  1  1  0  0  0
  9 10  1  0  0  0  0
  9 17  1  0  0  0  0
  9 19  1  6  0  0  0
 10 11  1  0  0  0  0
 11 12  1  6  0  0  0
 11 13  1  0  0  0  0
 13 14  1  6  0  0  0
 13 15  1  0  0  0  0
 15 16  1  1  0  0  0
 15 17  1  0  0  0  0
 17 18  1  6  0  0  0
 19 20  1  0  0  0  0
 21 22  1  0  0  0  0
 21 29  1  0  0  0  0
 21 31  1  1  0  0  0
 22 23  1  0  0  0  0
 23 24  1  1  0  0  0
 23 25  1  0  0  0  0
 25 26  1  6  0  0  0
 25 27  1  0  0  0  0
 27 28  1  6  0  0  0
 27 29  1  0  0  0  0
 29 30  1  1  0  0  0
 31 32  1  0  0  0  0
 33 34  1  0  0  0  0
 33 38  1  0  0  0  0
 33 39  1  6  0  0  0
 34 35  1  0  0  0  0
 35 36  1  0  0  0  0
 35 40  1  6  0  0  0
 36 24  1  1  0  0  0
 36 37  1  0  0  0  0
 37 38  1  0  0  0  0
 37 41  1  6  0  0  0
 38 42  1  1  0  0  0
M  CHG  6  14   1  20   1  26   1  32   1  39   1  40   1
M  END
>  <CHROM.1>
-60.41799017,175.15404758,-167.73497096,-54.34759602,-150.25641228,-63.93224040
112.87067423,161.35747931,57.31582504,48.82959815,175.37414365,54.64140389
101.22810096,-142.89340429,-65.32074990,-53.95060692,60.33660112,84.90327419
-69.04558432,174.50174457,-175.36149016,59.82940035,7.36024204,-7.62969735
-2.71931504,1.95792479,-1.40102079,-1.21290238

>  <Name>


>  <RI>
0

>  <Rbt.Current_Directory>
/home/itssahil/PROJECTS/Mol_Feturizer/New_Systems/rnas/1qd3

>  <Rbt.Executable>
rbdock ($Id: //depot/dev/client3/rdock/2013.1/src/exe/rbdock.cxx#4 $)

>  <Rbt.Library>
libRbt.so (2013.1, Build901 2013/11/27)

>  <Rbt.Parameter_File>
/export/apps/rDock/src/rDock_2013.1_src/data/scripts/dock_solv.prm

>  <Rbt.Receptor>
prm/pocket_docking_7.prm

>  <SCORE>
-41.8218

>  <SCORE.INTER>
-24.7627

>  <SCORE.INTER.CONST>
1

>  <SCORE.INTER.POLAR>
-4.37458

>  <SCORE.INTER.ROT>
9

>  <SCORE.INTER.SOLV>
23.7135

>  <SCORE.INTER.VDW>
-19.431

>  <SCORE.INTER.norm>
-0.589587

>  <SCORE.INTRA>
-17.0591

>  <SCORE.INTRA.DIHEDRAL>
-13.1251

>  <SCORE.INTRA.DIHEDRAL.0>
40.6252

>  <SCORE.INTRA.POLAR>
0.213956

>  <SCORE.INTRA.POLAR.0>
-1.20161

>  <SCORE.INTRA.REPUL>
-0.115675

>  <SCORE.INTRA.REPUL.0>
0.115675

>  <SCORE.INTRA.SOLV>
-8.62039

>  <SCORE.INTRA.SOLV.lig_0>
-154.895

>  <SCORE.INTRA.VDW>
-6.33547

>  <SCORE.INTRA.VDW.0>
2.2925

>  <SCORE.INTRA.norm>
-0.40617

>  <SCORE.RESTR>
0

>  <SCORE.RESTR.CAVITY>
0

>  <SCORE.RESTR.norm>
0

>  <SCORE.SYSTEM>
0

>  <SCORE.SYSTEM.CONST>
0

>  <SCORE.SYSTEM.DIHEDRAL>
0

>  <SCORE.SYSTEM.SOLV>
0

>  <SCORE.SYSTEM.norm>
0

>  <SCORE.heavy>
42

>  <SCORE.norm>
-0.995757

>  <RMSD>
7.650

$$$$

 OpenBabel11021811413D
libRbt.so/2013.1/901 2013/11/27
 42 45  0  0  0  0  0  0  0  0999 V2000
    6.5509   -7.6217    0.2971 O   0  0  0  0  0  0  0  0  0  0  0  0
    5.9109   -7.8665   -0.9471 C   0  0  0  0  0  0  0  0  0  0  0  0
    6.2945   -6.7775   -1.9497 C   0  0  1  0  0  0  0  0  0  0  0  0
    6.2934   -5.4718   -1.3327 O   0  0  0  0  0  0  0  0  0  0  0  0
    7.6862   -6.9576   -2.5330 C   0  0  2  0  0  0  0  0  0  0  0  0
    7.9573   -5.5518   -3.0422 C   0  0  1  0  0  0  0  0  0  0  0  0
    7.2526   -5.3373   -4.2602 O   0  0  0  0  0  0  0  0  0  0  0  0
    7.3518   -4.6772   -1.9255 C   0  0  2  0  0  0  0  0  0  0  0  0
    6.3465  -11.1625   -2.5278 C   0  0  2  0  0  0  0  0  0  0  0  0
    6.3769   -9.8361   -3.0766 O   0  0  0  0  0  0  0  0  0  0  0  0
    7.7081   -9.2895   -3.0879 C   0  0  2  0  0  0  0  0  0  0  0  0
    7.6948   -7.9370   -3.5902 O   0  0  0  0  0  0  0  0  0  0  0  0
    8.6472  -10.1648   -3.9354 C   0  0  2  0  0  0  0  0  0  0  0  0
    8.4180   -9.9444   -5.3515 N   0  3  0  0  0  0  0  0  0  0  0  0
    8.5412  -11.6572   -3.6001 C   0  0  1  0  0  0  0  0  0  0  0  0
    9.2474  -11.9211   -2.3982 O   0  0  0  0  0  0  0  0  0  0  0  0
    7.0928  -12.1154   -3.4528 C   0  0  2  0  0  0  0  0  0  0  0  0
    6.4633  -12.1532   -4.7283 O   0  0  0  0  0  0  0  0  0  0  0  0
    4.9073  -11.6248   -2.3179 C   0  0  0  0  0  0  0  0  0  0  0  0
    4.2726  -10.8461   -1.2712 N   0  3  0  0  0  0  0  0  0  0  0  0
   11.9461   -6.8023   -2.9726 C   0  0  1  0  0  0  0  0  0  0  0  0
   10.7184   -6.5278   -2.2657 O   0  0  0  0  0  0  0  0  0  0  0  0
   10.9090   -5.7281   -1.0760 C   0  0  2  0  0  0  0  0  0  0  0  0
   11.3719   -4.3910   -1.3884 O   0  0  0  0  0  0  0  0  0  0  0  0
   11.8621   -6.4293   -0.1004 C   0  0  2  0  0  0  0  0  0  0  0  0
   12.2096   -5.5307    0.9847 N   0  3  0  0  0  0  0  0  0  0  0  0
   13.1379   -6.8950   -0.7933 C   0  0  1  0  0  0  0  0  0  0  0  0
   13.8758   -7.7366    0.0793 O   0  0  0  0  0  0  0  0  0  0  0  0
   12.8776   -7.6280   -2.1004 C   0  0  2  0  0  0  0  0  0  0  0  0
   14.0992   -7.8669   -2.7839 O   0  0  0  0  0  0  0  0  0  0  0  0
   11.6534   -7.6114   -4.2329 C   0  0  0  0  0  0  0  0  0  0  0  0
   11.1088   -6.7606   -5.2751 N   0  3  0  0  0  0  0  0  0  0  0  0
    9.1492   -0.9287   -2.4708 C   0  0  2  0  0  0  0  0  0  0  0  0
   10.1635   -1.4625   -3.4629 C   0  0  0  0  0  0  0  0  0  0  0  0
   11.1244   -2.4173   -2.7790 C   0  0  1  0  0  0  0  0  0  0  0  0
   10.4199   -3.6374   -2.1841 C   0  0  2  0  0  0  0  0  0  0  0  0
    9.2206   -3.2106   -1.3064 C   0  0  1  0  0  0  0  0  0  0  0  0
    8.3524   -2.0677   -1.8490 C   0  0  1  0  0  0  0  0  0  0  0  0
    8.2477   -0.0157   -3.1473 N   0  3  0  0  0  0  0  0  0  0  0  0
   12.1381   -2.8280   -3.7310 N   0  3  0  0  0  0  0  0  0  0  0  0
    8.3876   -4.3434   -0.9574 O   0  0  0  0  0  0  0  0  0  0  0  0
    7.5197   -1.5607   -0.8114 O   0  0  0  0  0  0  0  0  0  0  0  0
  1  2  1  0  0  0  0
  3  2  1  1  0  0  0
  3  4  1  0  0  0  0
  3  5  1  0  0  0  0
  4  8  1  0  0  0  0
  5  6  1  0  0  0  0
  5 12  1  6  0  0  0
  6  7  1  6  0  0  0
  6  8  1  0  0  0  0
  8 41  1  1  0  0  0
  9 10  1  0  0  0  0
  9 17  1  0  0  0  0
  9 19  1  6  0  0  0
 10 11  1  0  0  0  0
 11 12  1  6  0  0  0
 11 13  1  0  0  0  0
 13 14  1  6  0  0  0
 13 15  1  0  0  0  0
 15 16  1  1  0  0  0
 15 17  1  0  0  0  0
 17 18  1  6  0  0  0
 19 20  1  0  0  0  0
 21 22  1  0  0  0  0
 21 29  1  0  0  0  0
 21 31  1  6  0  0  0
 22 23  1  0  0  0  0
 23 24  1  6  0  0  0
 23 25  1  0  0  0  0
 25 26  1  1  0  0  0
 25 27  1  0  0  0  0
 27 28  1  1  0  0  0
 27 29  1  0  0  0  0
 29 30  1  6  0  0  0
 31 32  1  0  0  0  0
 33 34  1  0  0  0  0
 33 38  1  0  0  0  0
 33 39  1  6  0  0  0
 34 35  1  0  0  0  0
 35 36  1  0  0  0  0
 35 40  1  6  0  0  0
 36 24  1  1  0  0  0
 36 37  1  0  0  0  0
 37 38  1  0  0  0  0
 37 41  1  6  0  0  0
 38 42  1  1  0  0  0
M  CHG  6  14   1  20   1  26   1  32   1  39   1  40   1
M  END
>  <CHROM.1>
47.27255985,-41.86349740,-79.64958209,-62.96792082,-159.78931296,-67.61827944
97.50772935,163.18803427,-179.31456681,46.88673690,53.30578382,76.83190701
62.41503754,-164.77807884,-38.35432460,61.27461515,65.39654742,-174.67728828
46.93327844,75.09984366,-86.86121042,-60.37168354,9.08138400,-6.70559173
-2.38114949,1.97658996,0.03077108,-3.03117763

>  <Name>


>  <RI>
0

>  <Rbt.Current_Directory>
/home/itssahil/PROJECTS/Mol_Feturizer/New_Systems/rnas/1qd3

>  <Rbt.Executable>
rbdock ($Id: //depot/dev/client3/rdock/2013.1/src/exe/rbdock.cxx#4 $)

>  <Rbt.Library>
libRbt.so (2013.1, Build901 2013/11/27)

>  <Rbt.Parameter_File>
/export/apps/rDock/src/rDock_2013.1_src/data/scripts/dock_solv.prm

>  <Rbt.Receptor>
prm/pocket_docking_6.prm

>  <SCORE>
-38.0731

>  <SCORE.INTER>
-16.4512

>  <SCORE.INTER.CONST>
1

>  <SCORE.INTER.POLAR>
-4.73224

>  <SCORE.INTER.ROT>
9

>  <SCORE.INTER.SOLV>
21.4539

>  <SCORE.INTER.VDW>
-11.9447

>  <SCORE.INTER.norm>
-0.391696

>  <SCORE.INTRA>
-21.6236

>  <SCORE.INTRA.DIHEDRAL>
-20.049

>  <SCORE.INTRA.DIHEDRAL.0>
40.6252

>  <SCORE.INTRA.POLAR>
0.873222

>  <SCORE.INTRA.POLAR.0>
-1.20161

>  <SCORE.INTRA.REPUL>
-0.115675

>  <SCORE.INTRA.REPUL.0>
0.115675

>  <SCORE.INTRA.SOLV>
-10.5929

>  <SCORE.INTRA.SOLV.lig_0>
-154.895

>  <SCORE.INTRA.VDW>
-8.69325

>  <SCORE.INTRA.VDW.0>
2.2925

>  <SCORE.INTRA.norm>
-0.514848

>  <SCORE.RESTR>
0.00176816

>  <SCORE.RESTR.CAVITY>
0.00176816

>  <SCORE.RESTR.norm>
4.2099e-05

>  <SCORE.SYSTEM>
0

>  <SCORE.SYSTEM.CONST>
0

>  <SCORE.SYSTEM.DIHEDRAL>
0

>  <SCORE.SYSTEM.SOLV>
0

>  <SCORE.SYSTEM.norm>
0

>  <SCORE.heavy>
42

>  <SCORE.norm>
-0.906502

>  <RMSD>
7.665

$$$$

 OpenBabel11021811413D
libRbt.so/2013.1/901 2013/11/27
 42 45  0  0  0  0  0  0  0  0999 V2000
    6.1012   -9.8602   -4.4199 O   0  0  0  0  0  0  0  0  0  0  0  0
    5.0387   -9.3155   -5.1894 C   0  0  0  0  0  0  0  0  0  0  0  0
    4.8334   -7.8456   -4.8208 C   0  0  1  0  0  0  0  0  0  0  0  0
    5.0340   -7.6257   -3.4077 O   0  0  0  0  0  0  0  0  0  0  0  0
    5.7977   -6.9064   -5.5260 C   0  0  2  0  0  0  0  0  0  0  0  0
    5.7033   -5.6855   -4.6262 C   0  0  1  0  0  0  0  0  0  0  0  0
    4.4973   -4.9801   -4.8979 O   0  0  0  0  0  0  0  0  0  0  0  0
    5.6348   -6.3191   -3.2217 C   0  0  2  0  0  0  0  0  0  0  0  0
    4.4336   -8.9204   -9.5617 C   0  0  2  0  0  0  0  0  0  0  0  0
    4.4232   -7.7481   -8.7327 O   0  0  0  0  0  0  0  0  0  0  0  0
    5.4507   -7.7922   -7.7263 C   0  0  2  0  0  0  0  0  0  0  0  0
    5.3755   -6.6292   -6.8758 O   0  0  0  0  0  0  0  0  0  0  0  0
    6.8421   -7.8905   -8.3749 C   0  0  2  0  0  0  0  0  0  0  0  0
    7.2543   -6.6045   -8.9066 N   0  3  0  0  0  0  0  0  0  0  0  0
    6.9232   -8.9712   -9.4595 C   0  0  1  0  0  0  0  0  0  0  0  0
    7.0294  -10.2463   -8.8467 O   0  0  0  0  0  0  0  0  0  0  0  0
    5.7126   -8.9500  -10.3887 C   0  0  2  0  0  0  0  0  0  0  0  0
    5.7727   -7.8105  -11.2386 O   0  0  0  0  0  0  0  0  0  0  0  0
    3.2028   -8.9526  -10.4632 C   0  0  0  0  0  0  0  0  0  0  0  0
    3.0216   -7.6712  -11.1192 N   0  3  0  0  0  0  0  0  0  0  0  0
    9.7122   -7.7446    2.0191 C   0  0  1  0  0  0  0  0  0  0  0  0
    9.4770   -8.0695    0.6330 O   0  0  0  0  0  0  0  0  0  0  0  0
    8.1194   -7.8118    0.2066 C   0  0  2  0  0  0  0  0  0  0  0  0
    7.8001   -6.3986    0.2341 O   0  0  0  0  0  0  0  0  0  0  0  0
    7.1255   -8.6196    1.0500 C   0  0  2  0  0  0  0  0  0  0  0  0
    5.7687   -8.1963    0.7574 N   0  3  0  0  0  0  0  0  0  0  0  0
    7.3896   -8.4586    2.5430 C   0  0  1  0  0  0  0  0  0  0  0  0
    6.6107   -9.3961    3.2700 O   0  0  0  0  0  0  0  0  0  0  0  0
    8.8552   -8.6245    2.9144 C   0  0  2  0  0  0  0  0  0  0  0  0
    9.0612   -8.2792    4.2764 O   0  0  0  0  0  0  0  0  0  0  0  0
   11.1729   -8.0044    2.3759 C   0  0  0  0  0  0  0  0  0  0  0  0
   11.6060   -9.2919    1.8645 N   0  3  0  0  0  0  0  0  0  0  0  0
    8.5291   -2.9663   -2.1716 C   0  0  2  0  0  0  0  0  0  0  0  0
    9.6541   -3.4685   -1.2882 C   0  0  0  0  0  0  0  0  0  0  0  0
    9.1170   -4.4132   -0.2291 C   0  0  1  0  0  0  0  0  0  0  0  0
    8.4522   -5.6536   -0.8277 C   0  0  2  0  0  0  0  0  0  0  0  0
    7.4178   -5.2604   -1.9076 C   0  0  1  0  0  0  0  0  0  0  0  0
    7.8244   -4.1277   -2.8594 C   0  0  1  0  0  0  0  0  0  0  0  0
    9.0674   -2.0624   -3.1702 N   0  3  0  0  0  0  0  0  0  0  0  0
   10.2002   -4.7929    0.6568 N   0  3  0  0  0  0  0  0  0  0  0  0
    6.9785   -6.4130   -2.6675 O   0  0  0  0  0  0  0  0  0  0  0  0
    6.6787   -3.6493   -3.5563 O   0  0  0  0  0  0  0  0  0  0  0  0
  1  2  1  0  0  0  0
  3  2  1  1  0  0  0
  3  4  1  0  0  0  0
  3  5  1  0  0  0  0
  4  8  1  0  0  0  0
  5  6  1  0  0  0  0
  5 12  1  6  0  0  0
  6  7  1  6  0  0  0
  6  8  1  0  0  0  0
  8 41  1  6  0  0  0
  9 10  1  0  0  0  0
  9 17  1  0  0  0  0
  9 19  1  6  0  0  0
 10 11  1  0  0  0  0
 11 12  1  6  0  0  0
 11 13  1  0  0  0  0
 13 14  1  6  0  0  0
 13 15  1  0  0  0  0
 15 16  1  1  0  0  0
 15 17  1  0  0  0  0
 17 18  1  6  0  0  0
 19 20  1  0  0  0  0
 21 22  1  0  0  0  0
 21 29  1  0  0  0  0
 21 31  1  1  0  0  0
 22 23  1  0  0  0  0
 23 24  1  1  0  0  0
 23 25  1  0  0  0  0
 25 26  1  1  0  0  0
 25 27  1  0  0  0  0
 27 28  1  1  0  0  0
 27 29  1  0  0  0  0
 29 30  1  1  0  0  0
 31 32  1  0  0  0  0
 33 34  1  0  0  0  0
 33 38  1  0  0  0  0
 33 39  1  6  0  0  0
 34 35  1  0  0  0  0
 35 36  1  0  0  0  0
 35 40  1  1  0  0  0
 36 24  1  1  0  0  0
 36 37  1  0  0  0  0
 37 38  1  0  0  0  0
 37 41  1  6  0  0  0
 38 42  1  1  0  0  0
M  CHG  6  14   1  20   1  26   1  32   1  39   1  40   1
M  END
>  <CHROM.1>
-57.89620358,-37.15631132,-67.28669384,-87.34675895,-153.44302276,48.23951986
148.28797676,-103.27156450,178.36016443,-165.30127154,-74.95310772,-45.96399556
72.28579724,-131.41053731,172.14438178,62.51138540,-65.18692560,77.51698230
56.06072935,53.34425345,151.99203675,67.98131055,7.01944309,-7.10839659,-3.43727961
2.53831237,-1.15793529,-0.71183637

>  <Name>


>  <RI>
0

>  <Rbt.Current_Directory>
/home/itssahil/PROJECTS/Mol_Feturizer/New_Systems/rnas/1qd3

>  <Rbt.Executable>
rbdock ($Id: //depot/dev/client3/rdock/2013.1/src/exe/rbdock.cxx#4 $)

>  <Rbt.Library>
libRbt.so (2013.1, Build901 2013/11/27)

>  <Rbt.Parameter_File>
/export/apps/rDock/src/rDock_2013.1_src/data/scripts/dock_solv.prm

>  <Rbt.Receptor>
prm/pocket_docking_7.prm

>  <SCORE>
-40.7268

>  <SCORE.INTER>
-27.8319

>  <SCORE.INTER.CONST>
1

>  <SCORE.INTER.POLAR>
-6.11158

>  <SCORE.INTER.ROT>
9

>  <SCORE.INTER.SOLV>
30.0168

>  <SCORE.INTER.VDW>
-17.7883

>  <SCORE.INTER.norm>
-0.662664

>  <SCORE.INTRA>
-12.9107

>  <SCORE.INTRA.DIHEDRAL>
-9.95746

>  <SCORE.INTRA.DIHEDRAL.0>
40.6252

>  <SCORE.INTRA.POLAR>
0.471168

>  <SCORE.INTRA.POLAR.0>
-1.20161

>  <SCORE.INTRA.REPUL>
-0.115675

>  <SCORE.INTRA.REPUL.0>
0.115675

>  <SCORE.INTRA.SOLV>
-6.38472

>  <SCORE.INTRA.SOLV.lig_0>
-154.895

>  <SCORE.INTRA.VDW>
-5.76318

>  <SCORE.INTRA.VDW.0>
2.2925

>  <SCORE.INTRA.norm>
-0.307397

>  <SCORE.RESTR>
0.0157728

>  <SCORE.RESTR.CAVITY>
0.0157728

>  <SCORE.RESTR.norm>
0.000375544

>  <SCORE.SYSTEM>
0

>  <SCORE.SYSTEM.CONST>
0

>  <SCORE.SYSTEM.DIHEDRAL>
0

>  <SCORE.SYSTEM.SOLV>
0

>  <SCORE.SYSTEM.norm>
0

>  <SCORE.heavy>
42

>  <SCORE.norm>
-0.969685

>  <RMSD>
7.666

$$$$

 OpenBabel11021811413D
libRbt.so/2013.1/901 2013/11/27
 42 45  0  0  0  0  0  0  0  0999 V2000
    4.6023   -8.9136   -1.4002 O   0  0  0  0  0  0  0  0  0  0  0  0
    5.8043   -8.5405   -0.7417 C   0  0  0  0  0  0  0  0  0  0  0  0
    6.2794   -7.1831   -1.2614 C   0  0  1  0  0  0  0  0  0  0  0  0
    7.4875   -6.7587   -0.5935 O   0  0  0  0  0  0  0  0  0  0  0  0
    6.6071   -7.1862   -2.7453 C   0  0  2  0  0  0  0  0  0  0  0  0
    7.4826   -5.9477   -2.8383 C   0  0  1  0  0  0  0  0  0  0  0  0
    6.6686   -4.7804   -2.8124 O   0  0  0  0  0  0  0  0  0  0  0  0
    8.3132   -6.0363   -1.5418 C   0  0  2  0  0  0  0  0  0  0  0  0
    4.9745   -7.8690   -7.0911 C   0  0  2  0  0  0  0  0  0  0  0  0
    4.6869   -7.7979   -5.6862 O   0  0  0  0  0  0  0  0  0  0  0  0
    5.7061   -7.0831   -4.9643 C   0  0  2  0  0  0  0  0  0  0  0  0
    5.4167   -7.0804   -3.5508 O   0  0  0  0  0  0  0  0  0  0  0  0
    5.8316   -5.6416   -5.4866 C   0  0  2  0  0  0  0  0  0  0  0  0
    4.7415   -4.8192   -4.9950 N   0  3  0  0  0  0  0  0  0  0  0  0
    5.9167   -5.5630   -7.0154 C   0  0  1  0  0  0  0  0  0  0  0  0
    7.2263   -5.9145   -7.4328 O   0  0  0  0  0  0  0  0  0  0  0  0
    4.9007   -6.4741   -7.6989 C   0  0  2  0  0  0  0  0  0  0  0  0
    3.5903   -5.9415   -7.5452 O   0  0  0  0  0  0  0  0  0  0  0  0
    4.0062   -8.8185   -7.7909 C   0  0  0  0  0  0  0  0  0  0  0  0
    3.7796   -9.9997   -6.9795 N   0  3  0  0  0  0  0  0  0  0  0  0
   11.7505   -2.8754   -3.9033 C   0  0  1  0  0  0  0  0  0  0  0  0
   10.7726   -3.8994   -3.6252 O   0  0  0  0  0  0  0  0  0  0  0  0
   11.3595   -5.1916   -3.3475 C   0  0  2  0  0  0  0  0  0  0  0  0
   12.1330   -5.1852   -2.1222 O   0  0  0  0  0  0  0  0  0  0  0  0
   12.2072   -5.6663   -4.5340 C   0  0  2  0  0  0  0  0  0  0  0  0
   12.9552   -6.8537   -4.1648 N   0  3  0  0  0  0  0  0  0  0  0  0
   13.1781   -4.5880   -5.0021 C   0  0  1  0  0  0  0  0  0  0  0  0
   13.7666   -4.9767   -6.2337 O   0  0  0  0  0  0  0  0  0  0  0  0
   12.5268   -3.2230   -5.1630 C   0  0  2  0  0  0  0  0  0  0  0  0
   13.5126   -2.2325   -5.4154 O   0  0  0  0  0  0  0  0  0  0  0  0
   11.0538   -1.5390   -4.1426 C   0  0  0  0  0  0  0  0  0  0  0  0
    9.8794   -1.4132   -3.2990 N   0  3  0  0  0  0  0  0  0  0  0  0
   10.9596   -6.5633    1.7279 C   0  0  2  0  0  0  0  0  0  0  0  0
   11.4351   -5.1296    1.5993 C   0  0  0  0  0  0  0  0  0  0  0  0
   12.1780   -4.9312    0.2911 C   0  0  1  0  0  0  0  0  0  0  0  0
   11.3021   -5.2064   -0.9320 C   0  0  2  0  0  0  0  0  0  0  0  0
   10.5932   -6.5750   -0.8085 C   0  0  1  0  0  0  0  0  0  0  0  0
   10.0340   -6.9296    0.5757 C   0  0  1  0  0  0  0  0  0  0  0  0
   10.2589   -6.7275    2.9873 N   0  3  0  0  0  0  0  0  0  0  0  0
   12.7040   -3.5808    0.2479 N   0  3  0  0  0  0  0  0  0  0  0  0
    9.5630   -6.7327   -1.8148 O   0  0  0  0  0  0  0  0  0  0  0  0
    9.7265   -8.3187    0.6298 O   0  0  0  0  0  0  0  0  0  0  0  0
  1  2  1  0  0  0  0
  3  2  1  1  0  0  0
  3  4  1  0  0  0  0
  3  5  1  0  0  0  0
  4  8  1  0  0  0  0
  5  6  1  0  0  0  0
  5 12  1  6  0  0  0
  6  7  1  1  0  0  0
  6  8  1  0  0  0  0
  8 41  1  6  0  0  0
  9 10  1  0  0  0  0
  9 17  1  0  0  0  0
  9 19  1  6  0  0  0
 10 11  1  0  0  0  0
 11 12  1  1  0  0  0
 11 13  1  0  0  0  0
 13 14  1  6  0  0  0
 13 15  1  0  0  0  0
 15 16  1  6  0  0  0
 15 17  1  0  0  0  0
 17 18  1  1  0  0  0
 19 20  1  0  0  0  0
 21 22  1  0  0  0  0
 21 29  1  0  0  0  0
 21 31  1  6  0  0  0
 22 23  1  0  0  0  0
 23 24  1  1  0  0  0
 23 25  1  0  0  0  0
 25 26  1  1  0  0  0
 25 27  1  0  0  0  0
 27 28  1  6  0  0  0
 27 29  1  0  0  0  0
 29 30  1  1  0  0  0
 31 32  1  0  0  0  0
 33 34  1  0  0  0  0
 33 38  1  0  0  0  0
 33 39  1  1  0  0  0
 34 35  1  0  0  0  0
 35 36  1  0  0  0  0
 35 40  1  6  0  0  0
 36 24  1  6  0  0  0
 36 37  1  0  0  0  0
 37 38  1  0  0  0  0
 37 41  1  6  0  0  0
 38 42  1  6  0  0  0
M  CHG  6  14   1  20   1  26   1  32   1  39   1  40   1
M  END
>  <CHROM.1>
-176.07877289,178.84959411,-179.93374610,60.05129324,-79.36981559,-41.05734395
143.42317143,84.76412408,-74.54077074,-65.52770186,46.34129057,34.96376780
75.96337032,-169.36449007,-41.89094633,60.62599448,-69.00090768,-133.12580811
-62.77840258,-170.02284690,-78.20211219,-56.57200465,8.73544175,-5.87314053
-3.25972092,2.75349634,-0.48853718,-1.26237215

>  <Name>


>  <RI>
0

>  <Rbt.Current_Directory>
/home/itssahil/PROJECTS/Mol_Feturizer/New_Systems/rnas/1qd3

>  <Rbt.Executable>
rbdock ($Id: //depot/dev/client3/rdock/2013.1/src/exe/rbdock.cxx#4 $)

>  <Rbt.Library>
libRbt.so (2013.1, Build901 2013/11/27)

>  <Rbt.Parameter_File>
/export/apps/rDock/src/rDock_2013.1_src/data/scripts/dock_solv.prm

>  <Rbt.Receptor>
prm/pocket_docking_5.prm

>  <SCORE>
-53.0923

>  <SCORE.INTER>
-30.1291

>  <SCORE.INTER.CONST>
1

>  <SCORE.INTER.POLAR>
-5.6252

>  <SCORE.INTER.ROT>
9

>  <SCORE.INTER.SOLV>
23.934

>  <SCORE.INTER.VDW>
-18.9134

>  <SCORE.INTER.norm>
-0.71736

>  <SCORE.INTRA>
-22.9631

>  <SCORE.INTRA.DIHEDRAL>
-20.2477

>  <SCORE.INTRA.DIHEDRAL.0>
40.6252

>  <SCORE.INTRA.POLAR>
0.127188

>  <SCORE.INTRA.POLAR.0>
-1.20161

>  <SCORE.INTRA.REPUL>
-0.115675

>  <SCORE.INTRA.REPUL.0>
0.115675

>  <SCORE.INTRA.SOLV>
-11.7217

>  <SCORE.INTRA.SOLV.lig_0>
-154.895

>  <SCORE.INTRA.VDW>
-6.83251

>  <SCORE.INTRA.VDW.0>
2.2925

>  <SCORE.INTRA.norm>
-0.546742

>  <SCORE.RESTR>
0

>  <SCORE.RESTR.CAVITY>
0

>  <SCORE.RESTR.norm>
0

>  <SCORE.SYSTEM>
0

>  <SCORE.SYSTEM.CONST>
0

>  <SCORE.SYSTEM.DIHEDRAL>
0

>  <SCORE.SYSTEM.SOLV>
0

>  <SCORE.SYSTEM.norm>
0

>  <SCORE.heavy>
42

>  <SCORE.norm>
-1.2641

>  <RMSD>
7.709

$$$$

 OpenBabel11021811413D
libRbt.so/2013.1/901 2013/11/27
 42 45  0  0  0  0  0  0  0  0999 V2000
    6.0516  -11.9857   -2.9203 O   0  0  0  0  0  0  0  0  0  0  0  0
    4.7047  -11.5825   -2.7175 C   0  0  0  0  0  0  0  0  0  0  0  0
    4.6491  -10.0773   -2.4540 C   0  0  1  0  0  0  0  0  0  0  0  0
    5.4867   -9.7085   -1.3367 O   0  0  0  0  0  0  0  0  0  0  0  0
    5.1333   -9.2410   -3.6269 C   0  0  2  0  0  0  0  0  0  0  0  0
    5.4348   -7.9275   -2.9249 C   0  0  1  0  0  0  0  0  0  0  0  0
    4.2209   -7.2309   -2.6661 O   0  0  0  0  0  0  0  0  0  0  0  0
    6.0599   -8.4023   -1.5973 C   0  0  2  0  0  0  0  0  0  0  0  0
    5.9738   -8.1784   -7.6421 C   0  0  2  0  0  0  0  0  0  0  0  0
    5.4848   -8.9905   -6.5637 O   0  0  0  0  0  0  0  0  0  0  0  0
    4.5404   -8.2810   -5.7418 C   0  0  2  0  0  0  0  0  0  0  0  0
    4.1139   -9.1042   -4.6364 O   0  0  0  0  0  0  0  0  0  0  0  0
    3.3264   -7.8325   -6.5734 C   0  0  2  0  0  0  0  0  0  0  0  0
    2.4387   -8.9510   -6.8330 N   0  3  0  0  0  0  0  0  0  0  0  0
    3.7198   -7.1433   -7.8853 C   0  0  1  0  0  0  0  0  0  0  0  0
    4.1280   -5.8120   -7.6138 O   0  0  0  0  0  0  0  0  0  0  0  0
    4.8388   -7.8824   -8.6140 C   0  0  2  0  0  0  0  0  0  0  0  0
    4.3398   -9.0943   -9.1681 O   0  0  0  0  0  0  0  0  0  0  0  0
    7.1323   -8.8708   -8.3543 C   0  0  0  0  0  0  0  0  0  0  0  0
    8.2380   -9.0794   -7.4384 N   0  3  0  0  0  0  0  0  0  0  0  0
    8.4714   -3.1633   -1.0512 C   0  0  1  0  0  0  0  0  0  0  0  0
    7.4541   -4.1720   -1.2243 O   0  0  0  0  0  0  0  0  0  0  0  0
    7.9887   -5.4728   -1.5610 C   0  0  2  0  0  0  0  0  0  0  0  0
    8.7755   -6.0332   -0.4809 O   0  0  0  0  0  0  0  0  0  0  0  0
    8.8022   -5.4033   -2.8591 C   0  0  2  0  0  0  0  0  0  0  0  0
    9.5032   -6.6559   -3.0721 N   0  3  0  0  0  0  0  0  0  0  0  0
    9.8126   -4.2619   -2.8324 C   0  0  1  0  0  0  0  0  0  0  0  0
   10.3704   -4.0868   -4.1256 O   0  0  0  0  0  0  0  0  0  0  0  0
    9.2181   -2.9451   -2.3570 C   0  0  2  0  0  0  0  0  0  0  0  0
   10.2422   -1.9781   -2.1758 O   0  0  0  0  0  0  0  0  0  0  0  0
    7.8294   -1.8361   -0.6575 C   0  0  0  0  0  0  0  0  0  0  0  0
    7.0031   -1.9956    0.5251 N   0  3  0  0  0  0  0  0  0  0  0  0
    8.5052   -9.6497    1.7433 C   0  0  2  0  0  0  0  0  0  0  0  0
    8.0982   -8.3603    2.4288 C   0  0  0  0  0  0  0  0  0  0  0  0
    8.6263   -7.1615    1.6628 C   0  0  1  0  0  0  0  0  0  0  0  0
    8.0774   -7.0840    0.2375 C   0  0  2  0  0  0  0  0  0  0  0  0
    8.2547   -8.4325   -0.4980 C   0  0  1  0  0  0  0  0  0  0  0  0
    7.9649   -9.6976    0.3205 C   0  0  1  0  0  0  0  0  0  0  0  0
    7.9938  -10.7785    2.4972 N   0  3  0  0  0  0  0  0  0  0  0  0
    8.3062   -5.9538    2.3986 N   0  3  0  0  0  0  0  0  0  0  0  0
    7.5083   -8.4632   -1.7392 O   0  0  0  0  0  0  0  0  0  0  0  0
    8.4874  -10.8378   -0.3534 O   0  0  0  0  0  0  0  0  0  0  0  0
  1  2  1  0  0  0  0
  3  2  1  6  0  0  0
  3  4  1  0  0  0  0
  3  5  1  0  0  0  0
  4  8  1  0  0  0  0
  5  6  1  0  0  0  0
  5 12  1  6  0  0  0
  6  7  1  1  0  0  0
  6  8  1  0  0  0  0
  8 41  1  6  0  0  0
  9 10  1  0  0  0  0
  9 17  1  0  0  0  0
  9 19  1  6  0  0  0
 10 11  1  0  0  0  0
 11 12  1  1  0  0  0
 11 13  1  0  0  0  0
 13 14  1  6  0  0  0
 13 15  1  0  0  0  0
 15 16  1  1  0  0  0
 15 17  1  0  0  0  0
 17 18  1  1  0  0  0
 19 20  1  0  0  0  0
 21 22  1  0  0  0  0
 21 29  1  0  0  0  0
 21 31  1  6  0  0  0
 22 23  1  0  0  0  0
 23 24  1  1  0  0  0
 23 25  1  0  0  0  0
 25 26  1  1  0  0  0
 25 27  1  0  0  0  0
 27 28  1  6  0  0  0
 27 29  1  0  0  0  0
 29 30  1  1  0  0  0
 31 32  1  0  0  0  0
 33 34  1  0  0  0  0
 33 38  1  0  0  0  0
 33 39  1  1  0  0  0
 34 35  1  0  0  0  0
 35 36  1  0  0  0  0
 35 40  1  1  0  0  0
 36 24  1  6  0  0  0
 36 37  1  0  0  0  0
 37 38  1  0  0  0  0
 37 41  1  6  0  0  0
 38 42  1  6  0  0  0
M  CHG  6  14   1  20   1  26   1  32   1  39   1  40   1
M  END
>  <CHROM.1>
-62.85329976,-56.00731627,178.32531539,175.70697277,-83.78378373,-61.45893952
73.58007266,17.33298825,173.16961638,52.48217988,170.74816267,55.19168899
104.41617392,-153.94852825,160.20018810,57.20253353,-64.00745847,107.77777050
-58.49569943,132.77186797,-65.10654806,67.86762004,6.84548106,-7.38114378
-2.87826066,2.76228739,-1.07354097,-0.80311552

>  <Name>


>  <RI>
0

>  <Rbt.Current_Directory>
/home/itssahil/PROJECTS/Mol_Feturizer/New_Systems/rnas/1qd3

>  <Rbt.Executable>
rbdock ($Id: //depot/dev/client3/rdock/2013.1/src/exe/rbdock.cxx#4 $)

>  <Rbt.Library>
libRbt.so (2013.1, Build901 2013/11/27)

>  <Rbt.Parameter_File>
/export/apps/rDock/src/rDock_2013.1_src/data/scripts/dock_solv.prm

>  <Rbt.Receptor>
prm/pocket_docking_6.prm

>  <SCORE>
-57.1538

>  <SCORE.INTER>
-35.3955

>  <SCORE.INTER.CONST>
1

>  <SCORE.INTER.POLAR>
-7.48847

>  <SCORE.INTER.ROT>
9

>  <SCORE.INTER.SOLV>
22.2446

>  <SCORE.INTER.VDW>
-15.6503

>  <SCORE.INTER.norm>
-0.842751

>  <SCORE.INTRA>
-21.9368

>  <SCORE.INTRA.DIHEDRAL>
-15.0841

>  <SCORE.INTRA.DIHEDRAL.0>
40.6252

>  <SCORE.INTRA.POLAR>
-0.0885648

>  <SCORE.INTRA.POLAR.0>
-1.20161

>  <SCORE.INTRA.REPUL>
-0.115675

>  <SCORE.INTRA.REPUL.0>
0.115675

>  <SCORE.INTRA.SOLV>
-12.0621

>  <SCORE.INTRA.SOLV.lig_0>
-154.895

>  <SCORE.INTRA.VDW>
-7.48421

>  <SCORE.INTRA.VDW.0>
2.2925

>  <SCORE.INTRA.norm>
-0.522304

>  <SCORE.RESTR>
0.178471

>  <SCORE.RESTR.CAVITY>
0.178471

>  <SCORE.RESTR.norm>
0.0042493

>  <SCORE.SYSTEM>
0

>  <SCORE.SYSTEM.CONST>
0

>  <SCORE.SYSTEM.DIHEDRAL>
0

>  <SCORE.SYSTEM.SOLV>
0

>  <SCORE.SYSTEM.norm>
0

>  <SCORE.heavy>
42

>  <SCORE.norm>
-1.36081

>  <RMSD>
7.714

$$$$

 OpenBabel11021811413D
libRbt.so/2013.1/901 2013/11/27
 42 45  0  0  0  0  0  0  0  0999 V2000
    9.3318   -9.9729   -3.1803 O   0  0  0  0  0  0  0  0  0  0  0  0
    9.4902   -8.6100   -2.8126 C   0  0  0  0  0  0  0  0  0  0  0  0
    8.1193   -7.9743   -2.5784 C   0  0  1  0  0  0  0  0  0  0  0  0
    8.2444   -6.6374   -2.0468 O   0  0  0  0  0  0  0  0  0  0  0  0
    7.2925   -7.8390   -3.8462 C   0  0  2  0  0  0  0  0  0  0  0  0
    6.2926   -6.7798   -3.4132 C   0  0  1  0  0  0  0  0  0  0  0  0
    5.2974   -7.3687   -2.5834 O   0  0  0  0  0  0  0  0  0  0  0  0
    7.1700   -5.8229   -2.5807 C   0  0  2  0  0  0  0  0  0  0  0  0
    5.3526   -9.8719   -7.5204 C   0  0  2  0  0  0  0  0  0  0  0  0
    6.1288   -9.9979   -6.3191 O   0  0  0  0  0  0  0  0  0  0  0  0
    5.8206   -8.9622   -5.3688 C   0  0  2  0  0  0  0  0  0  0  0  0
    6.6574   -9.0834   -4.1998 O   0  0  0  0  0  0  0  0  0  0  0  0
    4.3356   -9.0152   -4.9705 C   0  0  2  0  0  0  0  0  0  0  0  0
    4.0903  -10.1030   -4.0416 N   0  3  0  0  0  0  0  0  0  0  0  0
    3.3945   -9.1161   -6.1766 C   0  0  1  0  0  0  0  0  0  0  0  0
    3.2696   -7.8403   -6.7846 O   0  0  0  0  0  0  0  0  0  0  0  0
    3.8837  -10.1284   -7.2089 C   0  0  2  0  0  0  0  0  0  0  0  0
    3.7120  -11.4505   -6.7117 O   0  0  0  0  0  0  0  0  0  0  0  0
    5.8574  -10.8357   -8.5904 C   0  0  0  0  0  0  0  0  0  0  0  0
    7.2113  -10.4927   -8.9832 N   0  3  0  0  0  0  0  0  0  0  0  0
   13.2778   -4.0226   -4.5027 C   0  0  1  0  0  0  0  0  0  0  0  0
   12.3944   -3.0454   -5.0916 O   0  0  0  0  0  0  0  0  0  0  0  0
   11.0157   -3.4786   -5.1456 C   0  0  2  0  0  0  0  0  0  0  0  0
   10.4422   -3.6324   -3.8238 O   0  0  0  0  0  0  0  0  0  0  0  0
   10.8873   -4.7729   -5.9579 C   0  0  2  0  0  0  0  0  0  0  0  0
    9.5446   -5.3079   -5.8285 N   0  3  0  0  0  0  0  0  0  0  0  0
   11.8922   -5.8263   -5.5051 C   0  0  1  0  0  0  0  0  0  0  0  0
   11.9006   -6.9060   -6.4262 O   0  0  0  0  0  0  0  0  0  0  0  0
   13.3044   -5.2823   -5.3528 C   0  0  2  0  0  0  0  0  0  0  0  0
   14.1464   -6.2559   -4.7531 O   0  0  0  0  0  0  0  0  0  0  0  0
   14.7002   -3.4729   -4.4448 C   0  0  0  0  0  0  0  0  0  0  0  0
   15.0900   -2.9189   -5.7285 N   0  3  0  0  0  0  0  0  0  0  0  0
    7.5847   -1.4427   -1.5567 C   0  0  2  0  0  0  0  0  0  0  0  0
    8.3914   -0.6939   -2.5991 C   0  0  0  0  0  0  0  0  0  0  0  0
    9.6069   -1.5029   -3.0126 C   0  0  1  0  0  0  0  0  0  0  0  0
    9.2350   -2.8475   -3.6393 C   0  0  2  0  0  0  0  0  0  0  0  0
    8.2371   -3.6181   -2.7441 C   0  0  1  0  0  0  0  0  0  0  0  0
    7.1199   -2.7877   -2.0987 C   0  0  1  0  0  0  0  0  0  0  0  0
    6.4337   -0.6469   -1.1749 N   0  3  0  0  0  0  0  0  0  0  0  0
   10.4063   -0.7161   -3.9314 N   0  3  0  0  0  0  0  0  0  0  0  0
    7.6708   -4.7570   -3.4378 O   0  0  0  0  0  0  0  0  0  0  0  0
    6.5023   -3.5373   -1.0577 O   0  0  0  0  0  0  0  0  0  0  0  0
  1  2  1  0  0  0  0
  3  2  1  6  0  0  0
  3  4  1  0  0  0  0
  3  5  1  0  0  0  0
  4  8  1  0  0  0  0
  5  6  1  0  0  0  0
  5 12  1  1  0  0  0
  6  7  1  1  0  0  0
  6  8  1  0  0  0  0
  8 41  1  6  0  0  0
  9 10  1  0  0  0  0
  9 17  1  0  0  0  0
  9 19  1  6  0  0  0
 10 11  1  0  0  0  0
 11 12  1  1  0  0  0
 11 13  1  0  0  0  0
 13 14  1  1  0  0  0
 13 15  1  0  0  0  0
 15 16  1  6  0  0  0
 15 17  1  0  0  0  0
 17 18  1  1  0  0  0
 19 20  1  0  0  0  0
 21 22  1  0  0  0  0
 21 29  1  0  0  0  0
 21 31  1  6  0  0  0
 22 23  1  0  0  0  0
 23 24  1  1  0  0  0
 23 25  1  0  0  0  0
 25 26  1  1  0  0  0
 25 27  1  0  0  0  0
 27 28  1  6  0  0  0
 27 29  1  0  0  0  0
 29 30  1  1  0  0  0
 31 32  1  0  0  0  0
 33 34  1  0  0  0  0
 33 38  1  0  0  0  0
 33 39  1  6  0  0  0
 34 35  1  0  0  0  0
 35 36  1  0  0  0  0
 35 40  1  6  0  0  0
 36 24  1  1  0  0  0
 36 37  1  0  0  0  0
 37 38  1  0  0  0  0
 37 41  1  6  0  0  0
 38 42  1  1  0  0  0
M  CHG  6  14   1  20   1  26   1  32   1  39   1  40   1
M  END
>  <CHROM.1>
-60.20894568,173.02577353,177.48326256,64.99317468,-77.32816166,-64.30157219
129.91116891,178.52600340,-49.81672104,-65.28473424,172.63264793,-49.01821245
124.23280781,-93.82538754,80.45575306,-175.89500999,-173.91752572,-174.37915678
179.48181210,79.33607762,156.36542891,-57.85063197,8.35725261,-6.11423062
-4.47989504,-2.33837073,0.29362484,0.56319600

>  <Name>


>  <RI>
0

>  <Rbt.Current_Directory>
/home/itssahil/PROJECTS/Mol_Feturizer/New_Systems/rnas/1qd3

>  <Rbt.Executable>
rbdock ($Id: //depot/dev/client3/rdock/2013.1/src/exe/rbdock.cxx#4 $)

>  <Rbt.Library>
libRbt.so (2013.1, Build901 2013/11/27)

>  <Rbt.Parameter_File>
/export/apps/rDock/src/rDock_2013.1_src/data/scripts/dock_solv.prm

>  <Rbt.Receptor>
prm/pocket_docking_6.prm

>  <SCORE>
-40.0687

>  <SCORE.INTER>
-17.6103

>  <SCORE.INTER.CONST>
1

>  <SCORE.INTER.POLAR>
-4.52016

>  <SCORE.INTER.ROT>
9

>  <SCORE.INTER.SOLV>
26.6467

>  <SCORE.INTER.VDW>
-15.1552

>  <SCORE.INTER.norm>
-0.419292

>  <SCORE.INTRA>
-22.4585

>  <SCORE.INTRA.DIHEDRAL>
-13.8966

>  <SCORE.INTRA.DIHEDRAL.0>
40.6252

>  <SCORE.INTRA.POLAR>
-0.423932

>  <SCORE.INTRA.POLAR.0>
-1.20161

>  <SCORE.INTRA.REPUL>
-0.115675

>  <SCORE.INTRA.REPUL.0>
0.115675

>  <SCORE.INTRA.SOLV>
-9.19765

>  <SCORE.INTRA.SOLV.lig_0>
-154.895

>  <SCORE.INTRA.VDW>
-8.89159

>  <SCORE.INTRA.VDW.0>
2.2925

>  <SCORE.INTRA.norm>
-0.534725

>  <SCORE.RESTR>
0

>  <SCORE.RESTR.CAVITY>
0

>  <SCORE.RESTR.norm>
0

>  <SCORE.SYSTEM>
0

>  <SCORE.SYSTEM.CONST>
0

>  <SCORE.SYSTEM.DIHEDRAL>
0

>  <SCORE.SYSTEM.SOLV>
0

>  <SCORE.SYSTEM.norm>
0

>  <SCORE.heavy>
42

>  <SCORE.norm>
-0.954017

>  <RMSD>
7.732

$$$$

 OpenBabel11021811413D
libRbt.so/2013.1/901 2013/11/27
 42 45  0  0  0  0  0  0  0  0999 V2000
    7.9083   -9.7426   -5.7023 O   0  0  0  0  0  0  0  0  0  0  0  0
    8.6601   -8.9390   -4.8041 C   0  0  0  0  0  0  0  0  0  0  0  0
    7.7140   -8.0985   -3.9456 C   0  0  1  0  0  0  0  0  0  0  0  0
    8.4447   -7.1777   -3.1067 O   0  0  0  0  0  0  0  0  0  0  0  0
    6.7575   -7.2444   -4.7611 C   0  0  2  0  0  0  0  0  0  0  0  0
    6.3480   -6.2161   -3.7201 C   0  0  1  0  0  0  0  0  0  0  0  0
    5.3988   -6.7878   -2.8267 O   0  0  0  0  0  0  0  0  0  0  0  0
    7.6749   -5.9555   -2.9783 C   0  0  2  0  0  0  0  0  0  0  0  0
    5.4752   -7.6273   -8.8727 C   0  0  2  0  0  0  0  0  0  0  0  0
    5.8995   -8.1241   -7.5942 O   0  0  0  0  0  0  0  0  0  0  0  0
    5.1495   -7.5392   -6.5143 C   0  0  2  0  0  0  0  0  0  0  0  0
    5.6390   -8.0149   -5.2432 O   0  0  0  0  0  0  0  0  0  0  0  0
    3.6509   -7.8538   -6.6612 C   0  0  2  0  0  0  0  0  0  0  0  0
    3.3715   -9.2231   -6.2695 N   0  3  0  0  0  0  0  0  0  0  0  0
    3.1158   -7.5787   -8.0714 C   0  0  1  0  0  0  0  0  0  0  0  0
    2.9221   -6.1831   -8.2376 O   0  0  0  0  0  0  0  0  0  0  0  0
    4.0544   -8.0972   -9.1576 C   0  0  2  0  0  0  0  0  0  0  0  0
    4.0082   -9.5186   -9.2013 O   0  0  0  0  0  0  0  0  0  0  0  0
    6.4297   -8.0858   -9.9716 C   0  0  0  0  0  0  0  0  0  0  0  0
    5.9049   -7.7340  -11.2777 N   0  3  0  0  0  0  0  0  0  0  0  0
   12.1791   -2.2978   -6.4568 C   0  0  1  0  0  0  0  0  0  0  0  0
   10.7699   -2.6080   -6.4511 O   0  0  0  0  0  0  0  0  0  0  0  0
   10.3742   -3.4548   -5.3476 C   0  0  2  0  0  0  0  0  0  0  0  0
   10.5328   -2.7912   -4.0693 O   0  0  0  0  0  0  0  0  0  0  0  0
   11.1434   -4.7810   -5.3812 C   0  0  2  0  0  0  0  0  0  0  0  0
   10.8962   -5.5282   -4.1621 N   0  3  0  0  0  0  0  0  0  0  0  0
   12.6438   -4.5602   -5.5380 C   0  0  1  0  0  0  0  0  0  0  0  0
   13.2845   -5.7990   -5.8006 O   0  0  0  0  0  0  0  0  0  0  0  0
   12.9929   -3.5688   -6.6374 C   0  0  2  0  0  0  0  0  0  0  0  0
   14.3801   -3.2664   -6.6070 O   0  0  0  0  0  0  0  0  0  0  0  0
   12.5049   -1.3696   -7.6234 C   0  0  0  0  0  0  0  0  0  0  0  0
   12.0407   -1.9363   -8.8764 N   0  3  0  0  0  0  0  0  0  0  0  0
    7.9551   -2.3454   -0.7142 C   0  0  2  0  0  0  0  0  0  0  0  0
    8.2260   -1.1245   -1.5711 C   0  0  0  0  0  0  0  0  0  0  0  0
    9.4435   -1.3502   -2.4482 C   0  0  1  0  0  0  0  0  0  0  0  0
    9.2658   -2.5234   -3.4131 C   0  0  2  0  0  0  0  0  0  0  0  0
    8.7825   -3.7871   -2.6647 C   0  0  1  0  0  0  0  0  0  0  0  0
    7.7146   -3.5718   -1.5841 C   0  0  1  0  0  0  0  0  0  0  0  0
    6.7919   -2.1019    0.1174 N   0  3  0  0  0  0  0  0  0  0  0  0
    9.7322   -0.1303   -3.1768 N   0  3  0  0  0  0  0  0  0  0  0  0
    8.3539   -4.8194   -3.5865 O   0  0  0  0  0  0  0  0  0  0  0  0
    7.6189   -4.7313   -0.7634 O   0  0  0  0  0  0  0  0  0  0  0  0
  1  2  1  0  0  0  0
  3  2  1  6  0  0  0
  3  4  1  0  0  0  0
  3  5  1  0  0  0  0
  4  8  1  0  0  0  0
  5  6  1  0  0  0  0
  5 12  1  1  0  0  0
  6  7  1  1  0  0  0
  6  8  1  0  0  0  0
  8 41  1  6  0  0  0
  9 10  1  0  0  0  0
  9 17  1  0  0  0  0
  9 19  1  6  0  0  0
 10 11  1  0  0  0  0
 11 12  1  1  0  0  0
 11 13  1  0  0  0  0
 13 14  1  6  0  0  0
 13 15  1  0  0  0  0
 15 16  1  6  0  0  0
 15 17  1  0  0  0  0
 17 18  1  1  0  0  0
 19 20  1  0  0  0  0
 21 22  1  0  0  0  0
 21 29  1  0  0  0  0
 21 31  1  6  0  0  0
 22 23  1  0  0  0  0
 23 24  1  1  0  0  0
 23 25  1  0  0  0  0
 25 26  1  1  0  0  0
 25 27  1  0  0  0  0
 27 28  1  6  0  0  0
 27 29  1  0  0  0  0
 29 30  1  1  0  0  0
 31 32  1  0  0  0  0
 33 34  1  0  0  0  0
 33 38  1  0  0  0  0
 33 39  1  6  0  0  0
 34 35  1  0  0  0  0
 35 36  1  0  0  0  0
 35 40  1  6  0  0  0
 36 24  1  1  0  0  0
 36 37  1  0  0  0  0
 37 38  1  0  0  0  0
 37 41  1  6  0  0  0
 38 42  1  1  0  0  0
M  CHG  6  14   1  20   1  26   1  32   1  39   1  40   1
M  END
>  <CHROM.1>
-50.26917439,-174.64898351,-148.29615951,-170.15258493,-113.93479974,172.45026091
85.37258596,79.29104196,67.49727242,-179.74161612,-76.45647262,-54.19190672
112.73438993,-155.71566896,-175.23808418,56.57179115,-64.07423045,-170.07637908
-72.21604479,169.38817846,-170.11219395,62.99250435,8.13906482,-5.36380201
-5.30266520,-2.48909682,0.54764283,1.14433566

>  <Name>


>  <RI>
0

>  <Rbt.Current_Directory>
/home/itssahil/PROJECTS/Mol_Feturizer/New_Systems/rnas/1qd3

>  <Rbt.Executable>
rbdock ($Id: //depot/dev/client3/rdock/2013.1/src/exe/rbdock.cxx#4 $)

>  <Rbt.Library>
libRbt.so (2013.1, Build901 2013/11/27)

>  <Rbt.Parameter_File>
/export/apps/rDock/src/rDock_2013.1_src/data/scripts/dock_solv.prm

>  <Rbt.Receptor>
prm/pocket_docking_8.prm

>  <SCORE>
-60.0642

>  <SCORE.INTER>
-43.2596

>  <SCORE.INTER.CONST>
1

>  <SCORE.INTER.POLAR>
-8.16559

>  <SCORE.INTER.ROT>
9

>  <SCORE.INTER.SOLV>
35.9113

>  <SCORE.INTER.VDW>
-23.1915

>  <SCORE.INTER.norm>
-1.02999

>  <SCORE.INTRA>
-16.8046

>  <SCORE.INTRA.DIHEDRAL>
-12.2328

>  <SCORE.INTRA.DIHEDRAL.0>
40.6252

>  <SCORE.INTRA.POLAR>
0.00798371

>  <SCORE.INTRA.POLAR.0>
-1.20161

>  <SCORE.INTRA.REPUL>
-0.115675

>  <SCORE.INTRA.REPUL.0>
0.115675

>  <SCORE.INTRA.SOLV>
-7.35589

>  <SCORE.INTRA.SOLV.lig_0>
-154.895

>  <SCORE.INTRA.VDW>
-6.45901

>  <SCORE.INTRA.VDW.0>
2.2925

>  <SCORE.INTRA.norm>
-0.400109

>  <SCORE.RESTR>
0

>  <SCORE.RESTR.CAVITY>
0

>  <SCORE.RESTR.norm>
0

>  <SCORE.SYSTEM>
0

>  <SCORE.SYSTEM.CONST>
0

>  <SCORE.SYSTEM.DIHEDRAL>
0

>  <SCORE.SYSTEM.SOLV>
0

>  <SCORE.SYSTEM.norm>
0

>  <SCORE.heavy>
42

>  <SCORE.norm>
-1.4301

>  <RMSD>
7.798

$$$$

 OpenBabel11021811413D
libRbt.so/2013.1/901 2013/11/27
 42 45  0  0  0  0  0  0  0  0999 V2000
    6.6958   -8.9510   -3.1635 O   0  0  0  0  0  0  0  0  0  0  0  0
    7.3776   -7.7724   -2.7588 C   0  0  0  0  0  0  0  0  0  0  0  0
    6.4655   -6.5585   -2.9406 C   0  0  1  0  0  0  0  0  0  0  0  0
    7.0748   -5.3603   -2.4126 O   0  0  0  0  0  0  0  0  0  0  0  0
    6.1488   -6.2542   -4.3954 C   0  0  2  0  0  0  0  0  0  0  0  0
    5.7016   -4.8062   -4.2846 C   0  0  1  0  0  0  0  0  0  0  0  0
    4.3750   -4.7505   -3.7718 O   0  0  0  0  0  0  0  0  0  0  0  0
    6.6894   -4.2376   -3.2456 C   0  0  2  0  0  0  0  0  0  0  0  0
    5.8845   -7.1215   -8.4727 C   0  0  2  0  0  0  0  0  0  0  0  0
    6.0500   -7.3398   -7.0633 O   0  0  0  0  0  0  0  0  0  0  0  0
    4.8879   -6.9362   -6.3167 C   0  0  2  0  0  0  0  0  0  0  0  0
    5.1091   -7.1140   -4.9021 O   0  0  0  0  0  0  0  0  0  0  0  0
    3.6500   -7.7302   -6.7678 C   0  0  2  0  0  0  0  0  0  0  0  0
    3.6759   -9.0761   -6.2254 N   0  3  0  0  0  0  0  0  0  0  0  0
    3.4844   -7.7683   -8.2916 C   0  0  1  0  0  0  0  0  0  0  0  0
    2.9540   -6.5307   -8.7387 O   0  0  0  0  0  0  0  0  0  0  0  0
    4.8017   -8.0489   -9.0096 C   0  0  2  0  0  0  0  0  0  0  0  0
    5.1801   -9.4069   -8.8169 O   0  0  0  0  0  0  0  0  0  0  0  0
    7.2026   -7.3416   -9.2095 C   0  0  0  0  0  0  0  0  0  0  0  0
    6.9624   -7.9357  -10.5112 N   0  3  0  0  0  0  0  0  0  0  0  0
   11.9758   -5.6001   -5.7478 C   0  0  1  0  0  0  0  0  0  0  0  0
   10.5906   -5.2129   -5.6329 O   0  0  0  0  0  0  0  0  0  0  0  0
   10.1309   -5.1291   -4.2643 C   0  0  2  0  0  0  0  0  0  0  0  0
   10.7930   -4.0679   -3.5327 O   0  0  0  0  0  0  0  0  0  0  0  0
   10.2985   -6.4780   -3.5543 C   0  0  2  0  0  0  0  0  0  0  0  0
   10.0346   -6.3272   -2.1354 N   0  3  0  0  0  0  0  0  0  0  0  0
   11.7000   -7.0470   -3.7456 C   0  0  1  0  0  0  0  0  0  0  0  0
   11.7393   -8.3873   -3.2807 O   0  0  0  0  0  0  0  0  0  0  0  0
   12.1749   -6.9999   -5.1898 C   0  0  2  0  0  0  0  0  0  0  0  0
   13.5447   -7.3654   -5.2710 O   0  0  0  0  0  0  0  0  0  0  0  0
   12.3915   -5.6235   -7.2160 C   0  0  0  0  0  0  0  0  0  0  0  0
   11.3563   -6.2286   -8.0338 N   0  3  0  0  0  0  0  0  0  0  0  0
    8.9669   -0.4838   -2.1473 C   0  0  2  0  0  0  0  0  0  0  0  0
   10.2639   -0.3680   -2.9235 C   0  0  0  0  0  0  0  0  0  0  0  0
   10.9691   -1.7104   -2.9835 C   0  0  1  0  0  0  0  0  0  0  0  0
   10.1379   -2.7820   -3.6903 C   0  0  2  0  0  0  0  0  0  0  0  0
    8.7065   -2.8450   -3.1089 C   0  0  1  0  0  0  0  0  0  0  0  0
    8.0378   -1.4993   -2.7987 C   0  0  1  0  0  0  0  0  0  0  0  0
    8.3164    0.8118   -2.0999 N   0  3  0  0  0  0  0  0  0  0  0  0
   12.2493   -1.5411   -3.6429 N   0  3  0  0  0  0  0  0  0  0  0  0
    7.8329   -3.6543   -3.9339 O   0  0  0  0  0  0  0  0  0  0  0  0
    6.8979   -1.7070   -1.9714 O   0  0  0  0  0  0  0  0  0  0  0  0
  1  2  1  0  0  0  0
  3  2  1  6  0  0  0
  3  4  1  0  0  0  0
  3  5  1  0  0  0  0
  4  8  1  0  0  0  0
  5  6  1  0  0  0  0
  5 12  1  1  0  0  0
  6  7  1  1  0  0  0
  6  8  1  0  0  0  0
  8 41  1  6  0  0  0
  9 10  1  0  0  0  0
  9 17  1  0  0  0  0
  9 19  1  6  0  0  0
 10 11  1  0  0  0  0
 11 12  1  1  0  0  0
 11 13  1  0  0  0  0
 13 14  1  6  0  0  0
 13 15  1  0  0  0  0
 15 16  1  6  0  0  0
 15 17  1  0  0  0  0
 17 18  1  1  0  0  0
 19 20  1  0  0  0  0
 21 22  1  0  0  0  0
 21 29  1  0  0  0  0
 21 31  1  6  0  0  0
 22 23  1  0  0  0  0
 23 24  1  1  0  0  0
 23 25  1  0  0  0  0
 25 26  1  1  0  0  0
 25 27  1  0  0  0  0
 27 28  1  6  0  0  0
 27 29  1  0  0  0  0
 29 30  1  1  0  0  0
 31 32  1  0  0  0  0
 33 34  1  0  0  0  0
 33 38  1  0  0  0  0
 33 39  1  6  0  0  0
 34 35  1  0  0  0  0
 35 36  1  0  0  0  0
 35 40  1  6  0  0  0
 36 24  1  1  0  0  0
 36 37  1  0  0  0  0
 37 38  1  0  0  0  0
 37 41  1  6  0  0  0
 38 42  1  1  0  0  0
M  CHG  6  14   1  20   1  26   1  32   1  39   1  40   1
M  END
>  <CHROM.1>
-178.37522270,174.13418226,-174.04965651,59.19354899,-75.18091820,144.56252313
64.94961450,-172.41941055,60.22169600,165.37562256,-69.40818847,-42.37435389
86.41675595,-175.30294913,57.82375674,-61.34705664,61.77729919,66.78990971
22.24789076,177.53829335,155.28262494,162.96729722,8.07670081,-5.54470436
-4.96931118,-2.24755192,-0.04937309,0.68391705

>  <Name>


>  <RI>
0

>  <Rbt.Current_Directory>
/home/itssahil/PROJECTS/Mol_Feturizer/New_Systems/rnas/1qd3

>  <Rbt.Executable>
rbdock ($Id: //depot/dev/client3/rdock/2013.1/src/exe/rbdock.cxx#4 $)

>  <Rbt.Library>
libRbt.so (2013.1, Build901 2013/11/27)

>  <Rbt.Parameter_File>
/export/apps/rDock/src/rDock_2013.1_src/data/scripts/dock_solv.prm

>  <Rbt.Receptor>
prm/pocket_docking_5.prm

>  <SCORE>
-39.7504

>  <SCORE.INTER>
-18.4088

>  <SCORE.INTER.CONST>
1

>  <SCORE.INTER.POLAR>
-2.96641

>  <SCORE.INTER.ROT>
9

>  <SCORE.INTER.SOLV>
22.7503

>  <SCORE.INTER.VDW>
-19.5679

>  <SCORE.INTER.norm>
-0.438304

>  <SCORE.INTRA>
-21.9203

>  <SCORE.INTRA.DIHEDRAL>
-22.6516

>  <SCORE.INTRA.DIHEDRAL.0>
40.6252

>  <SCORE.INTRA.POLAR>
-0.207093

>  <SCORE.INTRA.POLAR.0>
-1.20161

>  <SCORE.INTRA.REPUL>
-0.115675

>  <SCORE.INTRA.REPUL.0>
0.115675

>  <SCORE.INTRA.SOLV>
-7.09037

>  <SCORE.INTRA.SOLV.lig_0>
-154.895

>  <SCORE.INTRA.VDW>
-5.76676

>  <SCORE.INTRA.VDW.0>
2.2925

>  <SCORE.INTRA.norm>
-0.521911

>  <SCORE.RESTR>
0.578584

>  <SCORE.RESTR.CAVITY>
0.578584

>  <SCORE.RESTR.norm>
0.0137758

>  <SCORE.SYSTEM>
0

>  <SCORE.SYSTEM.CONST>
0

>  <SCORE.SYSTEM.DIHEDRAL>
0

>  <SCORE.SYSTEM.SOLV>
0

>  <SCORE.SYSTEM.norm>
0

>  <SCORE.heavy>
42

>  <SCORE.norm>
-0.946439

>  <RMSD>
7.800

$$$$

 OpenBabel11021811413D
libRbt.so/2013.1/901 2013/11/27
 42 45  0  0  0  0  0  0  0  0999 V2000
   11.2950   -1.4700   -5.1614 O   0  0  0  0  0  0  0  0  0  0  0  0
   11.7131   -2.8259   -5.2287 C   0  0  0  0  0  0  0  0  0  0  0  0
   10.4983   -3.7330   -5.4280 C   0  0  1  0  0  0  0  0  0  0  0  0
   10.8928   -5.0482   -5.8753 O   0  0  0  0  0  0  0  0  0  0  0  0
    9.6944   -3.9528   -4.1572 C   0  0  2  0  0  0  0  0  0  0  0  0
    8.9299   -5.2127   -4.5274 C   0  0  1  0  0  0  0  0  0  0  0  0
    7.8513   -4.8831   -5.3956 O   0  0  0  0  0  0  0  0  0  0  0  0
    9.9917   -6.0255   -5.2958 C   0  0  2  0  0  0  0  0  0  0  0  0
   10.3809   -0.5135   -1.5369 C   0  0  2  0  0  0  0  0  0  0  0  0
   10.0298   -1.1228   -2.7887 O   0  0  0  0  0  0  0  0  0  0  0  0
    9.1072   -2.2135   -2.6157 C   0  0  2  0  0  0  0  0  0  0  0  0
    8.8210   -2.8395   -3.8837 O   0  0  0  0  0  0  0  0  0  0  0  0
    7.8064   -1.7247   -1.9557 C   0  0  2  0  0  0  0  0  0  0  0  0
    6.9758   -1.0198   -2.9147 N   0  3  0  0  0  0  0  0  0  0  0  0
    8.0524   -0.8555   -0.7169 C   0  0  1  0  0  0  0  0  0  0  0  0
    8.3930   -1.6865    0.3814 O   0  0  0  0  0  0  0  0  0  0  0  0
    9.1578    0.1726   -0.9419 C   0  0  2  0  0  0  0  0  0  0  0  0
    8.6976    1.1972   -1.8153 O   0  0  0  0  0  0  0  0  0  0  0  0
   11.5238    0.4801   -1.7242 C   0  0  0  0  0  0  0  0  0  0  0  0
   12.2387    0.6711   -0.4763 N   0  3  0  0  0  0  0  0  0  0  0  0
    9.9491   -5.8825    1.3571 C   0  0  1  0  0  0  0  0  0  0  0  0
    9.1562   -5.3247    0.2884 O   0  0  0  0  0  0  0  0  0  0  0  0
    9.8002   -5.4038   -1.0041 C   0  0  2  0  0  0  0  0  0  0  0  0
    9.9648   -6.7738   -1.4463 O   0  0  0  0  0  0  0  0  0  0  0  0
   11.1433   -4.6639   -0.9848 C   0  0  2  0  0  0  0  0  0  0  0  0
   11.8717   -4.9272   -2.2119 N   0  3  0  0  0  0  0  0  0  0  0  0
   12.0004   -5.0797    0.2056 C   0  0  1  0  0  0  0  0  0  0  0  0
   13.1169   -4.2107    0.3174 O   0  0  0  0  0  0  0  0  0  0  0  0
   11.2362   -5.0907    1.5206 C   0  0  2  0  0  0  0  0  0  0  0  0
   12.0315   -5.6625    2.5488 O   0  0  0  0  0  0  0  0  0  0  0  0
    9.1832   -5.7986    2.6743 C   0  0  0  0  0  0  0  0  0  0  0  0
    8.1646   -6.8303    2.7434 N   0  3  0  0  0  0  0  0  0  0  0  0
    7.8857   -9.4822   -3.9843 C   0  0  2  0  0  0  0  0  0  0  0  0
    7.0696   -8.6257   -3.0365 C   0  0  0  0  0  0  0  0  0  0  0  0
    7.9561   -8.0379   -1.9542 C   0  0  1  0  0  0  0  0  0  0  0  0
    9.0529   -7.1329   -2.5173 C   0  0  2  0  0  0  0  0  0  0  0  0
    9.8267   -7.8420   -3.6527 C   0  0  1  0  0  0  0  0  0  0  0  0
    8.9861   -8.6602   -4.6418 C   0  0  1  0  0  0  0  0  0  0  0  0
    7.0154  -10.0358   -5.0041 N   0  3  0  0  0  0  0  0  0  0  0  0
    7.1292   -7.3103   -1.0113 N   0  3  0  0  0  0  0  0  0  0  0  0
   10.6793   -6.9180   -4.3726 O   0  0  0  0  0  0  0  0  0  0  0  0
    9.8335   -9.5143   -5.4031 O   0  0  0  0  0  0  0  0  0  0  0  0
  1  2  1  0  0  0  0
  3  2  1  1  0  0  0
  3  4  1  0  0  0  0
  3  5  1  0  0  0  0
  4  8  1  0  0  0  0
  5  6  1  0  0  0  0
  5 12  1  6  0  0  0
  6  7  1  6  0  0  0
  6  8  1  0  0  0  0
  8 41  1  1  0  0  0
  9 10  1  0  0  0  0
  9 17  1  0  0  0  0
  9 19  1  6  0  0  0
 10 11  1  0  0  0  0
 11 12  1  6  0  0  0
 11 13  1  0  0  0  0
 13 14  1  6  0  0  0
 13 15  1  0  0  0  0
 15 16  1  1  0  0  0
 15 17  1  0  0  0  0
 17 18  1  6  0  0  0
 19 20  1  0  0  0  0
 21 22  1  0  0  0  0
 21 29  1  0  0  0  0
 21 31  1  1  0  0  0
 22 23  1  0  0  0  0
 23 24  1  1  0  0  0
 23 25  1  0  0  0  0
 25 26  1  6  0  0  0
 25 27  1  0  0  0  0
 27 28  1  1  0  0  0
 27 29  1  0  0  0  0
 29 30  1  1  0  0  0
 31 32  1  0  0  0  0
 33 34  1  0  0  0  0
 33 38  1  0  0  0  0
 33 39  1  6  0  0  0
 34 35  1  0  0  0  0
 35 36  1  0  0  0  0
 35 40  1  1  0  0  0
 36 24  1  1  0  0  0
 36 37  1  0  0  0  0
 37 38  1  0  0  0  0
 37 41  1  6  0  0  0
 38 42  1  1  0  0  0
M  CHG  6  14   1  20   1  26   1  32   1  39   1  40   1
M  END
>  <CHROM.1>
-179.06319728,163.69658080,-119.78451655,-175.90545288,174.31840466,-156.33721705
92.67498950,-112.14175081,58.30588454,-57.01573742,110.14257786,77.05474337
106.84963871,-105.95151613,107.41008360,-65.83257908,-171.61205552,72.41490381
177.80856051,96.39957677,-75.62012418,-56.74481637,9.65385411,-4.54499568
-2.17311974,0.30102522,-1.37924331,-0.96583421

>  <Name>


>  <RI>
0

>  <Rbt.Current_Directory>
/home/itssahil/PROJECTS/Mol_Feturizer/New_Systems/rnas/1qd3

>  <Rbt.Executable>
rbdock ($Id: //depot/dev/client3/rdock/2013.1/src/exe/rbdock.cxx#4 $)

>  <Rbt.Library>
libRbt.so (2013.1, Build901 2013/11/27)

>  <Rbt.Parameter_File>
/export/apps/rDock/src/rDock_2013.1_src/data/scripts/dock_solv.prm

>  <Rbt.Receptor>
prm/pocket_docking_5.prm

>  <SCORE>
-35.5467

>  <SCORE.INTER>
-20.1641

>  <SCORE.INTER.CONST>
1

>  <SCORE.INTER.POLAR>
-3.62142

>  <SCORE.INTER.ROT>
9

>  <SCORE.INTER.SOLV>
24.9744

>  <SCORE.INTER.VDW>
-19.2961

>  <SCORE.INTER.norm>
-0.480097

>  <SCORE.INTRA>
-15.3827

>  <SCORE.INTRA.DIHEDRAL>
1.30695

>  <SCORE.INTRA.DIHEDRAL.0>
40.6252

>  <SCORE.INTRA.POLAR>
-0.891291

>  <SCORE.INTRA.POLAR.0>
-1.20161

>  <SCORE.INTRA.REPUL>
-0.115675

>  <SCORE.INTRA.REPUL.0>
0.115675

>  <SCORE.INTRA.SOLV>
-4.10223

>  <SCORE.INTRA.SOLV.lig_0>
-154.895

>  <SCORE.INTRA.VDW>
-10.3763

>  <SCORE.INTRA.VDW.0>
2.2925

>  <SCORE.INTRA.norm>
-0.366254

>  <SCORE.RESTR>
0

>  <SCORE.RESTR.CAVITY>
0

>  <SCORE.RESTR.norm>
0

>  <SCORE.SYSTEM>
0

>  <SCORE.SYSTEM.CONST>
0

>  <SCORE.SYSTEM.DIHEDRAL>
0

>  <SCORE.SYSTEM.SOLV>
0

>  <SCORE.SYSTEM.norm>
0

>  <SCORE.heavy>
42

>  <SCORE.norm>
-0.846351

>  <RMSD>
8.003

$$$$

 OpenBabel11021811413D
libRbt.so/2013.1/901 2013/11/27
 42 45  0  0  0  0  0  0  0  0999 V2000
    7.6500  -10.0933   -6.9219 O   0  0  0  0  0  0  0  0  0  0  0  0
    6.5556   -9.1996   -6.7751 C   0  0  0  0  0  0  0  0  0  0  0  0
    6.3425   -8.8810   -5.2947 C   0  0  1  0  0  0  0  0  0  0  0  0
    7.5113   -8.2590   -4.7179 O   0  0  0  0  0  0  0  0  0  0  0  0
    5.1952   -7.9165   -5.0442 C   0  0  2  0  0  0  0  0  0  0  0  0
    5.5466   -7.4239   -3.6504 C   0  0  1  0  0  0  0  0  0  0  0  0
    5.1951   -8.4121   -2.6882 O   0  0  0  0  0  0  0  0  0  0  0  0
    7.0812   -7.2906   -3.7280 C   0  0  2  0  0  0  0  0  0  0  0  0
    3.4530  -10.0366   -8.4071 C   0  0  2  0  0  0  0  0  0  0  0  0
    3.9001   -9.9120   -7.0484 O   0  0  0  0  0  0  0  0  0  0  0  0
    3.4063   -8.7111   -6.4280 C   0  0  2  0  0  0  0  0  0  0  0  0
    3.9204   -8.5875   -5.0856 O   0  0  0  0  0  0  0  0  0  0  0  0
    1.8681   -8.7002   -6.4140 C   0  0  2  0  0  0  0  0  0  0  0  0
    1.3564   -9.5837   -5.3825 N   0  3  0  0  0  0  0  0  0  0  0  0
    1.2535   -9.0501   -7.7743 C   0  0  1  0  0  0  0  0  0  0  0  0
    1.3345   -7.9226   -8.6317 O   0  0  0  0  0  0  0  0  0  0  0  0
    1.9438  -10.2423   -8.4314 C   0  0  2  0  0  0  0  0  0  0  0  0
    1.6016  -11.4405   -7.7447 O   0  0  0  0  0  0  0  0  0  0  0  0
    4.1697  -11.1888   -9.1055 C   0  0  0  0  0  0  0  0  0  0  0  0
    4.0167  -12.4154   -8.3460 N   0  3  0  0  0  0  0  0  0  0  0  0
   11.7676   -6.4339   -1.9973 C   0  0  1  0  0  0  0  0  0  0  0  0
   10.6908   -6.7308   -2.9108 O   0  0  0  0  0  0  0  0  0  0  0  0
    9.4616   -7.1026   -2.2458 C   0  0  2  0  0  0  0  0  0  0  0  0
    8.9032   -6.0048   -1.4824 O   0  0  0  0  0  0  0  0  0  0  0  0
    9.6773   -8.3372   -1.3621 C   0  0  2  0  0  0  0  0  0  0  0  0
    8.5024   -8.5720   -0.5436 N   0  3  0  0  0  0  0  0  0  0  0  0
   10.8946   -8.1792   -0.4578 C   0  0  1  0  0  0  0  0  0  0  0  0
   11.1939   -9.4203    0.1621 O   0  0  0  0  0  0  0  0  0  0  0  0
   12.1262   -7.6723   -1.1924 C   0  0  2  0  0  0  0  0  0  0  0  0
   13.1616   -7.3692   -0.2690 O   0  0  0  0  0  0  0  0  0  0  0  0
   13.0107   -6.0110   -2.7749 C   0  0  0  0  0  0  0  0  0  0  0  0
   12.7707   -4.7734   -3.4943 N   0  3  0  0  0  0  0  0  0  0  0  0
    6.8346   -2.4687   -2.6296 C   0  0  2  0  0  0  0  0  0  0  0  0
    8.2450   -2.3259   -2.0926 C   0  0  0  0  0  0  0  0  0  0  0  0
    8.6698   -3.5916   -1.3712 C   0  0  1  0  0  0  0  0  0  0  0  0
    8.6789   -4.8170   -2.2862 C   0  0  2  0  0  0  0  0  0  0  0  0
    7.3426   -4.9446   -3.0535 C   0  0  1  0  0  0  0  0  0  0  0  0
    6.7423   -3.6412   -3.5968 C   0  0  1  0  0  0  0  0  0  0  0  0
    6.4512   -1.2455   -3.3084 N   0  3  0  0  0  0  0  0  0  0  0  0
    9.9798   -3.3831   -0.7856 N   0  3  0  0  0  0  0  0  0  0  0  0
    7.4296   -5.9296   -4.1124 O   0  0  0  0  0  0  0  0  0  0  0  0
    5.3836   -3.8534   -3.9657 O   0  0  0  0  0  0  0  0  0  0  0  0
  1  2  1  0  0  0  0
  3  2  1  6  0  0  0
  3  4  1  0  0  0  0
  3  5  1  0  0  0  0
  4  8  1  0  0  0  0
  5  6  1  0  0  0  0
  5 12  1  1  0  0  0
  6  7  1  1  0  0  0
  6  8  1  0  0  0  0
  8 41  1  6  0  0  0
  9 10  1  0  0  0  0
  9 17  1  0  0  0  0
  9 19  1  1  0  0  0
 10 11  1  0  0  0  0
 11 12  1  1  0  0  0
 11 13  1  0  0  0  0
 13 14  1  1  0  0  0
 13 15  1  0  0  0  0
 15 16  1  6  0  0  0
 15 17  1  0  0  0  0
 17 18  1  1  0  0  0
 19 20  1  0  0  0  0
 21 22  1  0  0  0  0
 21 29  1  0  0  0  0
 21 31  1  6  0  0  0
 22 23  1  0  0  0  0
 23 24  1  1  0  0  0
 23 25  1  0  0  0  0
 25 26  1  1  0  0  0
 25 27  1  0  0  0  0
 27 28  1  6  0  0  0
 27 29  1  0  0  0  0
 29 30  1  1  0  0  0
 31 32  1  0  0  0  0
 33 34  1  0  0  0  0
 33 38  1  0  0  0  0
 33 39  1  6  0  0  0
 34 35  1  0  0  0  0
 35 36  1  0  0  0  0
 35 40  1  6  0  0  0
 36 24  1  1  0  0  0
 36 37  1  0  0  0  0
 37 38  1  0  0  0  0
 37 41  1  6  0  0  0
 38 42  1  1  0  0  0
M  CHG  6  14   1  20   1  26   1  32   1  39   1  40   1
M  END
>  <CHROM.1>
-60.04446467,60.29775532,-84.72533044,62.00014349,-165.31180737,54.25811109
87.59802891,-31.74763851,61.21914342,-177.30800187,156.51722920,64.16859223
55.90284612,-156.34294625,-52.91375525,-65.95182599,56.01407773,74.01434854
-76.83216967,172.15530406,89.71903259,78.35416354,6.93317936,-7.35932105
-4.12258389,-2.56973504,-0.52008599,0.28979695

>  <Name>


>  <RI>
0

>  <Rbt.Current_Directory>
/home/itssahil/PROJECTS/Mol_Feturizer/New_Systems/rnas/1qd3

>  <Rbt.Executable>
rbdock ($Id: //depot/dev/client3/rdock/2013.1/src/exe/rbdock.cxx#4 $)

>  <Rbt.Library>
libRbt.so (2013.1, Build901 2013/11/27)

>  <Rbt.Parameter_File>
/export/apps/rDock/src/rDock_2013.1_src/data/scripts/dock_solv.prm

>  <Rbt.Receptor>
prm/pocket_docking_8.prm

>  <SCORE>
-37.6937

>  <SCORE.INTER>
-16.4562

>  <SCORE.INTER.CONST>
1

>  <SCORE.INTER.POLAR>
-3.98

>  <SCORE.INTER.ROT>
9

>  <SCORE.INTER.SOLV>
21.5825

>  <SCORE.INTER.VDW>
-14.4983

>  <SCORE.INTER.norm>
-0.391813

>  <SCORE.INTRA>
-21.2375

>  <SCORE.INTRA.DIHEDRAL>
-21.8369

>  <SCORE.INTRA.DIHEDRAL.0>
40.6252

>  <SCORE.INTRA.POLAR>
0.716989

>  <SCORE.INTRA.POLAR.0>
-1.20161

>  <SCORE.INTRA.REPUL>
-0.0915644

>  <SCORE.INTRA.REPUL.0>
0.115675

>  <SCORE.INTRA.SOLV>
-8.32563

>  <SCORE.INTRA.SOLV.lig_0>
-154.895

>  <SCORE.INTRA.VDW>
-8.13615

>  <SCORE.INTRA.VDW.0>
2.2925

>  <SCORE.INTRA.norm>
-0.505655

>  <SCORE.RESTR>
0

>  <SCORE.RESTR.CAVITY>
0

>  <SCORE.RESTR.norm>
0

>  <SCORE.SYSTEM>
0

>  <SCORE.SYSTEM.CONST>
0

>  <SCORE.SYSTEM.DIHEDRAL>
0

>  <SCORE.SYSTEM.SOLV>
0

>  <SCORE.SYSTEM.norm>
0

>  <SCORE.heavy>
42

>  <SCORE.norm>
-0.897468

>  <RMSD>
8.080

$$$$

 OpenBabel11021811413D
libRbt.so/2013.1/901 2013/11/27
 42 45  0  0  0  0  0  0  0  0999 V2000
   12.7930   -8.6102   -5.3429 O   0  0  0  0  0  0  0  0  0  0  0  0
   12.0224   -9.0202   -6.4635 C   0  0  0  0  0  0  0  0  0  0  0  0
   11.0833   -7.8901   -6.8873 C   0  0  1  0  0  0  0  0  0  0  0  0
   10.0902   -7.6244   -5.8729 O   0  0  0  0  0  0  0  0  0  0  0  0
   11.7968   -6.5691   -7.1229 C   0  0  2  0  0  0  0  0  0  0  0  0
   10.6297   -5.6016   -7.0193 C   0  0  1  0  0  0  0  0  0  0  0  0
    9.8670   -5.6377   -8.2205 O   0  0  0  0  0  0  0  0  0  0  0  0
    9.8093   -6.2018   -5.8594 C   0  0  2  0  0  0  0  0  0  0  0  0
   14.7779   -3.7613   -8.0226 C   0  0  2  0  0  0  0  0  0  0  0  0
   14.1716   -5.0462   -7.8153 O   0  0  0  0  0  0  0  0  0  0  0  0
   13.0497   -5.2588   -8.6911 C   0  0  2  0  0  0  0  0  0  0  0  0
   12.4291   -6.5322   -8.4174 O   0  0  0  0  0  0  0  0  0  0  0  0
   13.4886   -5.1840  -10.1636 C   0  0  2  0  0  0  0  0  0  0  0  0
   14.1770   -6.3993  -10.5580 N   0  3  0  0  0  0  0  0  0  0  0  0
   14.3514   -3.9543  -10.4705 C   0  0  1  0  0  0  0  0  0  0  0  0
   13.5196   -2.8098  -10.5758 O   0  0  0  0  0  0  0  0  0  0  0  0
   15.4173   -3.7150   -9.4045 C   0  0  2  0  0  0  0  0  0  0  0  0
   16.4361   -4.7030   -9.5061 O   0  0  0  0  0  0  0  0  0  0  0  0
   15.8101   -3.4722   -6.9364 C   0  0  0  0  0  0  0  0  0  0  0  0
   15.1552   -3.2544   -5.6602 N   0  3  0  0  0  0  0  0  0  0  0  0
   10.9869   -2.8803   -3.0395 C   0  0  1  0  0  0  0  0  0  0  0  0
    9.9801   -3.4594   -2.1832 O   0  0  0  0  0  0  0  0  0  0  0  0
    8.6387   -3.0197   -2.4978 C   0  0  2  0  0  0  0  0  0  0  0  0
    8.2095   -3.4763   -3.8043 O   0  0  0  0  0  0  0  0  0  0  0  0
    8.5287   -1.4945   -2.3815 C   0  0  2  0  0  0  0  0  0  0  0  0
    7.2486   -1.0492   -2.8999 N   0  3  0  0  0  0  0  0  0  0  0  0
    9.6486   -0.7879   -3.1373 C   0  0  1  0  0  0  0  0  0  0  0  0
    9.6478    0.5933   -2.8114 O   0  0  0  0  0  0  0  0  0  0  0  0
   11.0244   -1.3719   -2.8554 C   0  0  2  0  0  0  0  0  0  0  0  0
   11.9908   -0.8000   -3.7246 O   0  0  0  0  0  0  0  0  0  0  0  0
   12.3632   -3.4262   -2.6705 C   0  0  0  0  0  0  0  0  0  0  0  0
   12.5983   -3.3060   -1.2432 N   0  3  0  0  0  0  0  0  0  0  0  0
    7.9302   -7.3849   -2.1477 C   0  0  2  0  0  0  0  0  0  0  0  0
    6.6614   -6.7411   -2.6709 C   0  0  0  0  0  0  0  0  0  0  0  0
    6.8555   -5.2458   -2.8420 C   0  0  1  0  0  0  0  0  0  0  0  0
    7.9576   -4.9053   -3.8462 C   0  0  2  0  0  0  0  0  0  0  0  0
    9.2572   -5.6792   -3.5252 C   0  0  1  0  0  0  0  0  0  0  0  0
    9.0903   -7.1453   -3.1045 C   0  0  1  0  0  0  0  0  0  0  0  0
    7.7166   -8.8106   -1.9879 N   0  3  0  0  0  0  0  0  0  0  0  0
    5.5966   -4.6502   -3.2454 N   0  3  0  0  0  0  0  0  0  0  0  0
   10.2159   -5.5798   -4.6067 O   0  0  0  0  0  0  0  0  0  0  0  0
   10.2993   -7.6200   -2.5214 O   0  0  0  0  0  0  0  0  0  0  0  0
  1  2  1  0  0  0  0
  3  2  1  1  0  0  0
  3  4  1  0  0  0  0
  3  5  1  0  0  0  0
  4  8  1  0  0  0  0
  5  6  1  0  0  0  0
  5 12  1  6  0  0  0
  6  7  1  6  0  0  0
  6  8  1  0  0  0  0
  8 41  1  1  0  0  0
  9 10  1  0  0  0  0
  9 17  1  0  0  0  0
  9 19  1  1  0  0  0
 10 11  1  0  0  0  0
 11 12  1  1  0  0  0
 11 13  1  0  0  0  0
 13 14  1  1  0  0  0
 13 15  1  0  0  0  0
 15 16  1  1  0  0  0
 15 17  1  0  0  0  0
 17 18  1  1  0  0  0
 19 20  1  0  0  0  0
 21 22  1  0  0  0  0
 21 29  1  0  0  0  0
 21 31  1  1  0  0  0
 22 23  1  0  0  0  0
 23 24  1  6  0  0  0
 23 25  1  0  0  0  0
 25 26  1  6  0  0  0
 25 27  1  0  0  0  0
 27 28  1  1  0  0  0
 27 29  1  0  0  0  0
 29 30  1  6  0  0  0
 31 32  1  0  0  0  0
 33 34  1  0  0  0  0
 33 38  1  0  0  0  0
 33 39  1  6  0  0  0
 34 35  1  0  0  0  0
 35 36  1  0  0  0  0
 35 40  1  6  0  0  0
 36 24  1  1  0  0  0
 36 37  1  0  0  0  0
 37 38  1  0  0  0  0
 37 41  1  6  0  0  0
 38 42  1  1  0  0  0
M  CHG  6  14   1  20   1  26   1  32   1  39   1  40   1
M  END
>  <CHROM.1>
171.25243928,-65.95609005,176.79619125,179.60658314,-83.71882852,-69.55630620
67.26496287,-51.11235517,-58.07302122,-64.43135492,69.68637945,-50.53490619
71.05427376,60.09927881,170.33423321,-88.34859143,175.67322206,71.55864109
-175.05917076,-178.55511924,-64.91108484,-57.28597607,11.04991888,-4.74024005
-5.29548752,0.37127474,-0.75449159,-2.74524792

>  <Name>


>  <RI>
0

>  <Rbt.Current_Directory>
/home/itssahil/PROJECTS/Mol_Feturizer/New_Systems/rnas/1qd3

>  <Rbt.Executable>
rbdock ($Id: //depot/dev/client3/rdock/2013.1/src/exe/rbdock.cxx#4 $)

>  <Rbt.Library>
libRbt.so (2013.1, Build901 2013/11/27)

>  <Rbt.Parameter_File>
/export/apps/rDock/src/rDock_2013.1_src/data/scripts/dock_solv.prm

>  <Rbt.Receptor>
prm/pocket_docking_8.prm

>  <SCORE>
-46.2088

>  <SCORE.INTER>
-22.7617

>  <SCORE.INTER.CONST>
1

>  <SCORE.INTER.POLAR>
-5.94882

>  <SCORE.INTER.ROT>
9

>  <SCORE.INTER.SOLV>
18.7367

>  <SCORE.INTER.VDW>
-11.1907

>  <SCORE.INTER.norm>
-0.541946

>  <SCORE.INTRA>
-23.447

>  <SCORE.INTRA.DIHEDRAL>
-29.0031

>  <SCORE.INTRA.DIHEDRAL.0>
40.6252

>  <SCORE.INTRA.POLAR>
1.1748

>  <SCORE.INTRA.POLAR.0>
-1.20161

>  <SCORE.INTRA.REPUL>
-0.0828826

>  <SCORE.INTRA.REPUL.0>
0.115675

>  <SCORE.INTRA.SOLV>
-9.99957

>  <SCORE.INTRA.SOLV.lig_0>
-154.895

>  <SCORE.INTRA.VDW>
-7.52563

>  <SCORE.INTRA.VDW.0>
2.2925

>  <SCORE.INTRA.norm>
-0.558263

>  <SCORE.RESTR>
0

>  <SCORE.RESTR.CAVITY>
0

>  <SCORE.RESTR.norm>
0

>  <SCORE.SYSTEM>
0

>  <SCORE.SYSTEM.CONST>
0

>  <SCORE.SYSTEM.DIHEDRAL>
0

>  <SCORE.SYSTEM.SOLV>
0

>  <SCORE.SYSTEM.norm>
0

>  <SCORE.heavy>
42

>  <SCORE.norm>
-1.10021

>  <RMSD>
8.105

$$$$

 OpenBabel11021811413D
libRbt.so/2013.1/901 2013/11/27
 42 45  0  0  0  0  0  0  0  0999 V2000
   10.4638  -10.4686   -6.9321 O   0  0  0  0  0  0  0  0  0  0  0  0
    9.2264   -9.9112   -6.5129 C   0  0  0  0  0  0  0  0  0  0  0  0
    9.1112   -8.4710   -7.0140 C   0  0  1  0  0  0  0  0  0  0  0  0
    8.2689   -7.6796   -6.1481 O   0  0  0  0  0  0  0  0  0  0  0  0
   10.4442   -7.7436   -7.0711 C   0  0  2  0  0  0  0  0  0  0  0  0
    9.9712   -6.2998   -7.0943 C   0  0  1  0  0  0  0  0  0  0  0  0
    9.5027   -5.9681   -8.3967 O   0  0  0  0  0  0  0  0  0  0  0  0
    8.7896   -6.3269   -6.1035 C   0  0  2  0  0  0  0  0  0  0  0  0
   14.4347   -6.6527   -7.3928 C   0  0  2  0  0  0  0  0  0  0  0  0
   13.2654   -7.4799   -7.2929 O   0  0  0  0  0  0  0  0  0  0  0  0
   12.3800   -7.2968   -8.4125 C   0  0  2  0  0  0  0  0  0  0  0  0
   11.1904   -8.0972   -8.2523 O   0  0  0  0  0  0  0  0  0  0  0  0
   13.0900   -7.6528   -9.7299 C   0  0  2  0  0  0  0  0  0  0  0  0
   13.1857   -9.0921   -9.8905 N   0  3  0  0  0  0  0  0  0  0  0  0
   14.4734   -7.0046   -9.8598 C   0  0  1  0  0  0  0  0  0  0  0  0
   14.3223   -5.6396  -10.2157 O   0  0  0  0  0  0  0  0  0  0  0  0
   15.2847   -7.1100   -8.5713 C   0  0  2  0  0  0  0  0  0  0  0  0
   15.7121   -8.4529   -8.3751 O   0  0  0  0  0  0  0  0  0  0  0  0
   15.2366   -6.6960   -6.0952 C   0  0  0  0  0  0  0  0  0  0  0  0
   16.0071   -5.4772   -5.9349 N   0  3  0  0  0  0  0  0  0  0  0  0
   10.8139   -2.9723   -3.5731 C   0  0  1  0  0  0  0  0  0  0  0  0
    9.8261   -3.5712   -2.7084 O   0  0  0  0  0  0  0  0  0  0  0  0
    8.5008   -3.0199   -2.8849 C   0  0  2  0  0  0  0  0  0  0  0  0
    7.9594   -3.3154   -4.1961 O   0  0  0  0  0  0  0  0  0  0  0  0
    8.5030   -1.5103   -2.6150 C   0  0  2  0  0  0  0  0  0  0  0  0
    7.2261   -0.9368   -2.9975 N   0  3  0  0  0  0  0  0  0  0  0  0
    9.6184   -0.8020   -3.3757 C   0  0  1  0  0  0  0  0  0  0  0  0
    9.7329    0.5369   -2.9191 O   0  0  0  0  0  0  0  0  0  0  0  0
   10.9661   -1.4953   -3.2479 C   0  0  2  0  0  0  0  0  0  0  0  0
   11.9125   -0.8998   -4.1233 O   0  0  0  0  0  0  0  0  0  0  0  0
   12.1703   -3.6367   -3.3553 C   0  0  0  0  0  0  0  0  0  0  0  0
   12.4250   -3.8334   -1.9400 N   0  3  0  0  0  0  0  0  0  0  0  0
    6.3151   -6.8692   -2.5329 C   0  0  2  0  0  0  0  0  0  0  0  0
    5.3663   -5.8836   -3.1859 C   0  0  0  0  0  0  0  0  0  0  0  0
    6.0360   -4.5322   -3.3532 C   0  0  1  0  0  0  0  0  0  0  0  0
    7.2752   -4.5948   -4.2472 C   0  0  2  0  0  0  0  0  0  0  0  0
    8.2304   -5.7218   -3.7909 C   0  0  1  0  0  0  0  0  0  0  0  0
    7.5731   -7.0437   -3.3729 C   0  0  1  0  0  0  0  0  0  0  0  0
    5.6499   -8.1490   -2.3795 N   0  3  0  0  0  0  0  0  0  0  0  0
    5.0705   -3.5904   -3.8854 N   0  3  0  0  0  0  0  0  0  0  0  0
    9.2654   -5.9716   -4.7735 O   0  0  0  0  0  0  0  0  0  0  0  0
    8.5133   -7.8477   -2.6681 O   0  0  0  0  0  0  0  0  0  0  0  0
  1  2  1  0  0  0  0
  3  2  1  1  0  0  0
  3  4  1  0  0  0  0
  3  5  1  0  0  0  0
  4  8  1  0  0  0  0
  5  6  1  0  0  0  0
  5 12  1  6  0  0  0
  6  7  1  6  0  0  0
  6  8  1  0  0  0  0
  8 41  1  1  0  0  0
  9 10  1  0  0  0  0
  9 17  1  0  0  0  0
  9 19  1  1  0  0  0
 10 11  1  0  0  0  0
 11 12  1  1  0  0  0
 11 13  1  0  0  0  0
 13 14  1  1  0  0  0
 13 15  1  0  0  0  0
 15 16  1  1  0  0  0
 15 17  1  0  0  0  0
 17 18  1  1  0  0  0
 19 20  1  0  0  0  0
 21 22  1  0  0  0  0
 21 29  1  0  0  0  0
 21 31  1  1  0  0  0
 22 23  1  0  0  0  0
 23 24  1  6  0  0  0
 23 25  1  0  0  0  0
 25 26  1  6  0  0  0
 25 27  1  0  0  0  0
 27 28  1  1  0  0  0
 27 29  1  0  0  0  0
 29 30  1  6  0  0  0
 31 32  1  0  0  0  0
 33 34  1  0  0  0  0
 33 38  1  0  0  0  0
 33 39  1  6  0  0  0
 34 35  1  0  0  0  0
 35 36  1  0  0  0  0
 35 40  1  6  0  0  0
 36 24  1  1  0  0  0
 36 37  1  0  0  0  0
 37 38  1  0  0  0  0
 37 41  1  6  0  0  0
 38 42  1  1  0  0  0
M  CHG  6  14   1  20   1  26   1  32   1  39   1  40   1
M  END
>  <CHROM.1>
-39.57194418,-152.43013609,172.75734980,-55.49226981,-73.77067022,-153.63520332
60.85568115,-35.46321109,-173.43954567,49.59641903,-55.00071046,-43.09045738
86.97665709,65.55511219,55.87450712,-76.64201337,177.71331138,-58.94442874
-67.12253368,166.74160272,-57.60079727,-55.23975799,10.34216847,-5.59519220
-5.41565408,0.78389729,-0.42476672,-2.63402262

>  <Name>


>  <RI>
0

>  <Rbt.Current_Directory>
/home/itssahil/PROJECTS/Mol_Feturizer/New_Systems/rnas/1qd3

>  <Rbt.Executable>
rbdock ($Id: //depot/dev/client3/rdock/2013.1/src/exe/rbdock.cxx#4 $)

>  <Rbt.Library>
libRbt.so (2013.1, Build901 2013/11/27)

>  <Rbt.Parameter_File>
/export/apps/rDock/src/rDock_2013.1_src/data/scripts/dock_solv.prm

>  <Rbt.Receptor>
prm/pocket_docking_6.prm

>  <SCORE>
-43.302

>  <SCORE.INTER>
-23.7065

>  <SCORE.INTER.CONST>
1

>  <SCORE.INTER.POLAR>
-5.39049

>  <SCORE.INTER.ROT>
9

>  <SCORE.INTER.SOLV>
24.9536

>  <SCORE.INTER.VDW>
-15.7539

>  <SCORE.INTER.norm>
-0.564441

>  <SCORE.INTRA>
-19.5957

>  <SCORE.INTRA.DIHEDRAL>
-22.7403

>  <SCORE.INTRA.DIHEDRAL.0>
40.6252

>  <SCORE.INTRA.POLAR>
0.818088

>  <SCORE.INTRA.POLAR.0>
-1.20161

>  <SCORE.INTRA.REPUL>
-0.115675

>  <SCORE.INTRA.REPUL.0>
0.115675

>  <SCORE.INTRA.SOLV>
-8.08996

>  <SCORE.INTRA.SOLV.lig_0>
-154.895

>  <SCORE.INTRA.VDW>
-6.38365

>  <SCORE.INTRA.VDW.0>
2.2925

>  <SCORE.INTRA.norm>
-0.466563

>  <SCORE.RESTR>
0.000217581

>  <SCORE.RESTR.CAVITY>
0.000217581

>  <SCORE.RESTR.norm>
5.18051e-06

>  <SCORE.SYSTEM>
0

>  <SCORE.SYSTEM.CONST>
0

>  <SCORE.SYSTEM.DIHEDRAL>
0

>  <SCORE.SYSTEM.SOLV>
0

>  <SCORE.SYSTEM.norm>
0

>  <SCORE.heavy>
42

>  <SCORE.norm>
-1.031

>  <RMSD>
8.111

$$$$

 OpenBabel11021811413D
libRbt.so/2013.1/901 2013/11/27
 42 45  0  0  0  0  0  0  0  0999 V2000
    4.3673   -6.1388   -6.2017 O   0  0  0  0  0  0  0  0  0  0  0  0
    5.4241   -7.0529   -5.9461 C   0  0  0  0  0  0  0  0  0  0  0  0
    6.7429   -6.4775   -6.4639 C   0  0  1  0  0  0  0  0  0  0  0  0
    7.1878   -5.3701   -5.6507 O   0  0  0  0  0  0  0  0  0  0  0  0
    7.8840   -7.4812   -6.4549 C   0  0  2  0  0  0  0  0  0  0  0  0
    9.0782   -6.5435   -6.5147 C   0  0  1  0  0  0  0  0  0  0  0  0
    9.2436   -6.0597   -7.8430 O   0  0  0  0  0  0  0  0  0  0  0  0
    8.6364   -5.3920   -5.5887 C   0  0  2  0  0  0  0  0  0  0  0  0
    4.3365   -8.7432   -8.6242 C   0  0  2  0  0  0  0  0  0  0  0  0
    5.6495   -8.1724   -8.5161 O   0  0  0  0  0  0  0  0  0  0  0  0
    6.5298   -8.9945   -7.7287 C   0  0  2  0  0  0  0  0  0  0  0  0
    7.8208   -8.3651   -7.5914 O   0  0  0  0  0  0  0  0  0  0  0  0
    6.6799  -10.3891   -8.3603 C   0  0  2  0  0  0  0  0  0  0  0  0
    7.5630  -10.3407   -9.5111 N   0  3  0  0  0  0  0  0  0  0  0  0
    5.3366  -11.0230   -8.7403 C   0  0  1  0  0  0  0  0  0  0  0  0
    4.7083  -11.5299   -7.5736 O   0  0  0  0  0  0  0  0  0  0  0  0
    4.4049  -10.0323   -9.4330 C   0  0  2  0  0  0  0  0  0  0  0  0
    4.8756   -9.7611  -10.7481 O   0  0  0  0  0  0  0  0  0  0  0  0
    3.3697   -7.7510   -9.2642 C   0  0  0  0  0  0  0  0  0  0  0  0
    3.5938   -6.4163   -8.7414 N   0  3  0  0  0  0  0  0  0  0  0  0
    8.3357   -8.4029   -0.8443 C   0  0  1  0  0  0  0  0  0  0  0  0
    8.4063   -7.9396   -2.2090 O   0  0  0  0  0  0  0  0  0  0  0  0
    7.2926   -7.0978   -2.5864 C   0  0  2  0  0  0  0  0  0  0  0  0
    7.2832   -5.8479   -1.8534 O   0  0  0  0  0  0  0  0  0  0  0  0
    5.9661   -7.8482   -2.4167 C   0  0  2  0  0  0  0  0  0  0  0  0
    4.8534   -6.9338   -2.5941 N   0  3  0  0  0  0  0  0  0  0  0  0
    5.8604   -8.5060   -1.0454 C   0  0  1  0  0  0  0  0  0  0  0  0
    4.7393   -9.3758   -1.0175 O   0  0  0  0  0  0  0  0  0  0  0  0
    7.1094   -9.2803   -0.6533 C   0  0  2  0  0  0  0  0  0  0  0  0
    7.0220   -9.7062    0.6986 O   0  0  0  0  0  0  0  0  0  0  0  0
    9.5642   -9.2459   -0.5147 C   0  0  0  0  0  0  0  0  0  0  0  0
   10.7776   -8.4607   -0.6488 N   0  3  0  0  0  0  0  0  0  0  0  0
    9.8688   -2.4909   -2.2341 C   0  0  2  0  0  0  0  0  0  0  0  0
    9.7973   -3.1854   -0.8885 C   0  0  0  0  0  0  0  0  0  0  0  0
    8.5674   -4.0710   -0.8121 C   0  0  1  0  0  0  0  0  0  0  0  0
    8.5705   -5.1769   -1.8685 C   0  0  2  0  0  0  0  0  0  0  0  0
    8.8462   -4.5976   -3.2753 C   0  0  1  0  0  0  0  0  0  0  0  0
    9.9248   -3.5098   -3.3643 C   0  0  1  0  0  0  0  0  0  0  0  0
   11.0482   -1.6477   -2.2791 N   0  3  0  0  0  0  0  0  0  0  0  0
    8.4771   -4.6382    0.5192 N   0  3  0  0  0  0  0  0  0  0  0  0
    9.1184   -5.6456   -4.2378 O   0  0  0  0  0  0  0  0  0  0  0  0
    9.8330   -2.8416   -4.6182 O   0  0  0  0  0  0  0  0  0  0  0  0
  1  2  1  0  0  0  0
  3  2  1  1  0  0  0
  3  4  1  0  0  0  0
  3  5  1  0  0  0  0
  4  8  1  0  0  0  0
  5  6  1  0  0  0  0
  5 12  1  6  0  0  0
  6  7  1  6  0  0  0
  6  8  1  0  0  0  0
  8 41  1  1  0  0  0
  9 10  1  0  0  0  0
  9 17  1  0  0  0  0
  9 19  1  6  0  0  0
 10 11  1  0  0  0  0
 11 12  1  6  0  0  0
 11 13  1  0  0  0  0
 13 14  1  6  0  0  0
 13 15  1  0  0  0  0
 15 16  1  1  0  0  0
 15 17  1  0  0  0  0
 17 18  1  6  0  0  0
 19 20  1  0  0  0  0
 21 22  1  0  0  0  0
 21 29  1  0  0  0  0
 21 31  1  6  0  0  0
 22 23  1  0  0  0  0
 23 24  1  1  0  0  0
 23 25  1  0  0  0  0
 25 26  1  1  0  0  0
 25 27  1  0  0  0  0
 27 28  1  6  0  0  0
 27 29  1  0  0  0  0
 29 30  1  1  0  0  0
 31 32  1  0  0  0  0
 33 34  1  0  0  0  0
 33 38  1  0  0  0  0
 33 39  1  1  0  0  0
 34 35  1  0  0  0  0
 35 36  1  0  0  0  0
 35 40  1  1  0  0  0
 36 24  1  6  0  0  0
 36 37  1  0  0  0  0
 37 38  1  0  0  0  0
 37 41  1  6  0  0  0
 38 42  1  6  0  0  0
M  CHG  6  14   1  20   1  26   1  32   1  39   1  40   1
M  END
>  <CHROM.1>
-157.47630617,70.95354541,-52.38325780,178.35172257,-66.83848315,-41.46004050
88.29022801,107.58572640,-57.54771746,52.94323038,-52.84361324,61.20816990
49.36831710,-166.36054161,-169.05342799,-64.86822348,-63.17480313,-153.21062200
-167.58260423,168.19941229,145.51869669,-44.97438561,7.24620387,-7.10292846
-4.63277566,-2.43680960,1.01793234,1.88942486

>  <Name>


>  <RI>
0

>  <Rbt.Current_Directory>
/home/itssahil/PROJECTS/Mol_Feturizer/New_Systems/rnas/1qd3

>  <Rbt.Executable>
rbdock ($Id: //depot/dev/client3/rdock/2013.1/src/exe/rbdock.cxx#4 $)

>  <Rbt.Library>
libRbt.so (2013.1, Build901 2013/11/27)

>  <Rbt.Parameter_File>
/export/apps/rDock/src/rDock_2013.1_src/data/scripts/dock_solv.prm

>  <Rbt.Receptor>
prm/pocket_docking_7.prm

>  <SCORE>
-49.9176

>  <SCORE.INTER>
-29.5064

>  <SCORE.INTER.CONST>
1

>  <SCORE.INTER.POLAR>
-7.132

>  <SCORE.INTER.ROT>
9

>  <SCORE.INTER.SOLV>
26.4802

>  <SCORE.INTER.VDW>
-14.3244

>  <SCORE.INTER.norm>
-0.702534

>  <SCORE.INTRA>
-20.4112

>  <SCORE.INTRA.DIHEDRAL>
-18.9711

>  <SCORE.INTRA.DIHEDRAL.0>
40.6252

>  <SCORE.INTRA.POLAR>
0.0607021

>  <SCORE.INTRA.POLAR.0>
-1.20161

>  <SCORE.INTRA.REPUL>
-0.111671

>  <SCORE.INTRA.REPUL.0>
0.115675

>  <SCORE.INTRA.SOLV>
-7.34146

>  <SCORE.INTRA.SOLV.lig_0>
-154.895

>  <SCORE.INTRA.VDW>
-6.90294

>  <SCORE.INTRA.VDW.0>
2.2925

>  <SCORE.INTRA.norm>
-0.485981

>  <SCORE.RESTR>
0

>  <SCORE.RESTR.CAVITY>
0

>  <SCORE.RESTR.norm>
0

>  <SCORE.SYSTEM>
0

>  <SCORE.SYSTEM.CONST>
0

>  <SCORE.SYSTEM.DIHEDRAL>
0

>  <SCORE.SYSTEM.SOLV>
0

>  <SCORE.SYSTEM.norm>
0

>  <SCORE.heavy>
42

>  <SCORE.norm>
-1.18851

>  <RMSD>
8.140

$$$$

 OpenBabel11021811413D
libRbt.so/2013.1/901 2013/11/27
 42 45  0  0  0  0  0  0  0  0999 V2000
    5.2480  -11.7856   -3.0907 O   0  0  0  0  0  0  0  0  0  0  0  0
    4.0584  -11.0950   -2.7365 C   0  0  0  0  0  0  0  0  0  0  0  0
    4.3639   -9.6112   -2.5275 C   0  0  1  0  0  0  0  0  0  0  0  0
    5.2625   -9.4118   -1.4147 O   0  0  0  0  0  0  0  0  0  0  0  0
    5.0371   -8.9595   -3.7240 C   0  0  2  0  0  0  0  0  0  0  0  0
    5.6424   -7.7308   -3.0660 C   0  0  1  0  0  0  0  0  0  0  0  0
    4.6298   -6.7550   -2.8462 O   0  0  0  0  0  0  0  0  0  0  0  0
    6.1323   -8.2912   -1.7153 C   0  0  2  0  0  0  0  0  0  0  0  0
    5.4314   -9.9609   -7.8695 C   0  0  2  0  0  0  0  0  0  0  0  0
    4.7948   -9.9394   -6.5828 O   0  0  0  0  0  0  0  0  0  0  0  0
    4.6722   -8.6019   -6.0660 C   0  0  2  0  0  0  0  0  0  0  0  0
    4.0827   -8.6209   -4.7493 O   0  0  0  0  0  0  0  0  0  0  0  0
    3.8333   -7.7283   -7.0144 C   0  0  2  0  0  0  0  0  0  0  0  0
    2.4208   -8.0347   -6.8823 N   0  3  0  0  0  0  0  0  0  0  0  0
    4.2726   -7.8404   -8.4790 C   0  0  1  0  0  0  0  0  0  0  0  0
    5.4477   -7.0708   -8.6784 O   0  0  0  0  0  0  0  0  0  0  0  0
    4.5313   -9.2855   -8.8963 C   0  0  2  0  0  0  0  0  0  0  0  0
    3.2985   -9.9878   -9.0042 O   0  0  0  0  0  0  0  0  0  0  0  0
    5.7522  -11.3933   -8.2869 C   0  0  0  0  0  0  0  0  0  0  0  0
    6.6903  -11.9938   -7.3573 N   0  3  0  0  0  0  0  0  0  0  0  0
    7.4694   -3.9218   -2.5019 C   0  0  1  0  0  0  0  0  0  0  0  0
    7.1879   -5.3264   -2.6751 O   0  0  0  0  0  0  0  0  0  0  0  0
    8.3766   -6.1496   -2.7028 C   0  0  2  0  0  0  0  0  0  0  0  0
    9.0707   -6.1450   -1.4308 O   0  0  0  0  0  0  0  0  0  0  0  0
    9.3074   -5.7166   -3.8420 C   0  0  2  0  0  0  0  0  0  0  0  0
   10.5807   -6.4036   -3.7297 N   0  3  0  0  0  0  0  0  0  0  0  0
    9.5479   -4.2111   -3.8339 C   0  0  1  0  0  0  0  0  0  0  0  0
   10.2119   -3.8266   -5.0279 O   0  0  0  0  0  0  0  0  0  0  0  0
    8.2701   -3.4000   -3.6838 C   0  0  2  0  0  0  0  0  0  0  0  0
    8.5767   -2.0264   -3.4948 O   0  0  0  0  0  0  0  0  0  0  0  0
    6.1654   -3.1315   -2.4408 C   0  0  0  0  0  0  0  0  0  0  0  0
    5.1032   -3.8380   -3.1331 N   0  3  0  0  0  0  0  0  0  0  0  0
    8.7018   -8.9103    1.7811 C   0  0  2  0  0  0  0  0  0  0  0  0
    8.4510   -7.4438    2.0719 C   0  0  0  0  0  0  0  0  0  0  0  0
    9.0067   -6.5781    0.9564 C   0  0  1  0  0  0  0  0  0  0  0  0
    8.3535   -6.8674   -0.3957 C   0  0  2  0  0  0  0  0  0  0  0  0
    8.3676   -8.3824   -0.7043 C   0  0  1  0  0  0  0  0  0  0  0  0
    8.0477   -9.3190    0.4682 C   0  0  1  0  0  0  0  0  0  0  0  0
    8.1670   -9.7146    2.8633 N   0  3  0  0  0  0  0  0  0  0  0  0
    8.8400   -5.1831    1.3150 N   0  3  0  0  0  0  0  0  0  0  0  0
    7.5244   -8.7018   -1.8383 O   0  0  0  0  0  0  0  0  0  0  0  0
    8.4257  -10.6513    0.1378 O   0  0  0  0  0  0  0  0  0  0  0  0
  1  2  1  0  0  0  0
  3  2  1  6  0  0  0
  3  4  1  0  0  0  0
  3  5  1  0  0  0  0
  4  8  1  0  0  0  0
  5  6  1  0  0  0  0
  5 12  1  6  0  0  0
  6  7  1  1  0  0  0
  6  8  1  0  0  0  0
  8 41  1  6  0  0  0
  9 10  1  0  0  0  0
  9 17  1  0  0  0  0
  9 19  1  6  0  0  0
 10 11  1  0  0  0  0
 11 12  1  1  0  0  0
 11 13  1  0  0  0  0
 13 14  1  6  0  0  0
 13 15  1  0  0  0  0
 15 16  1  1  0  0  0
 15 17  1  0  0  0  0
 17 18  1  1  0  0  0
 19 20  1  0  0  0  0
 21 22  1  0  0  0  0
 21 29  1  0  0  0  0
 21 31  1  6  0  0  0
 22 23  1  0  0  0  0
 23 24  1  1  0  0  0
 23 25  1  0  0  0  0
 25 26  1  1  0  0  0
 25 27  1  0  0  0  0
 27 28  1  6  0  0  0
 27 29  1  0  0  0  0
 29 30  1  1  0  0  0
 31 32  1  0  0  0  0
 33 34  1  0  0  0  0
 33 38  1  0  0  0  0
 33 39  1  1  0  0  0
 34 35  1  0  0  0  0
 35 36  1  0  0  0  0
 35 40  1  1  0  0  0
 36 24  1  6  0  0  0
 36 37  1  0  0  0  0
 37 38  1  0  0  0  0
 37 41  1  6  0  0  0
 38 42  1  6  0  0  0
M  CHG  6  14   1  20   1  26   1  32   1  39   1  40   1
M  END
>  <CHROM.1>
-173.70979528,-63.95613452,-152.84693971,-53.44399615,-103.63220530,-62.54115945
79.81749689,-75.87767793,-80.41241162,-69.24849302,164.90391303,-25.20677543
70.73862743,-168.86085748,177.02036023,66.76640545,60.10330320,-27.15985062
-68.77696153,-170.07563008,-56.92403612,64.47103682,6.64339920,-7.62814908
-3.41873336,2.78122634,-1.04699615,-0.79853572

>  <Name>


>  <RI>
0

>  <Rbt.Current_Directory>
/home/itssahil/PROJECTS/Mol_Feturizer/New_Systems/rnas/1qd3

>  <Rbt.Executable>
rbdock ($Id: //depot/dev/client3/rdock/2013.1/src/exe/rbdock.cxx#4 $)

>  <Rbt.Library>
libRbt.so (2013.1, Build901 2013/11/27)

>  <Rbt.Parameter_File>
/export/apps/rDock/src/rDock_2013.1_src/data/scripts/dock_solv.prm

>  <Rbt.Receptor>
prm/pocket_docking_6.prm

>  <SCORE>
-54.2059

>  <SCORE.INTER>
-30.1186

>  <SCORE.INTER.CONST>
1

>  <SCORE.INTER.POLAR>
-6.28369

>  <SCORE.INTER.ROT>
9

>  <SCORE.INTER.SOLV>
21.6391

>  <SCORE.INTER.VDW>
-15.9464

>  <SCORE.INTER.norm>
-0.71711

>  <SCORE.INTRA>
-24.0873

>  <SCORE.INTRA.DIHEDRAL>
-17.5608

>  <SCORE.INTRA.DIHEDRAL.0>
40.6252

>  <SCORE.INTRA.POLAR>
-0.309343

>  <SCORE.INTRA.POLAR.0>
-1.20161

>  <SCORE.INTRA.REPUL>
-0.115675

>  <SCORE.INTRA.REPUL.0>
0.115675

>  <SCORE.INTRA.SOLV>
-9.579

>  <SCORE.INTRA.SOLV.lig_0>
-154.895

>  <SCORE.INTRA.VDW>
-8.88726

>  <SCORE.INTRA.VDW.0>
2.2925

>  <SCORE.INTRA.norm>
-0.573507

>  <SCORE.RESTR>
0

>  <SCORE.RESTR.CAVITY>
0

>  <SCORE.RESTR.norm>
0

>  <SCORE.SYSTEM>
0

>  <SCORE.SYSTEM.CONST>
0

>  <SCORE.SYSTEM.DIHEDRAL>
0

>  <SCORE.SYSTEM.SOLV>
0

>  <SCORE.SYSTEM.norm>
0

>  <SCORE.heavy>
42

>  <SCORE.norm>
-1.29062

>  <RMSD>
8.146

$$$$

 OpenBabel11021811413D
libRbt.so/2013.1/901 2013/11/27
 42 45  0  0  0  0  0  0  0  0999 V2000
    6.8484   -8.1050   -3.3996 O   0  0  0  0  0  0  0  0  0  0  0  0
    5.5864   -8.2910   -4.0244 C   0  0  0  0  0  0  0  0  0  0  0  0
    5.2829   -7.1056   -4.9415 C   0  0  1  0  0  0  0  0  0  0  0  0
    5.4244   -5.8504   -4.2413 O   0  0  0  0  0  0  0  0  0  0  0  0
    6.2125   -7.0168   -6.1404 C   0  0  2  0  0  0  0  0  0  0  0  0
    6.0172   -5.5625   -6.5353 C   0  0  1  0  0  0  0  0  0  0  0  0
    4.7811   -5.4134   -7.2251 O   0  0  0  0  0  0  0  0  0  0  0  0
    5.9408   -4.8590   -5.1650 C   0  0  2  0  0  0  0  0  0  0  0  0
    8.1290   -9.8540   -9.2594 C   0  0  2  0  0  0  0  0  0  0  0  0
    7.0440   -9.5786   -8.3603 O   0  0  0  0  0  0  0  0  0  0  0  0
    6.8769   -8.1671   -8.1358 C   0  0  2  0  0  0  0  0  0  0  0  0
    5.8185   -7.9284   -7.1848 O   0  0  0  0  0  0  0  0  0  0  0  0
    6.5815   -7.4383   -9.4579 C   0  0  2  0  0  0  0  0  0  0  0  0
    5.2066   -7.6549   -9.8691 N   0  3  0  0  0  0  0  0  0  0  0  0
    7.5465   -7.8254  -10.5847 C   0  0  1  0  0  0  0  0  0  0  0  0
    8.7827   -7.1548  -10.3972 O   0  0  0  0  0  0  0  0  0  0  0  0
    7.7866   -9.3313  -10.6486 C   0  0  2  0  0  0  0  0  0  0  0  0
    6.6264   -9.9873  -11.1466 O   0  0  0  0  0  0  0  0  0  0  0  0
    8.4273  -11.3501   -9.3001 C   0  0  0  0  0  0  0  0  0  0  0  0
    7.2027  -12.1059   -9.4847 N   0  3  0  0  0  0  0  0  0  0  0  0
   11.6513   -4.6122   -5.0520 C   0  0  1  0  0  0  0  0  0  0  0  0
   10.2561   -4.8733   -5.3118 O   0  0  0  0  0  0  0  0  0  0  0  0
    9.6494   -5.7600   -4.3438 C   0  0  2  0  0  0  0  0  0  0  0  0
    9.5950   -5.1670   -3.0227 O   0  0  0  0  0  0  0  0  0  0  0  0
   10.3786   -7.1087   -4.3147 C   0  0  2  0  0  0  0  0  0  0  0  0
    9.8999   -7.9069   -3.2015 N   0  3  0  0  0  0  0  0  0  0  0  0
   11.8881   -6.9324   -4.1923 C   0  0  1  0  0  0  0  0  0  0  0  0
   12.5337   -8.1781   -4.4061 O   0  0  0  0  0  0  0  0  0  0  0  0
   12.4519   -5.9000   -5.1565 C   0  0  2  0  0  0  0  0  0  0  0  0
   13.8188   -5.6477   -4.8656 O   0  0  0  0  0  0  0  0  0  0  0  0
   12.2026   -3.6387   -6.0898 C   0  0  0  0  0  0  0  0  0  0  0  0
   13.4405   -3.0394   -5.6260 N   0  3  0  0  0  0  0  0  0  0  0  0
    6.7518   -2.3276   -1.6251 C   0  0  2  0  0  0  0  0  0  0  0  0
    8.2231   -2.0061   -1.4521 C   0  0  0  0  0  0  0  0  0  0  0  0
    9.0642   -3.2578   -1.6214 C   0  0  1  0  0  0  0  0  0  0  0  0
    8.9197   -3.8820   -3.0101 C   0  0  2  0  0  0  0  0  0  0  0  0
    7.4301   -4.0659   -3.3818 C   0  0  1  0  0  0  0  0  0  0  0  0
    6.4872   -2.9157   -3.0045 C   0  0  1  0  0  0  0  0  0  0  0  0
    5.9707   -1.1175   -1.4531 N   0  3  0  0  0  0  0  0  0  0  0  0
   10.4512   -2.9338   -1.3501 N   0  3  0  0  0  0  0  0  0  0  0  0
    7.2691   -4.3999   -4.7823 O   0  0  0  0  0  0  0  0  0  0  0  0
    5.1351   -3.3537   -3.0884 O   0  0  0  0  0  0  0  0  0  0  0  0
  1  2  1  0  0  0  0
  3  2  1  1  0  0  0
  3  4  1  0  0  0  0
  3  5  1  0  0  0  0
  4  8  1  0  0  0  0
  5  6  1  0  0  0  0
  5 12  1  6  0  0  0
  6  7  1  1  0  0  0
  6  8  1  0  0  0  0
  8 41  1  1  0  0  0
  9 10  1  0  0  0  0
  9 17  1  0  0  0  0
  9 19  1  6  0  0  0
 10 11  1  0  0  0  0
 11 12  1  1  0  0  0
 11 13  1  0  0  0  0
 13 14  1  6  0  0  0
 13 15  1  0  0  0  0
 15 16  1  1  0  0  0
 15 17  1  0  0  0  0
 17 18  1  1  0  0  0
 19 20  1  0  0  0  0
 21 22  1  0  0  0  0
 21 29  1  0  0  0  0
 21 31  1  6  0  0  0
 22 23  1  0  0  0  0
 23 24  1  1  0  0  0
 23 25  1  0  0  0  0
 25 26  1  1  0  0  0
 25 27  1  0  0  0  0
 27 28  1  6  0  0  0
 27 29  1  0  0  0  0
 29 30  1  1  0  0  0
 31 32  1  0  0  0  0
 33 34  1  0  0  0  0
 33 38  1  0  0  0  0
 33 39  1  6  0  0  0
 34 35  1  0  0  0  0
 35 36  1  0  0  0  0
 35 40  1  6  0  0  0
 36 24  1  1  0  0  0
 36 37  1  0  0  0  0
 37 38  1  0  0  0  0
 37 41  1  6  0  0  0
 38 42  1  1  0  0  0
M  CHG  6  14   1  20   1  26   1  32   1  39   1  40   1
M  END
>  <CHROM.1>
-176.88063319,-52.20457599,-162.27580323,-97.79497781,-46.41329071,48.47858313
131.01077129,-169.23907741,-62.73658697,177.03405799,148.33280969,161.98751569
55.25011644,-173.00451813,-178.24096684,-174.49657944,178.45157989,49.95250699
-138.57177007,178.23518302,167.92299001,-62.40065872,8.23680029,-6.20250650
-5.62536633,1.34114966,-0.05247034,0.84409552

>  <Name>


>  <RI>
0

>  <Rbt.Current_Directory>
/home/itssahil/PROJECTS/Mol_Feturizer/New_Systems/rnas/1qd3

>  <Rbt.Executable>
rbdock ($Id: //depot/dev/client3/rdock/2013.1/src/exe/rbdock.cxx#4 $)

>  <Rbt.Library>
libRbt.so (2013.1, Build901 2013/11/27)

>  <Rbt.Parameter_File>
/export/apps/rDock/src/rDock_2013.1_src/data/scripts/dock_solv.prm

>  <Rbt.Receptor>
prm/pocket_docking_6.prm

>  <SCORE>
-49.6604

>  <SCORE.INTER>
-25.0121

>  <SCORE.INTER.CONST>
1

>  <SCORE.INTER.POLAR>
-4.9925

>  <SCORE.INTER.ROT>
9

>  <SCORE.INTER.SOLV>
22.0225

>  <SCORE.INTER.VDW>
-16.9739

>  <SCORE.INTER.norm>
-0.595526

>  <SCORE.INTRA>
-24.7008

>  <SCORE.INTRA.DIHEDRAL>
-17.0045

>  <SCORE.INTRA.DIHEDRAL.0>
40.6252

>  <SCORE.INTRA.POLAR>
-1.27291

>  <SCORE.INTRA.POLAR.0>
-1.20161

>  <SCORE.INTRA.REPUL>
-0.115675

>  <SCORE.INTRA.REPUL.0>
0.115675

>  <SCORE.INTRA.SOLV>
-6.33228

>  <SCORE.INTRA.SOLV.lig_0>
-154.895

>  <SCORE.INTRA.VDW>
-8.12615

>  <SCORE.INTRA.VDW.0>
2.2925

>  <SCORE.INTRA.norm>
-0.588114

>  <SCORE.RESTR>
0.0525359

>  <SCORE.RESTR.CAVITY>
0.0525359

>  <SCORE.RESTR.norm>
0.00125086

>  <SCORE.SYSTEM>
0

>  <SCORE.SYSTEM.CONST>
0

>  <SCORE.SYSTEM.DIHEDRAL>
0

>  <SCORE.SYSTEM.SOLV>
0

>  <SCORE.SYSTEM.norm>
0

>  <SCORE.heavy>
42

>  <SCORE.norm>
-1.18239

>  <RMSD>
8.150

$$$$

 OpenBabel11021811413D
libRbt.so/2013.1/901 2013/11/27
 42 45  0  0  0  0  0  0  0  0999 V2000
    3.8556   -9.5218   -2.5417 O   0  0  0  0  0  0  0  0  0  0  0  0
    4.4766   -9.4855   -1.2647 C   0  0  0  0  0  0  0  0  0  0  0  0
    5.2708   -8.1877   -1.1121 C   0  0  1  0  0  0  0  0  0  0  0  0
    6.2122   -8.2736   -0.0203 O   0  0  0  0  0  0  0  0  0  0  0  0
    6.0937   -7.8359   -2.3403 C   0  0  2  0  0  0  0  0  0  0  0  0
    7.0953   -6.8670   -1.7345 C   0  0  1  0  0  0  0  0  0  0  0  0
    6.4781   -5.6002   -1.5338 O   0  0  0  0  0  0  0  0  0  0  0  0
    7.4016   -7.5224   -0.3725 C   0  0  2  0  0  0  0  0  0  0  0  0
    6.2107   -7.0244   -6.8914 C   0  0  2  0  0  0  0  0  0  0  0  0
    5.4375   -7.3374   -5.7227 O   0  0  0  0  0  0  0  0  0  0  0  0
    6.0547   -6.8414   -4.5211 C   0  0  2  0  0  0  0  0  0  0  0  0
    5.2839   -7.2226   -3.3626 O   0  0  0  0  0  0  0  0  0  0  0  0
    6.2081   -5.3120   -4.5810 C   0  0  2  0  0  0  0  0  0  0  0  0
    4.9359   -4.6570   -4.3381 N   0  3  0  0  0  0  0  0  0  0  0  0
    6.8217   -4.8219   -5.8979 C   0  0  1  0  0  0  0  0  0  0  0  0
    8.2230   -5.0429   -5.8754 O   0  0  0  0  0  0  0  0  0  0  0  0
    6.2141   -5.5173   -7.1131 C   0  0  2  0  0  0  0  0  0  0  0  0
    4.8870   -5.0506   -7.3265 O   0  0  0  0  0  0  0  0  0  0  0  0
    5.6573   -7.7521   -8.1132 C   0  0  0  0  0  0  0  0  0  0  0  0
    6.2771   -7.2506   -9.3254 N   0  3  0  0  0  0  0  0  0  0  0  0
   13.4947   -5.3975   -1.9673 C   0  0  1  0  0  0  0  0  0  0  0  0
   12.3312   -4.7363   -1.4277 O   0  0  0  0  0  0  0  0  0  0  0  0
   11.0903   -5.4034   -1.7544 C   0  0  2  0  0  0  0  0  0  0  0  0
   10.9969   -6.7106   -1.1362 O   0  0  0  0  0  0  0  0  0  0  0  0
   10.9108   -5.4966   -3.2746 C   0  0  2  0  0  0  0  0  0  0  0  0
    9.7775   -6.3469   -3.5884 N   0  3  0  0  0  0  0  0  0  0  0  0
   12.1565   -6.0496   -3.9578 C   0  0  1  0  0  0  0  0  0  0  0  0
   12.0376   -5.8981   -5.3639 O   0  0  0  0  0  0  0  0  0  0  0  0
   13.4429   -5.3890   -3.4863 C   0  0  2  0  0  0  0  0  0  0  0  0
   14.5705   -6.0712   -4.0151 O   0  0  0  0  0  0  0  0  0  0  0  0
   14.7598   -4.6571   -1.5429 C   0  0  0  0  0  0  0  0  0  0  0  0
   15.9417   -5.4433   -1.8461 N   0  3  0  0  0  0  0  0  0  0  0  0
   10.2271   -7.8517    2.8893 C   0  0  2  0  0  0  0  0  0  0  0  0
   10.5933   -6.4061    2.6167 C   0  0  0  0  0  0  0  0  0  0  0  0
   11.2154   -6.2659    1.2397 C   0  0  1  0  0  0  0  0  0  0  0  0
   10.2660   -6.6891    0.1179 C   0  0  2  0  0  0  0  0  0  0  0  0
    9.6629   -8.0846    0.4002 C   0  0  1  0  0  0  0  0  0  0  0  0
    9.2400   -8.3631    1.8487 C   0  0  1  0  0  0  0  0  0  0  0  0
    9.6408   -7.9592    4.2116 N   0  3  0  0  0  0  0  0  0  0  0  0
   11.6442   -4.8934    1.0538 N   0  3  0  0  0  0  0  0  0  0  0  0
    8.5693   -8.3835   -0.5017 O   0  0  0  0  0  0  0  0  0  0  0  0
    9.0321   -9.7599    2.0299 O   0  0  0  0  0  0  0  0  0  0  0  0
  1  2  1  0  0  0  0
  3  2  1  6  0  0  0
  3  4  1  0  0  0  0
  3  5  1  0  0  0  0
  4  8  1  0  0  0  0
  5  6  1  0  0  0  0
  5 12  1  6  0  0  0
  6  7  1  1  0  0  0
  6  8  1  0  0  0  0
  8 41  1  6  0  0  0
  9 10  1  0  0  0  0
  9 17  1  0  0  0  0
  9 19  1  6  0  0  0
 10 11  1  0  0  0  0
 11 12  1  1  0  0  0
 11 13  1  0  0  0  0
 13 14  1  6  0  0  0
 13 15  1  0  0  0  0
 15 16  1  1  0  0  0
 15 17  1  0  0  0  0
 17 18  1  1  0  0  0
 19 20  1  0  0  0  0
 21 22  1  0  0  0  0
 21 29  1  0  0  0  0
 21 31  1  6  0  0  0
 22 23  1  0  0  0  0
 23 24  1  6  0  0  0
 23 25  1  0  0  0  0
 25 26  1  1  0  0  0
 25 27  1  0  0  0  0
 27 28  1  6  0  0  0
 27 29  1  0  0  0  0
 29 30  1  6  0  0  0
 31 32  1  0  0  0  0
 33 34  1  0  0  0  0
 33 38  1  0  0  0  0
 33 39  1  1  0  0  0
 34 35  1  0  0  0  0
 35 36  1  0  0  0  0
 35 40  1  6  0  0  0
 36 24  1  6  0  0  0
 36 37  1  0  0  0  0
 37 38  1  0  0  0  0
 37 41  1  6  0  0  0
 38 42  1  6  0  0  0
M  CHG  6  14   1  20   1  26   1  32   1  39   1  40   1
M  END
>  <CHROM.1>
-175.60070971,-163.40148094,178.13371931,85.38865419,-119.67488692,169.54270689
129.69592037,138.48666062,-70.39425572,-91.11095425,52.26971832,168.69413014
95.68407233,-83.22880999,54.10383127,-59.79393887,-176.36395556,-57.02710761
177.26312432,73.03769380,-64.52351701,-179.69500451,8.81917187,-6.64904746
-2.44942099,2.42986928,-0.28223664,-1.29780537

>  <Name>


>  <RI>
0

>  <Rbt.Current_Directory>
/home/itssahil/PROJECTS/Mol_Feturizer/New_Systems/rnas/1qd3

>  <Rbt.Executable>
rbdock ($Id: //depot/dev/client3/rdock/2013.1/src/exe/rbdock.cxx#4 $)

>  <Rbt.Library>
libRbt.so (2013.1, Build901 2013/11/27)

>  <Rbt.Parameter_File>
/export/apps/rDock/src/rDock_2013.1_src/data/scripts/dock_solv.prm

>  <Rbt.Receptor>
prm/pocket_docking_8.prm

>  <SCORE>
-49.6472

>  <SCORE.INTER>
-33.3139

>  <SCORE.INTER.CONST>
1

>  <SCORE.INTER.POLAR>
-6.69556

>  <SCORE.INTER.ROT>
9

>  <SCORE.INTER.SOLV>
26.5891

>  <SCORE.INTER.VDW>
-18.3537

>  <SCORE.INTER.norm>
-0.793188

>  <SCORE.INTRA>
-16.3333

>  <SCORE.INTRA.DIHEDRAL>
-5.51098

>  <SCORE.INTRA.DIHEDRAL.0>
40.6252

>  <SCORE.INTRA.POLAR>
-1.41908

>  <SCORE.INTRA.POLAR.0>
-1.20161

>  <SCORE.INTRA.REPUL>
-0.0694623

>  <SCORE.INTRA.REPUL.0>
0.115675

>  <SCORE.INTRA.SOLV>
-0.542538

>  <SCORE.INTRA.SOLV.lig_0>
-154.895

>  <SCORE.INTRA.VDW>
-8.13438

>  <SCORE.INTRA.VDW.0>
2.2925

>  <SCORE.INTRA.norm>
-0.388888

>  <SCORE.RESTR>
0

>  <SCORE.RESTR.CAVITY>
0

>  <SCORE.RESTR.norm>
0

>  <SCORE.SYSTEM>
0

>  <SCORE.SYSTEM.CONST>
0

>  <SCORE.SYSTEM.DIHEDRAL>
0

>  <SCORE.SYSTEM.SOLV>
0

>  <SCORE.SYSTEM.norm>
0

>  <SCORE.heavy>
42

>  <SCORE.norm>
-1.18208

>  <RMSD>
8.189

$$$$

 OpenBabel11021811413D
libRbt.so/2013.1/901 2013/11/27
 42 45  0  0  0  0  0  0  0  0999 V2000
    4.9399   -3.7940   -3.2618 O   0  0  0  0  0  0  0  0  0  0  0  0
    5.8009   -4.8346   -3.7017 C   0  0  0  0  0  0  0  0  0  0  0  0
    6.5634   -5.4142   -2.5096 C   0  0  1  0  0  0  0  0  0  0  0  0
    7.1707   -6.6819   -2.8409 O   0  0  0  0  0  0  0  0  0  0  0  0
    7.6986   -4.5253   -2.0294 C   0  0  2  0  0  0  0  0  0  0  0  0
    8.5278   -5.5318   -1.2495 C   0  0  1  0  0  0  0  0  0  0  0  0
    7.9183   -5.7823    0.0122 O   0  0  0  0  0  0  0  0  0  0  0  0
    8.4334   -6.7902   -2.1361 C   0  0  2  0  0  0  0  0  0  0  0  0
   10.1167   -1.3420   -1.8977 C   0  0  2  0  0  0  0  0  0  0  0  0
    9.0696   -2.2993   -2.1184 O   0  0  0  0  0  0  0  0  0  0  0  0
    8.2190   -2.4408   -0.9664 C   0  0  2  0  0  0  0  0  0  0  0  0
    7.2151   -3.4502   -1.2003 O   0  0  0  0  0  0  0  0  0  0  0  0
    7.5550   -1.0987   -0.6137 C   0  0  2  0  0  0  0  0  0  0  0  0
    6.4662   -0.8070   -1.5281 N   0  3  0  0  0  0  0  0  0  0  0  0
    8.5479    0.0688   -0.5711 C   0  0  1  0  0  0  0  0  0  0  0  0
    9.2806    0.0197    0.6429 O   0  0  0  0  0  0  0  0  0  0  0  0
    9.5142    0.0496   -1.7523 C   0  0  2  0  0  0  0  0  0  0  0  0
    8.8300    0.4142   -2.9454 O   0  0  0  0  0  0  0  0  0  0  0  0
   11.1289   -1.3792   -3.0391 C   0  0  0  0  0  0  0  0  0  0  0  0
   12.1488   -0.3658   -2.8451 N   0  3  0  0  0  0  0  0  0  0  0  0
   11.8590   -5.5077    1.0193 C   0  0  1  0  0  0  0  0  0  0  0  0
   10.9539   -5.4147   -0.1006 O   0  0  0  0  0  0  0  0  0  0  0  0
   11.6160   -5.5176   -1.3822 C   0  0  2  0  0  0  0  0  0  0  0  0
   12.2019   -6.8269   -1.5876 O   0  0  0  0  0  0  0  0  0  0  0  0
   12.6664   -4.4113   -1.5383 C   0  0  2  0  0  0  0  0  0  0  0  0
   13.4640   -4.6495   -2.7269 N   0  3  0  0  0  0  0  0  0  0  0  0
   13.5865   -4.3305   -0.3253 C   0  0  1  0  0  0  0  0  0  0  0  0
   14.3799   -3.1564   -0.4045 O   0  0  0  0  0  0  0  0  0  0  0  0
   12.8374   -4.3447    0.9983 C   0  0  2  0  0  0  0  0  0  0  0  0
   13.7498   -4.4572    2.0806 O   0  0  0  0  0  0  0  0  0  0  0  0
   11.0791   -5.4331    2.3288 C   0  0  0  0  0  0  0  0  0  0  0  0
   11.7707   -6.1550    3.3810 N   0  3  0  0  0  0  0  0  0  0  0  0
   10.4817  -10.5158   -2.8256 C   0  0  2  0  0  0  0  0  0  0  0  0
   11.0157  -10.4188   -1.4102 C   0  0  0  0  0  0  0  0  0  0  0  0
   11.9325   -9.2179   -1.2690 C   0  0  1  0  0  0  0  0  0  0  0  0
   11.2193   -7.8950   -1.5523 C   0  0  2  0  0  0  0  0  0  0  0  0
   10.4568   -7.9541   -2.8962 C   0  0  1  0  0  0  0  0  0  0  0  0
    9.7068   -9.2585   -3.1967 C   0  0  1  0  0  0  0  0  0  0  0  0
    9.6142  -11.6731   -2.9352 N   0  3  0  0  0  0  0  0  0  0  0  0
   12.5025   -9.2142    0.0641 N   0  3  0  0  0  0  0  0  0  0  0  0
    9.5656   -6.8226   -3.0519 O   0  0  0  0  0  0  0  0  0  0  0  0
    9.3506   -9.3032   -4.5744 O   0  0  0  0  0  0  0  0  0  0  0  0
  1  2  1  0  0  0  0
  3  2  1  6  0  0  0
  3  4  1  0  0  0  0
  3  5  1  0  0  0  0
  4  8  1  0  0  0  0
  5  6  1  0  0  0  0
  5 12  1  1  0  0  0
  6  7  1  1  0  0  0
  6  8  1  0  0  0  0
  8 41  1  6  0  0  0
  9 10  1  0  0  0  0
  9 17  1  0  0  0  0
  9 19  1  6  0  0  0
 10 11  1  0  0  0  0
 11 12  1  6  0  0  0
 11 13  1  0  0  0  0
 13 14  1  6  0  0  0
 13 15  1  0  0  0  0
 15 16  1  1  0  0  0
 15 17  1  0  0  0  0
 17 18  1  6  0  0  0
 19 20  1  0  0  0  0
 21 22  1  0  0  0  0
 21 29  1  0  0  0  0
 21 31  1  1  0  0  0
 22 23  1  0  0  0  0
 23 24  1  1  0  0  0
 23 25  1  0  0  0  0
 25 26  1  6  0  0  0
 25 27  1  0  0  0  0
 27 28  1  6  0  0  0
 27 29  1  0  0  0  0
 29 30  1  1  0  0  0
 31 32  1  0  0  0  0
 33 34  1  0  0  0  0
 33 38  1  0  0  0  0
 33 39  1  1  0  0  0
 34 35  1  0  0  0  0
 35 36  1  0  0  0  0
 35 40  1  1  0  0  0
 36 24  1  6  0  0  0
 36 37  1  0  0  0  0
 37 38  1  0  0  0  0
 37 41  1  1  0  0  0
 38 42  1  6  0  0  0
M  CHG  6  14   1  20   1  26   1  32   1  39   1  40   1
M  END
>  <CHROM.1>
-65.21680949,164.80793269,-167.73842416,-8.38777711,-125.47028987,177.20797676
33.80869882,-125.84786826,-42.32960738,-159.53908774,159.94403959,151.52649218
60.22310221,-159.74700414,-51.75999043,-58.60562519,-72.36997158,-60.47288928
-65.58900535,-58.25068248,-67.55092554,53.05595597,10.03135353,-4.94113156
-1.38297815,1.83522588,-0.48532020,0.16146527

>  <Name>


>  <RI>
0

>  <Rbt.Current_Directory>
/home/itssahil/PROJECTS/Mol_Feturizer/New_Systems/rnas/1qd3

>  <Rbt.Executable>
rbdock ($Id: //depot/dev/client3/rdock/2013.1/src/exe/rbdock.cxx#4 $)

>  <Rbt.Library>
libRbt.so (2013.1, Build901 2013/11/27)

>  <Rbt.Parameter_File>
/export/apps/rDock/src/rDock_2013.1_src/data/scripts/dock_solv.prm

>  <Rbt.Receptor>
prm/pocket_docking_6.prm

>  <SCORE>
-40.8333

>  <SCORE.INTER>
-27.2667

>  <SCORE.INTER.CONST>
1

>  <SCORE.INTER.POLAR>
-4.9606

>  <SCORE.INTER.ROT>
9

>  <SCORE.INTER.SOLV>
20.2267

>  <SCORE.INTER.VDW>
-17.9847

>  <SCORE.INTER.norm>
-0.649207

>  <SCORE.INTRA>
-13.6843

>  <SCORE.INTRA.DIHEDRAL>
-8.47595

>  <SCORE.INTRA.DIHEDRAL.0>
40.6252

>  <SCORE.INTRA.POLAR>
1.00745

>  <SCORE.INTRA.POLAR.0>
-1.20161

>  <SCORE.INTRA.REPUL>
-0.115675

>  <SCORE.INTRA.REPUL.0>
0.115675

>  <SCORE.INTRA.SOLV>
-9.69759

>  <SCORE.INTRA.SOLV.lig_0>
-154.895

>  <SCORE.INTRA.VDW>
-7.44444

>  <SCORE.INTRA.VDW.0>
2.2925

>  <SCORE.INTRA.norm>
-0.325816

>  <SCORE.RESTR>
0.117716

>  <SCORE.RESTR.CAVITY>
0.117716

>  <SCORE.RESTR.norm>
0.00280275

>  <SCORE.SYSTEM>
0

>  <SCORE.SYSTEM.CONST>
0

>  <SCORE.SYSTEM.DIHEDRAL>
0

>  <SCORE.SYSTEM.SOLV>
0

>  <SCORE.SYSTEM.norm>
0

>  <SCORE.heavy>
42

>  <SCORE.norm>
-0.97222

>  <RMSD>
8.225

$$$$

 OpenBabel11021811413D
libRbt.so/2013.1/901 2013/11/27
 42 45  0  0  0  0  0  0  0  0999 V2000
    5.9094  -10.7132    0.2009 O   0  0  0  0  0  0  0  0  0  0  0  0
    4.7372   -9.9133    0.1395 C   0  0  0  0  0  0  0  0  0  0  0  0
    4.9731   -8.7196   -0.7868 C   0  0  1  0  0  0  0  0  0  0  0  0
    6.0881   -7.9190   -0.3379 O   0  0  0  0  0  0  0  0  0  0  0  0
    5.3009   -9.1201   -2.2156 C   0  0  2  0  0  0  0  0  0  0  0  0
    5.9504   -7.8422   -2.7195 C   0  0  1  0  0  0  0  0  0  0  0  0
    4.9475   -6.8733   -3.0051 O   0  0  0  0  0  0  0  0  0  0  0  0
    6.7799   -7.3937   -1.4991 C   0  0  2  0  0  0  0  0  0  0  0  0
    5.3407  -11.8966   -5.3881 C   0  0  2  0  0  0  0  0  0  0  0  0
    4.9770  -11.3360   -4.1173 O   0  0  0  0  0  0  0  0  0  0  0  0
    4.4125  -10.0192   -4.2524 C   0  0  2  0  0  0  0  0  0  0  0  0
    4.1125   -9.4624   -2.9557 O   0  0  0  0  0  0  0  0  0  0  0  0
    3.1448  -10.0587   -5.1230 C   0  0  2  0  0  0  0  0  0  0  0  0
    2.0218  -10.5911   -4.3733 N   0  3  0  0  0  0  0  0  0  0  0  0
    3.3378  -10.8394   -6.4283 C   0  0  1  0  0  0  0  0  0  0  0  0
    4.0485  -10.0360   -7.3569 O   0  0  0  0  0  0  0  0  0  0  0  0
    4.0850  -12.1525   -6.2118 C   0  0  2  0  0  0  0  0  0  0  0  0
    3.2434  -13.0858   -5.5446 O   0  0  0  0  0  0  0  0  0  0  0  0
    6.1385  -13.1837   -5.1996 C   0  0  0  0  0  0  0  0  0  0  0  0
    7.3299  -12.9304   -4.4113 N   0  3  0  0  0  0  0  0  0  0  0  0
   11.1344   -3.3850   -3.9044 C   0  0  1  0  0  0  0  0  0  0  0  0
    9.8000   -3.4123   -3.3562 O   0  0  0  0  0  0  0  0  0  0  0  0
    9.2070   -4.7313   -3.3578 C   0  0  2  0  0  0  0  0  0  0  0  0
    9.9053   -5.6422   -2.4733 O   0  0  0  0  0  0  0  0  0  0  0  0
    9.1368   -5.2906   -4.7840 C   0  0  2  0  0  0  0  0  0  0  0  0
    8.7393   -6.6858   -4.7500 N   0  3  0  0  0  0  0  0  0  0  0  0
   10.4743   -5.1680   -5.5055 C   0  0  1  0  0  0  0  0  0  0  0  0
   10.3052   -5.4739   -6.8810 O   0  0  0  0  0  0  0  0  0  0  0  0
   11.1060   -3.7912   -5.3688 C   0  0  2  0  0  0  0  0  0  0  0  0
   12.4241   -3.7983   -5.8972 O   0  0  0  0  0  0  0  0  0  0  0  0
   11.7020   -1.9706   -3.8271 C   0  0  0  0  0  0  0  0  0  0  0  0
   10.6411   -0.9849   -3.9248 N   0  3  0  0  0  0  0  0  0  0  0  0
    9.7219   -6.7228    1.6375 C   0  0  2  0  0  0  0  0  0  0  0  0
    9.6201   -5.2525    1.2827 C   0  0  0  0  0  0  0  0  0  0  0  0
   10.0999   -5.0138   -0.1371 C   0  0  1  0  0  0  0  0  0  0  0  0
    9.2668   -5.7666   -1.1754 C   0  0  2  0  0  0  0  0  0  0  0  0
    9.1285   -7.2595   -0.7972 C   0  0  1  0  0  0  0  0  0  0  0  0
    8.8837   -7.5661    0.6862 C   0  0  1  0  0  0  0  0  0  0  0  0
    9.2635   -6.9228    2.9990 N   0  3  0  0  0  0  0  0  0  0  0  0
   10.0841   -3.5892   -0.4066 N   0  3  0  0  0  0  0  0  0  0  0  0
    8.1317   -7.9241   -1.6119 O   0  0  0  0  0  0  0  0  0  0  0  0
    9.1168   -8.9480    0.9374 O   0  0  0  0  0  0  0  0  0  0  0  0
  1  2  1  0  0  0  0
  3  2  1  1  0  0  0
  3  4  1  0  0  0  0
  3  5  1  0  0  0  0
  4  8  1  0  0  0  0
  5  6  1  0  0  0  0
  5 12  1  6  0  0  0
  6  7  1  1  0  0  0
  6  8  1  0  0  0  0
  8 41  1  6  0  0  0
  9 10  1  0  0  0  0
  9 17  1  0  0  0  0
  9 19  1  1  0  0  0
 10 11  1  0  0  0  0
 11 12  1  1  0  0  0
 11 13  1  0  0  0  0
 13 14  1  1  0  0  0
 13 15  1  0  0  0  0
 15 16  1  6  0  0  0
 15 17  1  0  0  0  0
 17 18  1  1  0  0  0
 19 20  1  0  0  0  0
 21 22  1  0  0  0  0
 21 29  1  0  0  0  0
 21 31  1  6  0  0  0
 22 23  1  0  0  0  0
 23 24  1  1  0  0  0
 23 25  1  0  0  0  0
 25 26  1  1  0  0  0
 25 27  1  0  0  0  0
 27 28  1  6  0  0  0
 27 29  1  0  0  0  0
 29 30  1  1  0  0  0
 31 32  1  0  0  0  0
 33 34  1  0  0  0  0
 33 38  1  0  0  0  0
 33 39  1  1  0  0  0
 34 35  1  0  0  0  0
 35 36  1  0  0  0  0
 35 40  1  6  0  0  0
 36 24  1  6  0  0  0
 36 37  1  0  0  0  0
 37 38  1  0  0  0  0
 37 41  1  6  0  0  0
 38 42  1  6  0  0  0
M  CHG  6  14   1  20   1  26   1  32   1  39   1  40   1
M  END
>  <CHROM.1>
62.00320187,-58.23919824,-172.05033032,66.69717983,-82.08255606,-58.04674382
70.56032058,-172.37952868,-61.72315729,-60.46621146,-69.36238201,-30.28141317
97.54112314,-106.08094559,-176.52151636,53.09727925,-75.22137565,83.34633782
58.17248861,-172.76390433,-61.07941148,-66.32165882,7.49128383,-7.61164003
-2.91714869,3.03041444,-0.86445915,-1.46704980

>  <Name>


>  <RI>
0

>  <Rbt.Current_Directory>
/home/itssahil/PROJECTS/Mol_Feturizer/New_Systems/rnas/1qd3

>  <Rbt.Executable>
rbdock ($Id: //depot/dev/client3/rdock/2013.1/src/exe/rbdock.cxx#4 $)

>  <Rbt.Library>
libRbt.so (2013.1, Build901 2013/11/27)

>  <Rbt.Parameter_File>
/export/apps/rDock/src/rDock_2013.1_src/data/scripts/dock_solv.prm

>  <Rbt.Receptor>
prm/pocket_docking_8.prm

>  <SCORE>
-46.3474

>  <SCORE.INTER>
-25.0181

>  <SCORE.INTER.CONST>
1

>  <SCORE.INTER.POLAR>
-5.07548

>  <SCORE.INTER.ROT>
9

>  <SCORE.INTER.SOLV>
22.9318

>  <SCORE.INTER.VDW>
-17.0044

>  <SCORE.INTER.norm>
-0.595668

>  <SCORE.INTRA>
-21.3293

>  <SCORE.INTRA.DIHEDRAL>
-19.1272

>  <SCORE.INTRA.DIHEDRAL.0>
40.6252

>  <SCORE.INTRA.POLAR>
0.461899

>  <SCORE.INTRA.POLAR.0>
-1.20161

>  <SCORE.INTRA.REPUL>
-0.115675

>  <SCORE.INTRA.REPUL.0>
0.115675

>  <SCORE.INTRA.SOLV>
-8.23789

>  <SCORE.INTRA.SOLV.lig_0>
-154.895

>  <SCORE.INTRA.VDW>
-8.63886

>  <SCORE.INTRA.VDW.0>
2.2925

>  <SCORE.INTRA.norm>
-0.507841

>  <SCORE.RESTR>
0

>  <SCORE.RESTR.CAVITY>
0

>  <SCORE.RESTR.norm>
0

>  <SCORE.SYSTEM>
0

>  <SCORE.SYSTEM.CONST>
0

>  <SCORE.SYSTEM.DIHEDRAL>
0

>  <SCORE.SYSTEM.SOLV>
0

>  <SCORE.SYSTEM.norm>
0

>  <SCORE.heavy>
42

>  <SCORE.norm>
-1.10351

>  <RMSD>
8.233

$$$$

 OpenBabel11021811413D
libRbt.so/2013.1/901 2013/11/27
 42 45  0  0  0  0  0  0  0  0999 V2000
   14.7757   -4.4689    0.9752 O   0  0  0  0  0  0  0  0  0  0  0  0
   15.0929   -5.2827   -0.1449 C   0  0  0  0  0  0  0  0  0  0  0  0
   13.8337   -5.5336   -0.9756 C   0  0  1  0  0  0  0  0  0  0  0  0
   12.7539   -6.0305   -0.1554 O   0  0  0  0  0  0  0  0  0  0  0  0
   13.2973   -4.2824   -1.6511 C   0  0  2  0  0  0  0  0  0  0  0  0
   11.8688   -4.7134   -1.9383 C   0  0  1  0  0  0  0  0  0  0  0  0
   11.8456   -5.5797   -3.0674 O   0  0  0  0  0  0  0  0  0  0  0  0
   11.5030   -5.5026   -0.6647 C   0  0  2  0  0  0  0  0  0  0  0  0
   13.7507   -0.3366   -3.0697 C   0  0  2  0  0  0  0  0  0  0  0  0
   14.1487   -1.6244   -2.5754 O   0  0  0  0  0  0  0  0  0  0  0  0
   13.6637   -2.6933   -3.4080 C   0  0  2  0  0  0  0  0  0  0  0  0
   14.0309   -3.9732   -2.8524 O   0  0  0  0  0  0  0  0  0  0  0  0
   14.2089   -2.5562   -4.8399 C   0  0  2  0  0  0  0  0  0  0  0  0
   15.5963   -2.9775   -4.9050 N   0  3  0  0  0  0  0  0  0  0  0  0
   14.0498   -1.1416   -5.4094 C   0  0  1  0  0  0  0  0  0  0  0  0
   12.7046   -0.9462   -5.8160 O   0  0  0  0  0  0  0  0  0  0  0  0
   14.4402   -0.0648   -4.4006 C   0  0  2  0  0  0  0  0  0  0  0  0
   15.8524   -0.0513   -4.2269 O   0  0  0  0  0  0  0  0  0  0  0  0
   14.0797    0.7544   -2.0546 C   0  0  0  0  0  0  0  0  0  0  0  0
   13.6979    2.0563   -2.5685 N   0  3  0  0  0  0  0  0  0  0  0  0
    7.1619   -5.6334   -2.7883 C   0  0  1  0  0  0  0  0  0  0  0  0
    8.4754   -5.2754   -2.3103 O   0  0  0  0  0  0  0  0  0  0  0  0
    8.4493   -4.5026   -1.0882 C   0  0  2  0  0  0  0  0  0  0  0  0
    7.9304   -5.2677    0.0276 O   0  0  0  0  0  0  0  0  0  0  0  0
    7.6554   -3.2055   -1.2859 C   0  0  2  0  0  0  0  0  0  0  0  0
    7.4578   -2.5460   -0.0085 N   0  3  0  0  0  0  0  0  0  0  0  0
    6.2986   -3.4661   -1.9305 C   0  0  1  0  0  0  0  0  0  0  0  0
    5.7044   -2.2339   -2.3085 O   0  0  0  0  0  0  0  0  0  0  0  0
    6.3759   -4.3816   -3.1426 C   0  0  2  0  0  0  0  0  0  0  0  0
    5.0712   -4.7339   -3.5790 O   0  0  0  0  0  0  0  0  0  0  0  0
    7.2789   -6.4801   -4.0525 C   0  0  0  0  0  0  0  0  0  0  0  0
    8.0050   -7.7077   -3.7836 N   0  3  0  0  0  0  0  0  0  0  0  0
   10.1590   -6.8689    3.2787 C   0  0  2  0  0  0  0  0  0  0  0  0
    9.2515   -7.8067    2.5072 C   0  0  0  0  0  0  0  0  0  0  0  0
    8.2556   -7.0188    1.6764 C   0  0  1  0  0  0  0  0  0  0  0  0
    8.9323   -6.1226    0.6382 C   0  0  2  0  0  0  0  0  0  0  0  0
   10.0368   -5.2582    1.2890 C   0  0  1  0  0  0  0  0  0  0  0  0
   10.9231   -5.9560    2.3292 C   0  0  1  0  0  0  0  0  0  0  0  0
   11.0959   -7.6457    4.0677 N   0  3  0  0  0  0  0  0  0  0  0  0
    7.3422   -7.9434    1.0337 N   0  3  0  0  0  0  0  0  0  0  0  0
   10.8616   -4.6092    0.2903 O   0  0  0  0  0  0  0  0  0  0  0  0
   11.6463   -4.9835    3.0763 O   0  0  0  0  0  0  0  0  0  0  0  0
  1  2  1  0  0  0  0
  3  2  1  1  0  0  0
  3  4  1  0  0  0  0
  3  5  1  0  0  0  0
  4  8  1  0  0  0  0
  5  6  1  0  0  0  0
  5 12  1  6  0  0  0
  6  7  1  6  0  0  0
  6  8  1  0  0  0  0
  8 41  1  1  0  0  0
  9 10  1  0  0  0  0
  9 17  1  0  0  0  0
  9 19  1  1  0  0  0
 10 11  1  0  0  0  0
 11 12  1  1  0  0  0
 11 13  1  0  0  0  0
 13 14  1  1  0  0  0
 13 15  1  0  0  0  0
 15 16  1  1  0  0  0
 15 17  1  0  0  0  0
 17 18  1  1  0  0  0
 19 20  1  0  0  0  0
 21 22  1  0  0  0  0
 21 29  1  0  0  0  0
 21 31  1  6  0  0  0
 22 23  1  0  0  0  0
 23 24  1  1  0  0  0
 23 25  1  0  0  0  0
 25 26  1  1  0  0  0
 25 27  1  0  0  0  0
 27 28  1  6  0  0  0
 27 29  1  0  0  0  0
 29 30  1  1  0  0  0
 31 32  1  0  0  0  0
 33 34  1  0  0  0  0
 33 38  1  0  0  0  0
 33 39  1  6  0  0  0
 34 35  1  0  0  0  0
 35 36  1  0  0  0  0
 35 40  1  6  0  0  0
 36 24  1  1  0  0  0
 36 37  1  0  0  0  0
 37 38  1  0  0  0  0
 37 41  1  6  0  0  0
 38 42  1  1  0  0  0
M  CHG  6  14   1  20   1  26   1  32   1  39   1  40   1
M  END
>  <CHROM.1>
-64.23501200,-51.90696412,-171.92138008,56.71010812,-84.95655477,178.96599874
70.77609467,86.25786412,-68.62094305,-176.40152787,46.74398253,60.83912444
82.11665237,-172.64741503,-172.49073146,63.73051892,67.24919729,-51.38588585
-61.82491362,-54.77790494,-56.72331927,63.04313959,10.95150632,-4.14569394
-1.43331950,-0.75514221,0.24402178,2.22276504

>  <Name>


>  <RI>
0

>  <Rbt.Current_Directory>
/home/itssahil/PROJECTS/Mol_Feturizer/New_Systems/rnas/1qd3

>  <Rbt.Executable>
rbdock ($Id: //depot/dev/client3/rdock/2013.1/src/exe/rbdock.cxx#4 $)

>  <Rbt.Library>
libRbt.so (2013.1, Build901 2013/11/27)

>  <Rbt.Parameter_File>
/export/apps/rDock/src/rDock_2013.1_src/data/scripts/dock_solv.prm

>  <Rbt.Receptor>
prm/pocket_docking_7.prm

>  <SCORE>
-40.1217

>  <SCORE.INTER>
-13.7947

>  <SCORE.INTER.CONST>
1

>  <SCORE.INTER.POLAR>
-2.88848

>  <SCORE.INTER.ROT>
9

>  <SCORE.INTER.SOLV>
15.4049

>  <SCORE.INTER.VDW>
-14.3032

>  <SCORE.INTER.norm>
-0.328446

>  <SCORE.INTRA>
-26.327

>  <SCORE.INTRA.DIHEDRAL>
-30.3845

>  <SCORE.INTRA.DIHEDRAL.0>
40.6252

>  <SCORE.INTRA.POLAR>
1.19279

>  <SCORE.INTRA.POLAR.0>
-1.20161

>  <SCORE.INTRA.REPUL>
-0.115675

>  <SCORE.INTRA.REPUL.0>
0.115675

>  <SCORE.INTRA.SOLV>
-13.925

>  <SCORE.INTRA.SOLV.lig_0>
-154.895

>  <SCORE.INTRA.VDW>
-7.64938

>  <SCORE.INTRA.VDW.0>
2.2925

>  <SCORE.INTRA.norm>
-0.626834

>  <SCORE.RESTR>
0

>  <SCORE.RESTR.CAVITY>
0

>  <SCORE.RESTR.norm>
0

>  <SCORE.SYSTEM>
0

>  <SCORE.SYSTEM.CONST>
0

>  <SCORE.SYSTEM.DIHEDRAL>
0

>  <SCORE.SYSTEM.SOLV>
0

>  <SCORE.SYSTEM.norm>
0

>  <SCORE.heavy>
42

>  <SCORE.norm>
-0.95528

>  <RMSD>
8.241

$$$$

 OpenBabel11021811413D
libRbt.so/2013.1/901 2013/11/27
 42 45  0  0  0  0  0  0  0  0999 V2000
   11.0943   -2.0629   -2.4421 O   0  0  0  0  0  0  0  0  0  0  0  0
   11.4370   -3.3648   -2.8951 C   0  0  0  0  0  0  0  0  0  0  0  0
   12.2883   -4.0726   -1.8403 C   0  0  1  0  0  0  0  0  0  0  0  0
   11.5293   -4.3290   -0.6386 O   0  0  0  0  0  0  0  0  0  0  0  0
   12.8111   -5.4251   -2.2950 C   0  0  2  0  0  0  0  0  0  0  0  0
   13.1433   -6.0587   -0.9545 C   0  0  1  0  0  0  0  0  0  0  0  0
   14.3661   -5.5241   -0.4597 O   0  0  0  0  0  0  0  0  0  0  0  0
   11.9701   -5.5884   -0.0708 C   0  0  2  0  0  0  0  0  0  0  0  0
   12.6769   -4.1422   -6.3609 C   0  0  2  0  0  0  0  0  0  0  0  0
   13.0723   -4.0981   -4.9813 O   0  0  0  0  0  0  0  0  0  0  0  0
   13.6374   -5.3472   -4.5439 C   0  0  2  0  0  0  0  0  0  0  0  0
   13.9697   -5.2879   -3.1411 O   0  0  0  0  0  0  0  0  0  0  0  0
   14.8840   -5.6992   -5.3736 C   0  0  2  0  0  0  0  0  0  0  0  0
   16.0228   -4.9026   -4.9552 N   0  3  0  0  0  0  0  0  0  0  0  0
   14.6578   -5.5613   -6.8838 C   0  0  1  0  0  0  0  0  0  0  0  0
   13.9277   -6.6829   -7.3549 O   0  0  0  0  0  0  0  0  0  0  0  0
   13.9120   -4.2788   -7.2421 C   0  0  2  0  0  0  0  0  0  0  0  0
   14.7663   -3.1548   -7.0658 O   0  0  0  0  0  0  0  0  0  0  0  0
   11.8799   -2.8949   -6.7320 C   0  0  0  0  0  0  0  0  0  0  0  0
   11.6017   -2.8766   -8.1558 N   0  3  0  0  0  0  0  0  0  0  0  0
    6.5436   -5.4325   -2.9493 C   0  0  1  0  0  0  0  0  0  0  0  0
    6.1461   -6.5483   -2.1252 O   0  0  0  0  0  0  0  0  0  0  0  0
    7.2612   -7.2247   -1.5003 C   0  0  2  0  0  0  0  0  0  0  0  0
    7.9407   -6.3790   -0.5398 O   0  0  0  0  0  0  0  0  0  0  0  0
    8.2363   -7.7518   -2.5601 C   0  0  2  0  0  0  0  0  0  0  0  0
    9.4457   -8.2379   -1.9224 N   0  3  0  0  0  0  0  0  0  0  0  0
    8.6031   -6.6753   -3.5756 C   0  0  1  0  0  0  0  0  0  0  0  0
    9.3087   -7.2608   -4.6589 O   0  0  0  0  0  0  0  0  0  0  0  0
    7.3970   -5.9181   -4.1096 C   0  0  2  0  0  0  0  0  0  0  0  0
    7.8169   -4.8150   -4.8993 O   0  0  0  0  0  0  0  0  0  0  0  0
    5.3106   -4.7504   -3.5350 C   0  0  0  0  0  0  0  0  0  0  0  0
    5.6815   -3.5409   -4.2466 N   0  3  0  0  0  0  0  0  0  0  0  0
    9.4344   -6.9701    3.3997 C   0  0  2  0  0  0  0  0  0  0  0  0
    8.2715   -7.8287    2.9430 C   0  0  0  0  0  0  0  0  0  0  0  0
    7.6196   -7.2289    1.7108 C   0  0  1  0  0  0  0  0  0  0  0  0
    8.5785   -7.1346    0.5232 C   0  0  2  0  0  0  0  0  0  0  0  0
    9.9030   -6.4508    0.9342 C   0  0  1  0  0  0  0  0  0  0  0  0
   10.4798   -6.8490    2.2992 C   0  0  1  0  0  0  0  0  0  0  0  0
   10.0354   -7.5612    4.5801 N   0  3  0  0  0  0  0  0  0  0  0  0
    6.4538   -8.0178    1.3632 N   0  3  0  0  0  0  0  0  0  0  0  0
   10.9154   -6.5927   -0.0923 O   0  0  0  0  0  0  0  0  0  0  0  0
   11.4820   -5.9160    2.6896 O   0  0  0  0  0  0  0  0  0  0  0  0
  1  2  1  0  0  0  0
  3  2  1  6  0  0  0
  3  4  1  0  0  0  0
  3  5  1  0  0  0  0
  4  8  1  0  0  0  0
  5  6  1  0  0  0  0
  5 12  1  6  0  0  0
  6  7  1  1  0  0  0
  6  8  1  0  0  0  0
  8 41  1  6  0  0  0
  9 10  1  0  0  0  0
  9 17  1  0  0  0  0
  9 19  1  6  0  0  0
 10 11  1  0  0  0  0
 11 12  1  1  0  0  0
 11 13  1  0  0  0  0
 13 14  1  1  0  0  0
 13 15  1  0  0  0  0
 15 16  1  1  0  0  0
 15 17  1  0  0  0  0
 17 18  1  1  0  0  0
 19 20  1  0  0  0  0
 21 22  1  0  0  0  0
 21 29  1  0  0  0  0
 21 31  1  6  0  0  0
 22 23  1  0  0  0  0
 23 24  1  1  0  0  0
 23 25  1  0  0  0  0
 25 26  1  1  0  0  0
 25 27  1  0  0  0  0
 27 28  1  6  0  0  0
 27 29  1  0  0  0  0
 29 30  1  1  0  0  0
 31 32  1  0  0  0  0
 33 34  1  0  0  0  0
 33 38  1  0  0  0  0
 33 39  1  1  0  0  0
 34 35  1  0  0  0  0
 35 36  1  0  0  0  0
 35 40  1  6  0  0  0
 36 24  1  6  0  0  0
 36 37  1  0  0  0  0
 37 38  1  0  0  0  0
 37 41  1  6  0  0  0
 38 42  1  1  0  0  0
M  CHG  6  14   1  20   1  26   1  32   1  39   1  40   1
M  END
>  <CHROM.1>
179.18847311,66.28522533,-97.21560576,-65.77992133,-77.63161516,174.10622563
77.43375225,-75.21450067,62.05916673,-173.03619689,-79.31052029,173.76746223
151.81273256,-93.86062133,55.61134099,-176.20488784,64.63656096,164.46787544
175.45570340,-121.40303665,156.68841470,-61.00709393,10.64917648,-5.59932644
-2.42834355,-0.99025551,0.09352921,1.85352124

>  <Name>


>  <RI>
0

>  <Rbt.Current_Directory>
/home/itssahil/PROJECTS/Mol_Feturizer/New_Systems/rnas/1qd3

>  <Rbt.Executable>
rbdock ($Id: //depot/dev/client3/rdock/2013.1/src/exe/rbdock.cxx#4 $)

>  <Rbt.Library>
libRbt.so (2013.1, Build901 2013/11/27)

>  <Rbt.Parameter_File>
/export/apps/rDock/src/rDock_2013.1_src/data/scripts/dock_solv.prm

>  <Rbt.Receptor>
prm/pocket_docking_8.prm

>  <SCORE>
-36.1186

>  <SCORE.INTER>
-15.9481

>  <SCORE.INTER.CONST>
1

>  <SCORE.INTER.POLAR>
-3.45633

>  <SCORE.INTER.ROT>
9

>  <SCORE.INTER.SOLV>
25.7674

>  <SCORE.INTER.VDW>
-17.3001

>  <SCORE.INTER.norm>
-0.379716

>  <SCORE.INTRA>
-20.1705

>  <SCORE.INTRA.DIHEDRAL>
-14.7303

>  <SCORE.INTRA.DIHEDRAL.0>
40.6252

>  <SCORE.INTRA.POLAR>
-0.672879

>  <SCORE.INTRA.POLAR.0>
-1.20161

>  <SCORE.INTRA.REPUL>
-0.115675

>  <SCORE.INTRA.REPUL.0>
0.115675

>  <SCORE.INTRA.SOLV>
-6.35828

>  <SCORE.INTRA.SOLV.lig_0>
-154.895

>  <SCORE.INTRA.VDW>
-6.76005

>  <SCORE.INTRA.VDW.0>
2.2925

>  <SCORE.INTRA.norm>
-0.48025

>  <SCORE.RESTR>
0

>  <SCORE.RESTR.CAVITY>
0

>  <SCORE.RESTR.norm>
0

>  <SCORE.SYSTEM>
0

>  <SCORE.SYSTEM.CONST>
0

>  <SCORE.SYSTEM.DIHEDRAL>
0

>  <SCORE.SYSTEM.SOLV>
0

>  <SCORE.SYSTEM.norm>
0

>  <SCORE.heavy>
42

>  <SCORE.norm>
-0.859966

>  <RMSD>
8.307

$$$$

 OpenBabel11021811413D
libRbt.so/2013.1/901 2013/11/27
 42 45  0  0  0  0  0  0  0  0999 V2000
    6.7755   -1.3221    3.6243 O   0  0  0  0  0  0  0  0  0  0  0  0
    6.2966   -1.3309    2.2870 C   0  0  0  0  0  0  0  0  0  0  0  0
    7.4765   -1.3640    1.3148 C   0  0  1  0  0  0  0  0  0  0  0  0
    7.8279   -2.7195    0.9616 O   0  0  0  0  0  0  0  0  0  0  0  0
    7.1957   -0.6543    0.0007 C   0  0  2  0  0  0  0  0  0  0  0  0
    8.2703   -1.2682   -0.8809 C   0  0  1  0  0  0  0  0  0  0  0  0
    9.5291   -0.6699   -0.5919 O   0  0  0  0  0  0  0  0  0  0  0  0
    8.2710   -2.7397   -0.4190 C   0  0  2  0  0  0  0  0  0  0  0  0
   10.6476    1.7520    1.3308 C   0  0  2  0  0  0  0  0  0  0  0  0
    9.5947    1.4371    0.4068 O   0  0  0  0  0  0  0  0  0  0  0  0
    8.3581    1.1422    1.0811 C   0  0  2  0  0  0  0  0  0  0  0  0
    7.3386    0.7740    0.1289 O   0  0  0  0  0  0  0  0  0  0  0  0
    7.8962    2.3466    1.9192 C   0  0  2  0  0  0  0  0  0  0  0  0
    7.3242    3.3756    1.0704 N   0  3  0  0  0  0  0  0  0  0  0  0
    9.0110    2.9309    2.7947 C   0  0  1  0  0  0  0  0  0  0  0  0
    9.1964    2.1059    3.9340 O   0  0  0  0  0  0  0  0  0  0  0  0
   10.3306    3.0628    2.0392 C   0  0  2  0  0  0  0  0  0  0  0  0
   10.2448    4.1224    1.0933 O   0  0  0  0  0  0  0  0  0  0  0  0
   11.9896    1.8351    0.6090 C   0  0  0  0  0  0  0  0  0  0  0  0
   13.0801    1.8387    1.5659 N   0  3  0  0  0  0  0  0  0  0  0  0
   10.6902   -1.9503   -2.8758 C   0  0  1  0  0  0  0  0  0  0  0  0
   10.8166   -3.1927   -3.5987 O   0  0  0  0  0  0  0  0  0  0  0  0
   11.1700   -4.3129   -2.7551 C   0  0  2  0  0  0  0  0  0  0  0  0
   10.1214   -4.6314   -1.8072 O   0  0  0  0  0  0  0  0  0  0  0  0
   12.5012   -4.0520   -2.0399 C   0  0  2  0  0  0  0  0  0  0  0  0
   12.7382   -5.0802   -1.0436 N   0  3  0  0  0  0  0  0  0  0  0  0
   12.5213   -2.6855   -1.3641 C   0  0  1  0  0  0  0  0  0  0  0  0
   13.8374   -2.3896   -0.9230 O   0  0  0  0  0  0  0  0  0  0  0  0
   12.0269   -1.5635   -2.2642 C   0  0  2  0  0  0  0  0  0  0  0  0
   11.8924   -0.3594   -1.5235 O   0  0  0  0  0  0  0  0  0  0  0  0
   10.2755   -0.8320   -3.8276 C   0  0  0  0  0  0  0  0  0  0  0  0
    9.1540   -0.0861   -3.2868 N   0  3  0  0  0  0  0  0  0  0  0  0
    7.1964   -4.6621   -4.8964 C   0  0  2  0  0  0  0  0  0  0  0  0
    7.9940   -5.9292   -4.6586 C   0  0  0  0  0  0  0  0  0  0  0  0
    9.2310   -5.6313   -3.8316 C   0  0  1  0  0  0  0  0  0  0  0  0
    8.8950   -5.0676   -2.4502 C   0  0  2  0  0  0  0  0  0  0  0  0
    7.9080   -3.8826   -2.5611 C   0  0  1  0  0  0  0  0  0  0  0  0
    6.7669   -4.0396   -3.5748 C   0  0  1  0  0  0  0  0  0  0  0  0
    6.0244   -4.9728   -5.6926 N   0  3  0  0  0  0  0  0  0  0  0  0
   10.0194   -6.8420   -3.7100 N   0  3  0  0  0  0  0  0  0  0  0  0
    7.3735   -3.5130   -1.2662 O   0  0  0  0  0  0  0  0  0  0  0  0
    6.1584   -2.7750   -3.8151 O   0  0  0  0  0  0  0  0  0  0  0  0
  1  2  1  0  0  0  0
  3  2  1  1  0  0  0
  3  4  1  0  0  0  0
  3  5  1  0  0  0  0
  4  8  1  0  0  0  0
  5  6  1  0  0  0  0
  5 12  1  1  0  0  0
  6  7  1  1  0  0  0
  6  8  1  0  0  0  0
  8 41  1  6  0  0  0
  9 10  1  0  0  0  0
  9 17  1  0  0  0  0
  9 19  1  6  0  0  0
 10 11  1  0  0  0  0
 11 12  1  6  0  0  0
 11 13  1  0  0  0  0
 13 14  1  6  0  0  0
 13 15  1  0  0  0  0
 15 16  1  1  0  0  0
 15 17  1  0  0  0  0
 17 18  1  6  0  0  0
 19 20  1  0  0  0  0
 21 22  1  0  0  0  0
 21 29  1  0  0  0  0
 21 31  1  6  0  0  0
 22 23  1  0  0  0  0
 23 24  1  1  0  0  0
 23 25  1  0  0  0  0
 25 26  1  1  0  0  0
 25 27  1  0  0  0  0
 27 28  1  6  0  0  0
 27 29  1  0  0  0  0
 29 30  1  1  0  0  0
 31 32  1  0  0  0  0
 33 34  1  0  0  0  0
 33 38  1  0  0  0  0
 33 39  1  6  0  0  0
 34 35  1  0  0  0  0
 35 36  1  0  0  0  0
 35 40  1  1  0  0  0
 36 24  1  6  0  0  0
 36 37  1  0  0  0  0
 37 38  1  0  0  0  0
 37 41  1  1  0  0  0
 38 42  1  6  0  0  0
M  CHG  6  14   1  20   1  26   1  32   1  39   1  40   1
M  END
>  <CHROM.1>
66.54037829,92.02130678,32.81523070,63.80583765,-164.37568500,-166.62203322
97.49038572,-109.45368644,-61.73778504,44.22746911,-176.34025107,130.92838152
63.78626380,24.22971199,-52.18421271,-60.10070490,52.50792228,-174.51338654
-70.34685200,-52.53779176,77.27310401,176.19067171,9.34427859,-1.49031657
-0.91777864,1.52748245,0.05903312,0.67035406

>  <Name>


>  <RI>
0

>  <Rbt.Current_Directory>
/home/itssahil/PROJECTS/Mol_Feturizer/New_Systems/rnas/1qd3

>  <Rbt.Executable>
rbdock ($Id: //depot/dev/client3/rdock/2013.1/src/exe/rbdock.cxx#4 $)

>  <Rbt.Library>
libRbt.so (2013.1, Build901 2013/11/27)

>  <Rbt.Parameter_File>
/export/apps/rDock/src/rDock_2013.1_src/data/scripts/dock_solv.prm

>  <Rbt.Receptor>
prm/pocket_docking_3.prm

>  <SCORE>
-43.2759

>  <SCORE.INTER>
-34.1127

>  <SCORE.INTER.CONST>
1

>  <SCORE.INTER.POLAR>
-5.58901

>  <SCORE.INTER.ROT>
9

>  <SCORE.INTER.SOLV>
38.7443

>  <SCORE.INTER.VDW>
-26.6266

>  <SCORE.INTER.norm>
-0.812208

>  <SCORE.INTRA>
-10.0329

>  <SCORE.INTRA.DIHEDRAL>
-9.92323

>  <SCORE.INTRA.DIHEDRAL.0>
40.6252

>  <SCORE.INTRA.POLAR>
-0.201206

>  <SCORE.INTRA.POLAR.0>
-1.20161

>  <SCORE.INTRA.REPUL>
-0.115675

>  <SCORE.INTRA.REPUL.0>
0.115675

>  <SCORE.INTRA.SOLV>
-3.92744

>  <SCORE.INTRA.SOLV.lig_0>
-154.895

>  <SCORE.INTRA.VDW>
-1.84509

>  <SCORE.INTRA.VDW.0>
2.2925

>  <SCORE.INTRA.norm>
-0.238878

>  <SCORE.RESTR>
0.869757

>  <SCORE.RESTR.CAVITY>
0.869757

>  <SCORE.RESTR.norm>
0.0207085

>  <SCORE.SYSTEM>
0

>  <SCORE.SYSTEM.CONST>
0

>  <SCORE.SYSTEM.DIHEDRAL>
0

>  <SCORE.SYSTEM.SOLV>
0

>  <SCORE.SYSTEM.norm>
0

>  <SCORE.heavy>
42

>  <SCORE.norm>
-1.03038

>  <RMSD>
8.361

$$$$

 OpenBabel11021811413D
libRbt.so/2013.1/901 2013/11/27
 42 45  0  0  0  0  0  0  0  0999 V2000
   10.8885   -0.3040   -3.3299 O   0  0  0  0  0  0  0  0  0  0  0  0
   10.0949    0.3983   -2.3839 C   0  0  0  0  0  0  0  0  0  0  0  0
    8.7124   -0.2478   -2.2868 C   0  0  1  0  0  0  0  0  0  0  0  0
    8.6736   -1.5122   -2.9835 O   0  0  0  0  0  0  0  0  0  0  0  0
    8.2862   -0.5494   -0.8596 C   0  0  2  0  0  0  0  0  0  0  0  0
    7.1999   -1.5826   -1.1072 C   0  0  1  0  0  0  0  0  0  0  0  0
    6.0097   -0.9343   -1.5420 O   0  0  0  0  0  0  0  0  0  0  0  0
    7.7959   -2.4133   -2.2620 C   0  0  2  0  0  0  0  0  0  0  0  0
   10.8441    2.4675    0.5836 C   0  0  2  0  0  0  0  0  0  0  0  0
    9.8005    1.8710   -0.2014 O   0  0  0  0  0  0  0  0  0  0  0  0
    8.7864    1.2674    0.6221 C   0  0  2  0  0  0  0  0  0  0  0  0
    7.7851    0.6279   -0.1964 O   0  0  0  0  0  0  0  0  0  0  0  0
    8.1359    2.3172    1.5393 C   0  0  2  0  0  0  0  0  0  0  0  0
    7.2047    3.1449    0.7949 N   0  3  0  0  0  0  0  0  0  0  0  0
    9.1609    3.1891    2.2740 C   0  0  1  0  0  0  0  0  0  0  0  0
    9.7070    2.4592    3.3611 O   0  0  0  0  0  0  0  0  0  0  0  0
   10.2867    3.6566    1.3555 C   0  0  2  0  0  0  0  0  0  0  0  0
    9.7989    4.6418    0.4522 O   0  0  0  0  0  0  0  0  0  0  0  0
   12.0087    2.8945   -0.3053 C   0  0  0  0  0  0  0  0  0  0  0  0
   11.5520    3.8112   -1.3330 N   0  3  0  0  0  0  0  0  0  0  0  0
    9.3729   -5.6156    0.9223 C   0  0  1  0  0  0  0  0  0  0  0  0
    9.2054   -6.4240   -0.2612 O   0  0  0  0  0  0  0  0  0  0  0  0
    7.8608   -6.9315   -0.4226 C   0  0  2  0  0  0  0  0  0  0  0  0
    6.9033   -5.8692   -0.6559 O   0  0  0  0  0  0  0  0  0  0  0  0
    7.4565   -7.7846    0.7859 C   0  0  2  0  0  0  0  0  0  0  0  0
    6.0444   -8.1103    0.7122 N   0  3  0  0  0  0  0  0  0  0  0  0
    7.7376   -7.0687    2.1023 C   0  0  1  0  0  0  0  0  0  0  0  0
    7.5733   -7.9737    3.1832 O   0  0  0  0  0  0  0  0  0  0  0  0
    9.1272   -6.4537    2.1663 C   0  0  2  0  0  0  0  0  0  0  0  0
    9.2575   -5.6484    3.3286 O   0  0  0  0  0  0  0  0  0  0  0  0
   10.8024   -5.0865    0.9953 C   0  0  0  0  0  0  0  0  0  0  0  0
   11.0304   -4.0791   -0.0246 N   0  3  0  0  0  0  0  0  0  0  0  0
    8.1626   -5.8715   -4.7196 C   0  0  2  0  0  0  0  0  0  0  0  0
    6.7207   -6.2318   -4.4209 C   0  0  0  0  0  0  0  0  0  0  0  0
    6.5513   -6.5727   -2.9519 C   0  0  1  0  0  0  0  0  0  0  0  0
    6.9033   -5.4036   -2.0310 C   0  0  2  0  0  0  0  0  0  0  0  0
    8.2879   -4.8151   -2.3881 C   0  0  1  0  0  0  0  0  0  0  0  0
    8.6043   -4.6782   -3.8832 C   0  0  1  0  0  0  0  0  0  0  0  0
    8.2984   -5.5560   -6.1289 N   0  3  0  0  0  0  0  0  0  0  0  0
    5.1875   -7.0088   -2.7235 N   0  3  0  0  0  0  0  0  0  0  0  0
    8.5188   -3.5533   -1.7148 O   0  0  0  0  0  0  0  0  0  0  0  0
    9.9993   -4.4565   -4.0622 O   0  0  0  0  0  0  0  0  0  0  0  0
  1  2  1  0  0  0  0
  3  2  1  1  0  0  0
  3  4  1  0  0  0  0
  3  5  1  0  0  0  0
  4  8  1  0  0  0  0
  5  6  1  0  0  0  0
  5 12  1  6  0  0  0
  6  7  1  6  0  0  0
  6  8  1  0  0  0  0
  8 41  1  1  0  0  0
  9 10  1  0  0  0  0
  9 17  1  0  0  0  0
  9 19  1  6  0  0  0
 10 11  1  0  0  0  0
 11 12  1  6  0  0  0
 11 13  1  0  0  0  0
 13 14  1  6  0  0  0
 13 15  1  0  0  0  0
 15 16  1  1  0  0  0
 15 17  1  0  0  0  0
 17 18  1  6  0  0  0
 19 20  1  0  0  0  0
 21 22  1  0  0  0  0
 21 29  1  0  0  0  0
 21 31  1  1  0  0  0
 22 23  1  0  0  0  0
 23 24  1  1  0  0  0
 23 25  1  0  0  0  0
 25 26  1  6  0  0  0
 25 27  1  0  0  0  0
 27 28  1  1  0  0  0
 27 29  1  0  0  0  0
 29 30  1  1  0  0  0
 31 32  1  0  0  0  0
 33 34  1  0  0  0  0
 33 38  1  0  0  0  0
 33 39  1  6  0  0  0
 34 35  1  0  0  0  0
 35 36  1  0  0  0  0
 35 40  1  6  0  0  0
 36 24  1  1  0  0  0
 36 37  1  0  0  0  0
 37 38  1  0  0  0  0
 37 41  1  1  0  0  0
 38 42  1  1  0  0  0
M  CHG  6  14   1  20   1  26   1  32   1  39   1  40   1
M  END
>  <CHROM.1>
-53.94280635,10.39255859,-97.34566007,-87.92412442,-107.12074196,57.07212591
69.76396310,56.84866370,179.74371156,-175.22505949,-68.93891517,70.69493158
79.73856655,59.87726406,32.38644276,-60.97465222,70.36116058,-6.16561363
84.88042889,-15.84756831,-75.05584697,-57.45331242,8.62445578,-2.49799893
-0.71913737,0.07940552,-1.35086378,-1.34405847

>  <Name>


>  <RI>
0

>  <Rbt.Current_Directory>
/home/itssahil/PROJECTS/Mol_Feturizer/New_Systems/rnas/1qd3

>  <Rbt.Executable>
rbdock ($Id: //depot/dev/client3/rdock/2013.1/src/exe/rbdock.cxx#4 $)

>  <Rbt.Library>
libRbt.so (2013.1, Build901 2013/11/27)

>  <Rbt.Parameter_File>
/export/apps/rDock/src/rDock_2013.1_src/data/scripts/dock_solv.prm

>  <Rbt.Receptor>
prm/pocket_docking_5.prm

>  <SCORE>
-67.0513

>  <SCORE.INTER>
-53.5996

>  <SCORE.INTER.CONST>
1

>  <SCORE.INTER.POLAR>
-8.75713

>  <SCORE.INTER.ROT>
9

>  <SCORE.INTER.SOLV>
47.3059

>  <SCORE.INTER.VDW>
-31.9113

>  <SCORE.INTER.norm>
-1.27618

>  <SCORE.INTRA>
-13.4517

>  <SCORE.INTRA.DIHEDRAL>
-5.87601

>  <SCORE.INTRA.DIHEDRAL.0>
40.6252

>  <SCORE.INTRA.POLAR>
-0.485666

>  <SCORE.INTRA.POLAR.0>
-1.20161

>  <SCORE.INTRA.REPUL>
-0.115675

>  <SCORE.INTRA.REPUL.0>
0.115675

>  <SCORE.INTRA.SOLV>
-6.14948

>  <SCORE.INTRA.SOLV.lig_0>
-154.895

>  <SCORE.INTRA.VDW>
-5.20935

>  <SCORE.INTRA.VDW.0>
2.2925

>  <SCORE.INTRA.norm>
-0.320279

>  <SCORE.RESTR>
0

>  <SCORE.RESTR.CAVITY>
0

>  <SCORE.RESTR.norm>
0

>  <SCORE.SYSTEM>
0

>  <SCORE.SYSTEM.CONST>
0

>  <SCORE.SYSTEM.DIHEDRAL>
0

>  <SCORE.SYSTEM.SOLV>
0

>  <SCORE.SYSTEM.norm>
0

>  <SCORE.heavy>
42

>  <SCORE.norm>
-1.59646

>  <RMSD>
8.409

$$$$

 OpenBabel11021811413D
libRbt.so/2013.1/901 2013/11/27
 42 45  0  0  0  0  0  0  0  0999 V2000
    5.0290   -3.3008   -2.6288 O   0  0  0  0  0  0  0  0  0  0  0  0
    4.6224   -4.3325   -3.5165 C   0  0  0  0  0  0  0  0  0  0  0  0
    5.6659   -4.5063   -4.6208 C   0  0  1  0  0  0  0  0  0  0  0  0
    6.7930   -3.6257   -4.4214 O   0  0  0  0  0  0  0  0  0  0  0  0
    6.2450   -5.9097   -4.6883 C   0  0  2  0  0  0  0  0  0  0  0  0
    7.5245   -5.6445   -5.4638 C   0  0  1  0  0  0  0  0  0  0  0  0
    7.2243   -5.4818   -6.8456 O   0  0  0  0  0  0  0  0  0  0  0  0
    7.9954   -4.3020   -4.8683 C   0  0  2  0  0  0  0  0  0  0  0  0
    5.1660  -10.3649   -4.5354 C   0  0  2  0  0  0  0  0  0  0  0  0
    4.7501   -9.0010   -4.7036 O   0  0  0  0  0  0  0  0  0  0  0  0
    5.7903   -8.1885   -5.2769 C   0  0  2  0  0  0  0  0  0  0  0  0
    5.3609   -6.8149   -5.3782 O   0  0  0  0  0  0  0  0  0  0  0  0
    6.1974   -8.7243   -6.6602 C   0  0  2  0  0  0  0  0  0  0  0  0
    5.2076   -8.3706   -7.6610 N   0  3  0  0  0  0  0  0  0  0  0  0
    6.4512  -10.2364   -6.6668 C   0  0  1  0  0  0  0  0  0  0  0  0
    7.7239  -10.5027   -6.0992 O   0  0  0  0  0  0  0  0  0  0  0  0
    5.3789  -11.0062   -5.9006 C   0  0  2  0  0  0  0  0  0  0  0  0
    4.1614  -11.0059   -6.6371 O   0  0  0  0  0  0  0  0  0  0  0  0
    4.1361  -11.1450   -3.7233 C   0  0  0  0  0  0  0  0  0  0  0  0
    4.0608  -10.6277   -2.3699 N   0  3  0  0  0  0  0  0  0  0  0  0
   12.2593   -3.7610   -7.1468 C   0  0  1  0  0  0  0  0  0  0  0  0
   11.1714   -4.3973   -6.4441 O   0  0  0  0  0  0  0  0  0  0  0  0
   11.4938   -4.7362   -5.0757 C   0  0  2  0  0  0  0  0  0  0  0  0
   11.7180   -3.5580   -4.2624 O   0  0  0  0  0  0  0  0  0  0  0  0
   12.6997   -5.6821   -5.0229 C   0  0  2  0  0  0  0  0  0  0  0  0
   13.1419   -5.8450   -3.6505 N   0  3  0  0  0  0  0  0  0  0  0  0
   13.8606   -5.1651   -5.8653 C   0  0  1  0  0  0  0  0  0  0  0  0
   14.8542   -6.1722   -5.9792 O   0  0  0  0  0  0  0  0  0  0  0  0
   13.4391   -4.7131   -7.2551 C   0  0  2  0  0  0  0  0  0  0  0  0
   14.5213   -4.0732   -7.9153 O   0  0  0  0  0  0  0  0  0  0  0  0
   11.8248   -3.3990   -8.5642 C   0  0  0  0  0  0  0  0  0  0  0  0
   11.3265   -4.5690   -9.2638 N   0  3  0  0  0  0  0  0  0  0  0  0
    8.9432   -1.0880   -2.1890 C   0  0  2  0  0  0  0  0  0  0  0  0
    9.7661   -0.4601   -3.2966 C   0  0  0  0  0  0  0  0  0  0  0  0
   10.9535   -1.3400   -3.6408 C   0  0  1  0  0  0  0  0  0  0  0  0
   10.5367   -2.7226   -4.1442 C   0  0  2  0  0  0  0  0  0  0  0  0
    9.5211   -3.3794   -3.1808 C   0  0  1  0  0  0  0  0  0  0  0  0
    8.4339   -2.4606   -2.6079 C   0  0  1  0  0  0  0  0  0  0  0  0
    7.8196   -0.2260   -1.8755 N   0  3  0  0  0  0  0  0  0  0  0  0
   11.7711   -0.6631   -4.6286 N   0  3  0  0  0  0  0  0  0  0  0  0
    8.9158   -4.5571   -3.7686 O   0  0  0  0  0  0  0  0  0  0  0  0
    7.8000   -3.0954   -1.5023 O   0  0  0  0  0  0  0  0  0  0  0  0
  1  2  1  0  0  0  0
  3  2  1  1  0  0  0
  3  4  1  0  0  0  0
  3  5  1  0  0  0  0
  4  8  1  0  0  0  0
  5  6  1  0  0  0  0
  5 12  1  6  0  0  0
  6  7  1  6  0  0  0
  6  8  1  0  0  0  0
  8 41  1  1  0  0  0
  9 10  1  0  0  0  0
  9 17  1  0  0  0  0
  9 19  1  6  0  0  0
 10 11  1  0  0  0  0
 11 12  1  6  0  0  0
 11 13  1  0  0  0  0
 13 14  1  6  0  0  0
 13 15  1  0  0  0  0
 15 16  1  1  0  0  0
 15 17  1  0  0  0  0
 17 18  1  6  0  0  0
 19 20  1  0  0  0  0
 21 22  1  0  0  0  0
 21 29  1  0  0  0  0
 21 31  1  6  0  0  0
 22 23  1  0  0  0  0
 23 24  1  1  0  0  0
 23 25  1  0  0  0  0
 25 26  1  1  0  0  0
 25 27  1  0  0  0  0
 27 28  1  6  0  0  0
 27 29  1  0  0  0  0
 29 30  1  1  0  0  0
 31 32  1  0  0  0  0
 33 34  1  0  0  0  0
 33 38  1  0  0  0  0
 33 39  1  6  0  0  0
 34 35  1  0  0  0  0
 35 36  1  0  0  0  0
 35 40  1  6  0  0  0
 36 24  1  1  0  0  0
 36 37  1  0  0  0  0
 37 38  1  0  0  0  0
 37 41  1  6  0  0  0
 38 42  1  1  0  0  0
M  CHG  6  14   1  20   1  26   1  32   1  39   1  40   1
M  END
>  <CHROM.1>
57.00208027,2.66879363,-171.10363993,152.66196455,-67.76597204,-65.22615855
123.16706218,-71.29963173,-176.76150010,-173.47378103,156.95966671,-55.25356880
63.24929243,-163.52758664,-169.54054644,-173.84546752,58.18454304,-174.89293344
164.29886671,49.04175197,-70.05316432,102.22617399,8.61893096,-5.46434615
-5.00800226,2.50628873,-0.41605460,-2.64268827

>  <Name>


>  <RI>
0

>  <Rbt.Current_Directory>
/home/itssahil/PROJECTS/Mol_Feturizer/New_Systems/rnas/1qd3

>  <Rbt.Executable>
rbdock ($Id: //depot/dev/client3/rdock/2013.1/src/exe/rbdock.cxx#4 $)

>  <Rbt.Library>
libRbt.so (2013.1, Build901 2013/11/27)

>  <Rbt.Parameter_File>
/export/apps/rDock/src/rDock_2013.1_src/data/scripts/dock_solv.prm

>  <Rbt.Receptor>
prm/pocket_docking_6.prm

>  <SCORE>
-39.483

>  <SCORE.INTER>
-18.4169

>  <SCORE.INTER.CONST>
1

>  <SCORE.INTER.POLAR>
-3.31048

>  <SCORE.INTER.ROT>
9

>  <SCORE.INTER.SOLV>
26.3842

>  <SCORE.INTER.VDW>
-19.6378

>  <SCORE.INTER.norm>
-0.438498

>  <SCORE.INTRA>
-21.1509

>  <SCORE.INTRA.DIHEDRAL>
-12.3896

>  <SCORE.INTRA.DIHEDRAL.0>
40.6252

>  <SCORE.INTRA.POLAR>
-0.0396284

>  <SCORE.INTRA.POLAR.0>
-1.20161

>  <SCORE.INTRA.REPUL>
-0.115675

>  <SCORE.INTRA.REPUL.0>
0.115675

>  <SCORE.INTRA.SOLV>
-11.9788

>  <SCORE.INTRA.SOLV.lig_0>
-154.895

>  <SCORE.INTRA.VDW>
-8.25364

>  <SCORE.INTRA.VDW.0>
2.2925

>  <SCORE.INTRA.norm>
-0.503594

>  <SCORE.RESTR>
0.0848746

>  <SCORE.RESTR.CAVITY>
0.0848746

>  <SCORE.RESTR.norm>
0.00202082

>  <SCORE.SYSTEM>
0

>  <SCORE.SYSTEM.CONST>
0

>  <SCORE.SYSTEM.DIHEDRAL>
0

>  <SCORE.SYSTEM.SOLV>
0

>  <SCORE.SYSTEM.norm>
0

>  <SCORE.heavy>
42

>  <SCORE.norm>
-0.940071

>  <RMSD>
8.446

$$$$

 OpenBabel11021811413D
libRbt.so/2013.1/901 2013/11/27
 42 45  0  0  0  0  0  0  0  0999 V2000
   14.2070   -3.0208   -1.8077 O   0  0  0  0  0  0  0  0  0  0  0  0
   13.5137   -4.0619   -2.4808 C   0  0  0  0  0  0  0  0  0  0  0  0
   12.5196   -3.4626   -3.4763 C   0  0  1  0  0  0  0  0  0  0  0  0
   11.9087   -4.4876   -4.2899 O   0  0  0  0  0  0  0  0  0  0  0  0
   11.3703   -2.7239   -2.8108 C   0  0  2  0  0  0  0  0  0  0  0  0
   10.3592   -2.7051   -3.9449 C   0  0  1  0  0  0  0  0  0  0  0  0
   10.7196   -1.7074   -4.8939 O   0  0  0  0  0  0  0  0  0  0  0  0
   10.5369   -4.1063   -4.5645 C   0  0  2  0  0  0  0  0  0  0  0  0
   10.6741    0.8325    0.2829 C   0  0  2  0  0  0  0  0  0  0  0  0
   11.4833    0.3073   -0.7806 O   0  0  0  0  0  0  0  0  0  0  0  0
   10.8955   -0.8638   -1.3753 C   0  0  2  0  0  0  0  0  0  0  0  0
   11.7600   -1.3990   -2.3989 O   0  0  0  0  0  0  0  0  0  0  0  0
    9.5111   -0.5382   -1.9619 C   0  0  2  0  0  0  0  0  0  0  0  0
    9.6396    0.1787   -3.2173 N   0  3  0  0  0  0  0  0  0  0  0  0
    8.6152    0.2380   -0.9895 C   0  0  1  0  0  0  0  0  0  0  0  0
    8.0853   -0.6549   -0.0226 O   0  0  0  0  0  0  0  0  0  0  0  0
    9.3656    1.3659   -0.2864 C   0  0  2  0  0  0  0  0  0  0  0  0
    9.6250    2.4222   -1.2037 O   0  0  0  0  0  0  0  0  0  0  0  0
   11.4233    1.9260    1.0391 C   0  0  0  0  0  0  0  0  0  0  0  0
   12.8502    1.6640    1.0265 N   0  3  0  0  0  0  0  0  0  0  0  0
    7.5402   -6.1127   -1.5981 C   0  0  1  0  0  0  0  0  0  0  0  0
    8.8270   -5.4641   -1.6727 O   0  0  0  0  0  0  0  0  0  0  0  0
    9.9246   -6.3228   -1.2862 C   0  0  2  0  0  0  0  0  0  0  0  0
   10.1002   -7.4279   -2.2069 O   0  0  0  0  0  0  0  0  0  0  0  0
    9.7380   -6.8247    0.1508 C   0  0  2  0  0  0  0  0  0  0  0  0
   10.7257   -7.8443    0.4516 N   0  3  0  0  0  0  0  0  0  0  0  0
    8.3427   -7.3978    0.3724 C   0  0  1  0  0  0  0  0  0  0  0  0
    8.1352   -7.6287    1.7573 O   0  0  0  0  0  0  0  0  0  0  0  0
    7.2346   -6.5030   -0.1612 C   0  0  2  0  0  0  0  0  0  0  0  0
    5.9842   -7.1729   -0.0949 O   0  0  0  0  0  0  0  0  0  0  0  0
    6.4454   -5.1558   -2.0610 C   0  0  0  0  0  0  0  0  0  0  0  0
    6.6236   -3.8441   -1.4658 N   0  3  0  0  0  0  0  0  0  0  0  0
    8.9158   -7.9963   -6.2533 C   0  0  2  0  0  0  0  0  0  0  0  0
    8.2191   -8.8166   -5.1857 C   0  0  0  0  0  0  0  0  0  0  0  0
    9.0155   -8.7943   -3.8941 C   0  0  1  0  0  0  0  0  0  0  0  0
    9.1713   -7.3847   -3.3217 C   0  0  2  0  0  0  0  0  0  0  0  0
    9.6871   -6.4035   -4.3997 C   0  0  1  0  0  0  0  0  0  0  0  0
    9.0804   -6.5516   -5.8012 C   0  0  1  0  0  0  0  0  0  0  0  0
    8.1385   -8.0385   -7.4772 N   0  3  0  0  0  0  0  0  0  0  0  0
    8.3749   -9.6679   -2.9304 N   0  3  0  0  0  0  0  0  0  0  0  0
    9.5853   -5.0274   -3.9582 O   0  0  0  0  0  0  0  0  0  0  0  0
    9.8721   -5.8399   -6.7467 O   0  0  0  0  0  0  0  0  0  0  0  0
  1  2  1  0  0  0  0
  3  2  1  1  0  0  0
  3  4  1  0  0  0  0
  3  5  1  0  0  0  0
  4  8  1  0  0  0  0
  5  6  1  0  0  0  0
  5 12  1  6  0  0  0
  6  7  1  6  0  0  0
  6  8  1  0  0  0  0
  8 41  1  1  0  0  0
  9 10  1  0  0  0  0
  9 17  1  0  0  0  0
  9 19  1  6  0  0  0
 10 11  1  0  0  0  0
 11 12  1  6  0  0  0
 11 13  1  0  0  0  0
 13 14  1  6  0  0  0
 13 15  1  0  0  0  0
 15 16  1  1  0  0  0
 15 17  1  0  0  0  0
 17 18  1  6  0  0  0
 19 20  1  0  0  0  0
 21 22  1  0  0  0  0
 21 29  1  0  0  0  0
 21 31  1  1  0  0  0
 22 23  1  0  0  0  0
 23 24  1  6  0  0  0
 23 25  1  0  0  0  0
 25 26  1  6  0  0  0
 25 27  1  0  0  0  0
 27 28  1  1  0  0  0
 27 29  1  0  0  0  0
 29 30  1  6  0  0  0
 31 32  1  0  0  0  0
 33 34  1  0  0  0  0
 33 38  1  0  0  0  0
 33 39  1  6  0  0  0
 34 35  1  0  0  0  0
 35 36  1  0  0  0  0
 35 40  1  1  0  0  0
 36 24  1  1  0  0  0
 36 37  1  0  0  0  0
 37 38  1  0  0  0  0
 37 41  1  1  0  0  0
 38 42  1  6  0  0  0
M  CHG  6  14   1  20   1  26   1  32   1  39   1  40   1
M  END
>  <CHROM.1>
65.85516022,173.27404864,-159.26238007,57.96794873,-60.09592077,-31.23253993
166.86404780,113.37701234,64.61431167,-63.23900727,-65.00679797,-45.50669745
2.19238534,-156.98773285,-170.73749578,65.69028129,-155.76486356,59.40874205
68.92903723,74.42778152,153.49898543,153.87279639,9.73836456,-4.09491648
-2.26806247,-1.01407523,-1.08329417,-2.33762705

>  <Name>


>  <RI>
0

>  <Rbt.Current_Directory>
/home/itssahil/PROJECTS/Mol_Feturizer/New_Systems/rnas/1qd3

>  <Rbt.Executable>
rbdock ($Id: //depot/dev/client3/rdock/2013.1/src/exe/rbdock.cxx#4 $)

>  <Rbt.Library>
libRbt.so (2013.1, Build901 2013/11/27)

>  <Rbt.Parameter_File>
/export/apps/rDock/src/rDock_2013.1_src/data/scripts/dock_solv.prm

>  <Rbt.Receptor>
prm/pocket_docking_4.prm

>  <SCORE>
-30.584

>  <SCORE.INTER>
-19.0177

>  <SCORE.INTER.CONST>
1

>  <SCORE.INTER.POLAR>
-4.81309

>  <SCORE.INTER.ROT>
9

>  <SCORE.INTER.SOLV>
26.561

>  <SCORE.INTER.VDW>
-15.0885

>  <SCORE.INTER.norm>
-0.452803

>  <SCORE.INTRA>
-12.0639

>  <SCORE.INTRA.DIHEDRAL>
-11.1347

>  <SCORE.INTRA.DIHEDRAL.0>
40.6252

>  <SCORE.INTRA.POLAR>
0.773477

>  <SCORE.INTRA.POLAR.0>
-1.20161

>  <SCORE.INTRA.REPUL>
-0.115675

>  <SCORE.INTRA.REPUL.0>
0.115675

>  <SCORE.INTRA.SOLV>
-7.27833

>  <SCORE.INTRA.SOLV.lig_0>
-154.895

>  <SCORE.INTRA.VDW>
-4.90881

>  <SCORE.INTRA.VDW.0>
2.2925

>  <SCORE.INTRA.norm>
-0.287236

>  <SCORE.RESTR>
0.497611

>  <SCORE.RESTR.CAVITY>
0.497611

>  <SCORE.RESTR.norm>
0.0118479

>  <SCORE.SYSTEM>
0

>  <SCORE.SYSTEM.CONST>
0

>  <SCORE.SYSTEM.DIHEDRAL>
0

>  <SCORE.SYSTEM.SOLV>
0

>  <SCORE.SYSTEM.norm>
0

>  <SCORE.heavy>
42

>  <SCORE.norm>
-0.728191

>  <RMSD>
8.447

$$$$

 OpenBabel11021811413D
libRbt.so/2013.1/901 2013/11/27
 42 45  0  0  0  0  0  0  0  0999 V2000
    8.6815   -5.6660    2.2554 O   0  0  0  0  0  0  0  0  0  0  0  0
    8.5747   -7.0387    2.6044 C   0  0  0  0  0  0  0  0  0  0  0  0
    8.0286   -7.8336    1.4176 C   0  0  1  0  0  0  0  0  0  0  0  0
    6.8180   -7.2397    0.9004 O   0  0  0  0  0  0  0  0  0  0  0  0
    8.9902   -7.9011    0.2429 C   0  0  2  0  0  0  0  0  0  0  0  0
    8.0326   -8.2683   -0.8783 C   0  0  1  0  0  0  0  0  0  0  0  0
    7.7092   -9.6523   -0.8006 O   0  0  0  0  0  0  0  0  0  0  0  0
    6.7903   -7.4200   -0.5382 C   0  0  2  0  0  0  0  0  0  0  0  0
   11.6973   -8.3914    3.6468 C   0  0  2  0  0  0  0  0  0  0  0  0
   10.7214   -8.8627    2.7050 O   0  0  0  0  0  0  0  0  0  0  0  0
   11.0360   -8.4625    1.3591 C   0  0  2  0  0  0  0  0  0  0  0  0
   10.0072   -8.9015    0.4477 O   0  0  0  0  0  0  0  0  0  0  0  0
   12.4032   -9.0232    0.9315 C   0  0  2  0  0  0  0  0  0  0  0  0
   12.3036  -10.4358    0.6133 N   0  3  0  0  0  0  0  0  0  0  0  0
   13.5021   -8.7834    1.9734 C   0  0  1  0  0  0  0  0  0  0  0  0
   13.9393   -7.4360    1.8951 O   0  0  0  0  0  0  0  0  0  0  0  0
   13.0293   -9.0856    3.3928 C   0  0  2  0  0  0  0  0  0  0  0  0
   12.8909  -10.4906    3.5697 O   0  0  0  0  0  0  0  0  0  0  0  0
   11.2238   -8.6312    5.0775 C   0  0  0  0  0  0  0  0  0  0  0  0
   11.9833   -7.8152    6.0060 N   0  3  0  0  0  0  0  0  0  0  0  0
    6.6425   -3.4949   -2.9706 C   0  0  1  0  0  0  0  0  0  0  0  0
    7.3641   -3.9942   -4.1161 O   0  0  0  0  0  0  0  0  0  0  0  0
    8.7925   -4.0720   -3.9039 C   0  0  2  0  0  0  0  0  0  0  0  0
    9.1392   -5.0487   -2.8912 O   0  0  0  0  0  0  0  0  0  0  0  0
    9.3636   -2.6912   -3.5586 C   0  0  2  0  0  0  0  0  0  0  0  0
   10.7484   -2.8174   -3.1438 N   0  3  0  0  0  0  0  0  0  0  0  0
    8.5681   -2.0120   -2.4494 C   0  0  1  0  0  0  0  0  0  0  0  0
    8.9778   -0.6587   -2.3273 O   0  0  0  0  0  0  0  0  0  0  0  0
    7.0642   -2.0658   -2.6700 C   0  0  2  0  0  0  0  0  0  0  0  0
    6.3794   -1.5883   -1.5212 O   0  0  0  0  0  0  0  0  0  0  0  0
    5.1445   -3.4843   -3.2610 C   0  0  0  0  0  0  0  0  0  0  0  0
    4.8115   -4.4626   -4.2802 N   0  3  0  0  0  0  0  0  0  0  0  0
    6.3370   -7.6968   -4.6899 C   0  0  2  0  0  0  0  0  0  0  0  0
    7.8120   -7.9483   -4.9336 C   0  0  0  0  0  0  0  0  0  0  0  0
    8.6270   -6.7193   -4.5757 C   0  0  1  0  0  0  0  0  0  0  0  0
    8.4933   -6.3317   -3.1023 C   0  0  2  0  0  0  0  0  0  0  0  0
    7.0069   -6.2484   -2.6846 C   0  0  1  0  0  0  0  0  0  0  0  0
    6.0840   -7.3463   -3.2298 C   0  0  1  0  0  0  0  0  0  0  0  0
    5.5809   -8.8827   -5.0446 N   0  3  0  0  0  0  0  0  0  0  0  0
   10.0159   -6.9596   -4.9155 N   0  3  0  0  0  0  0  0  0  0  0  0
    6.8637   -6.1493   -1.2464 O   0  0  0  0  0  0  0  0  0  0  0  0
    4.7239   -6.9623   -3.0570 O   0  0  0  0  0  0  0  0  0  0  0  0
  1  2  1  0  0  0  0
  3  2  1  1  0  0  0
  3  4  1  0  0  0  0
  3  5  1  0  0  0  0
  4  8  1  0  0  0  0
  5  6  1  0  0  0  0
  5 12  1  1  0  0  0
  6  7  1  1  0  0  0
  6  8  1  0  0  0  0
  8 41  1  6  0  0  0
  9 10  1  0  0  0  0
  9 17  1  0  0  0  0
  9 19  1  1  0  0  0
 10 11  1  0  0  0  0
 11 12  1  6  0  0  0
 11 13  1  0  0  0  0
 13 14  1  1  0  0  0
 13 15  1  0  0  0  0
 15 16  1  1  0  0  0
 15 17  1  0  0  0  0
 17 18  1  6  0  0  0
 19 20  1  0  0  0  0
 21 22  1  0  0  0  0
 21 29  1  0  0  0  0
 21 31  1  6  0  0  0
 22 23  1  0  0  0  0
 23 24  1  1  0  0  0
 23 25  1  0  0  0  0
 25 26  1  1  0  0  0
 25 27  1  0  0  0  0
 27 28  1  6  0  0  0
 27 29  1  0  0  0  0
 29 30  1  1  0  0  0
 31 32  1  0  0  0  0
 33 34  1  0  0  0  0
 33 38  1  0  0  0  0
 33 39  1  1  0  0  0
 34 35  1  0  0  0  0
 35 36  1  0  0  0  0
 35 40  1  1  0  0  0
 36 24  1  6  0  0  0
 36 37  1  0  0  0  0
 37 38  1  0  0  0  0
 37 41  1  1  0  0  0
 38 42  1  6  0  0  0
M  CHG  6  14   1  20   1  26   1  32   1  39   1  40   1
M  END
>  <CHROM.1>
-68.31937285,-51.51903986,-77.16485988,-175.98085610,172.74384245,-162.68202510
92.51435055,49.32892296,56.71679280,-67.54499961,175.35042941,24.87662555
49.17831294,45.81269508,-165.26962116,-173.48687891,63.75140195,-123.95469265
58.55580530,68.62709596,-88.35046415,-170.60118613,8.88511429,-6.54779480
-0.88034563,-0.59904588,-0.88631862,-0.14406140

>  <Name>


>  <RI>
0

>  <Rbt.Current_Directory>
/home/itssahil/PROJECTS/Mol_Feturizer/New_Systems/rnas/1qd3

>  <Rbt.Executable>
rbdock ($Id: //depot/dev/client3/rdock/2013.1/src/exe/rbdock.cxx#4 $)

>  <Rbt.Library>
libRbt.so (2013.1, Build901 2013/11/27)

>  <Rbt.Parameter_File>
/export/apps/rDock/src/rDock_2013.1_src/data/scripts/dock_solv.prm

>  <Rbt.Receptor>
prm/pocket_docking_8.prm

>  <SCORE>
-36.8382

>  <SCORE.INTER>
-19.3097

>  <SCORE.INTER.CONST>
1

>  <SCORE.INTER.POLAR>
-3.46034

>  <SCORE.INTER.ROT>
9

>  <SCORE.INTER.SOLV>
17.3636

>  <SCORE.INTER.VDW>
-16.7265

>  <SCORE.INTER.norm>
-0.459754

>  <SCORE.INTRA>
-17.5285

>  <SCORE.INTRA.DIHEDRAL>
-18.2874

>  <SCORE.INTRA.DIHEDRAL.0>
40.6252

>  <SCORE.INTRA.POLAR>
0.34975

>  <SCORE.INTRA.POLAR.0>
-1.20161

>  <SCORE.INTRA.REPUL>
-0.115675

>  <SCORE.INTRA.REPUL.0>
0.115675

>  <SCORE.INTRA.SOLV>
-9.02566

>  <SCORE.INTRA.SOLV.lig_0>
-154.895

>  <SCORE.INTRA.VDW>
-4.48274

>  <SCORE.INTRA.VDW.0>
2.2925

>  <SCORE.INTRA.norm>
-0.417345

>  <SCORE.RESTR>
0

>  <SCORE.RESTR.CAVITY>
0

>  <SCORE.RESTR.norm>
0

>  <SCORE.SYSTEM>
0

>  <SCORE.SYSTEM.CONST>
0

>  <SCORE.SYSTEM.DIHEDRAL>
0

>  <SCORE.SYSTEM.SOLV>
0

>  <SCORE.SYSTEM.norm>
0

>  <SCORE.heavy>
42

>  <SCORE.norm>
-0.877099

>  <RMSD>
8.448

$$$$

 OpenBabel11021811413D
libRbt.so/2013.1/901 2013/11/27
 42 45  0  0  0  0  0  0  0  0999 V2000
    5.6709  -10.2582   -7.4483 O   0  0  0  0  0  0  0  0  0  0  0  0
    7.0618  -10.0462   -7.6440 C   0  0  0  0  0  0  0  0  0  0  0  0
    7.4307   -8.6198   -7.2343 C   0  0  1  0  0  0  0  0  0  0  0  0
    7.0738   -8.3594   -5.8594 O   0  0  0  0  0  0  0  0  0  0  0  0
    8.9186   -8.3282   -7.3372 C   0  0  2  0  0  0  0  0  0  0  0  0
    9.0255   -7.1112   -6.4336 C   0  0  1  0  0  0  0  0  0  0  0  0
    8.5450   -5.9599   -7.1186 O   0  0  0  0  0  0  0  0  0  0  0  0
    8.0663   -7.4740   -5.2817 C   0  0  2  0  0  0  0  0  0  0  0  0
   12.8892   -8.6949   -8.3620 C   0  0  2  0  0  0  0  0  0  0  0  0
   11.4728   -8.9224   -8.3039 O   0  0  0  0  0  0  0  0  0  0  0  0
   10.7273   -7.8054   -8.8210 C   0  0  2  0  0  0  0  0  0  0  0  0
    9.3096   -8.0419   -8.6945 O   0  0  0  0  0  0  0  0  0  0  0  0
   11.0955   -7.5408  -10.2909 C   0  0  2  0  0  0  0  0  0  0  0  0
   10.4661   -8.5154  -11.1629 N   0  3  0  0  0  0  0  0  0  0  0  0
   12.6091   -7.5024  -10.5324 C   0  0  1  0  0  0  0  0  0  0  0  0
   13.1244   -6.2552  -10.0942 O   0  0  0  0  0  0  0  0  0  0  0  0
   13.3379   -8.6364   -9.8166 C   0  0  2  0  0  0  0  0  0  0  0  0
   13.0649   -9.8738  -10.4636 O   0  0  0  0  0  0  0  0  0  0  0  0
   13.6408   -9.7863   -7.6051 C   0  0  0  0  0  0  0  0  0  0  0  0
   15.0499   -9.4555   -7.5058 N   0  3  0  0  0  0  0  0  0  0  0  0
    9.7368   -4.6736   -2.9288 C   0  0  1  0  0  0  0  0  0  0  0  0
   10.4679   -5.8003   -3.4563 O   0  0  0  0  0  0  0  0  0  0  0  0
   11.0705   -6.6229   -2.4308 C   0  0  2  0  0  0  0  0  0  0  0  0
   10.0758   -7.2795   -1.6065 O   0  0  0  0  0  0  0  0  0  0  0  0
   12.0394   -5.7972   -1.5757 C   0  0  2  0  0  0  0  0  0  0  0  0
   12.4732   -6.5736   -0.4291 N   0  3  0  0  0  0  0  0  0  0  0  0
   11.4006   -4.5007   -1.0903 C   0  0  1  0  0  0  0  0  0  0  0  0
   12.3922   -3.6669   -0.5110 O   0  0  0  0  0  0  0  0  0  0  0  0
   10.6804   -3.7376   -2.1914 C   0  0  2  0  0  0  0  0  0  0  0  0
    9.9538   -2.6479   -1.6426 O   0  0  0  0  0  0  0  0  0  0  0  0
    9.0993   -3.8847   -4.0690 C   0  0  0  0  0  0  0  0  0  0  0  0
   10.0652   -3.6323   -5.1225 N   0  3  0  0  0  0  0  0  0  0  0  0
    5.8770   -7.9389   -1.7932 C   0  0  2  0  0  0  0  0  0  0  0  0
    6.3704   -6.6828   -1.1025 C   0  0  0  0  0  0  0  0  0  0  0  0
    7.8469   -6.8024   -0.7731 C   0  0  1  0  0  0  0  0  0  0  0  0
    8.7165   -6.9795   -2.0186 C   0  0  2  0  0  0  0  0  0  0  0  0
    8.1744   -8.1169   -2.9148 C   0  0  1  0  0  0  0  0  0  0  0  0
    6.6506   -8.1848   -3.0815 C   0  0  1  0  0  0  0  0  0  0  0  0
    4.4642   -7.8014   -2.0916 N   0  3  0  0  0  0  0  0  0  0  0  0
    8.2594   -5.6303   -0.0259 N   0  3  0  0  0  0  0  0  0  0  0  0
    8.8159   -8.1216   -4.2138 O   0  0  0  0  0  0  0  0  0  0  0  0
    6.2816   -9.4459   -3.6298 O   0  0  0  0  0  0  0  0  0  0  0  0
  1  2  1  0  0  0  0
  3  2  1  1  0  0  0
  3  4  1  0  0  0  0
  3  5  1  0  0  0  0
  4  8  1  0  0  0  0
  5  6  1  0  0  0  0
  5 12  1  6  0  0  0
  6  7  1  6  0  0  0
  6  8  1  0  0  0  0
  8 41  1  1  0  0  0
  9 10  1  0  0  0  0
  9 17  1  0  0  0  0
  9 19  1  1  0  0  0
 10 11  1  0  0  0  0
 11 12  1  6  0  0  0
 11 13  1  0  0  0  0
 13 14  1  6  0  0  0
 13 15  1  0  0  0  0
 15 16  1  1  0  0  0
 15 17  1  0  0  0  0
 17 18  1  6  0  0  0
 19 20  1  0  0  0  0
 21 22  1  0  0  0  0
 21 29  1  0  0  0  0
 21 31  1  6  0  0  0
 22 23  1  0  0  0  0
 23 24  1  1  0  0  0
 23 25  1  0  0  0  0
 25 26  1  1  0  0  0
 25 27  1  0  0  0  0
 27 28  1  6  0  0  0
 27 29  1  0  0  0  0
 29 30  1  1  0  0  0
 31 32  1  0  0  0  0
 33 34  1  0  0  0  0
 33 38  1  0  0  0  0
 33 39  1  6  0  0  0
 34 35  1  0  0  0  0
 35 36  1  0  0  0  0
 35 40  1  6  0  0  0
 36 24  1  1  0  0  0
 36 37  1  0  0  0  0
 37 38  1  0  0  0  0
 37 41  1  6  0  0  0
 38 42  1  1  0  0  0
M  CHG  6  14   1  20   1  26   1  32   1  39   1  40   1
M  END
>  <CHROM.1>
-176.52900557,57.63010486,-178.08420802,-173.16038582,-82.91300574,-172.02853273
55.86566482,46.72257632,-58.67971363,-66.86517263,-74.85582681,-48.00436525
1.13470070,-140.74707896,178.18189438,-177.20294113,-60.89569247,170.99980007
-96.68868264,45.89663560,-98.29895848,62.00372991,9.75665849,-7.17680465
-5.12471550,1.22659481,-0.36169205,-2.02731591

>  <Name>


>  <RI>
0

>  <Rbt.Current_Directory>
/home/itssahil/PROJECTS/Mol_Feturizer/New_Systems/rnas/1qd3

>  <Rbt.Executable>
rbdock ($Id: //depot/dev/client3/rdock/2013.1/src/exe/rbdock.cxx#4 $)

>  <Rbt.Library>
libRbt.so (2013.1, Build901 2013/11/27)

>  <Rbt.Parameter_File>
/export/apps/rDock/src/rDock_2013.1_src/data/scripts/dock_solv.prm

>  <Rbt.Receptor>
prm/pocket_docking_6.prm

>  <SCORE>
-22.6157

>  <SCORE.INTER>
-10.3691

>  <SCORE.INTER.CONST>
1

>  <SCORE.INTER.POLAR>
-4.37808

>  <SCORE.INTER.ROT>
9

>  <SCORE.INTER.SOLV>
21.03

>  <SCORE.INTER.VDW>
-8.92911

>  <SCORE.INTER.norm>
-0.246882

>  <SCORE.INTRA>
-12.2466

>  <SCORE.INTRA.DIHEDRAL>
-13.7062

>  <SCORE.INTRA.DIHEDRAL.0>
40.6252

>  <SCORE.INTRA.POLAR>
1.04187

>  <SCORE.INTRA.POLAR.0>
-1.20161

>  <SCORE.INTRA.REPUL>
-0.115675

>  <SCORE.INTRA.REPUL.0>
0.115675

>  <SCORE.INTRA.SOLV>
-7.70034

>  <SCORE.INTRA.SOLV.lig_0>
-154.895

>  <SCORE.INTRA.VDW>
-4.50737

>  <SCORE.INTRA.VDW.0>
2.2925

>  <SCORE.INTRA.norm>
-0.291587

>  <SCORE.RESTR>
0

>  <SCORE.RESTR.CAVITY>
0

>  <SCORE.RESTR.norm>
0

>  <SCORE.SYSTEM>
0

>  <SCORE.SYSTEM.CONST>
0

>  <SCORE.SYSTEM.DIHEDRAL>
0

>  <SCORE.SYSTEM.SOLV>
0

>  <SCORE.SYSTEM.norm>
0

>  <SCORE.heavy>
42

>  <SCORE.norm>
-0.538469

>  <RMSD>
8.458

$$$$

 OpenBabel11021811413D
libRbt.so/2013.1/901 2013/11/27
 42 45  0  0  0  0  0  0  0  0999 V2000
    7.1523   -6.5684    2.5823 O   0  0  0  0  0  0  0  0  0  0  0  0
    6.8582   -7.7683    1.8813 C   0  0  0  0  0  0  0  0  0  0  0  0
    7.3931   -7.6770    0.4517 C   0  0  1  0  0  0  0  0  0  0  0  0
    7.1018   -6.3906   -0.1367 O   0  0  0  0  0  0  0  0  0  0  0  0
    8.9011   -7.8412    0.3599 C   0  0  2  0  0  0  0  0  0  0  0  0
    9.1648   -7.2221   -1.0024 C   0  0  1  0  0  0  0  0  0  0  0  0
    8.7979   -8.1396   -2.0268 O   0  0  0  0  0  0  0  0  0  0  0  0
    8.2005   -6.0185   -1.0069 C   0  0  2  0  0  0  0  0  0  0  0  0
   11.4946   -8.9646    3.3180 C   0  0  2  0  0  0  0  0  0  0  0  0
   10.3139   -8.8236    2.5132 O   0  0  0  0  0  0  0  0  0  0  0  0
   10.4674   -9.4384    1.2212 C   0  0  2  0  0  0  0  0  0  0  0  0
    9.2873   -9.2284    0.4182 O   0  0  0  0  0  0  0  0  0  0  0  0
   10.7540  -10.9428    1.3664 C   0  0  2  0  0  0  0  0  0  0  0  0
    9.5415  -11.6682    1.6979 N   0  3  0  0  0  0  0  0  0  0  0  0
   11.8579  -11.2473    2.3860 C   0  0  1  0  0  0  0  0  0  0  0  0
   13.1236  -10.9797    1.8037 O   0  0  0  0  0  0  0  0  0  0  0  0
   11.7024  -10.4327    3.6673 C   0  0  2  0  0  0  0  0  0  0  0  0
   10.5970  -10.9183    4.4202 O   0  0  0  0  0  0  0  0  0  0  0  0
   11.3889   -8.1152    4.5814 C   0  0  0  0  0  0  0  0  0  0  0  0
   11.5489   -6.7092    4.2614 N   0  3  0  0  0  0  0  0  0  0  0  0
    8.3844   -5.5613   -4.0238 C   0  0  1  0  0  0  0  0  0  0  0  0
    8.0037   -4.1707   -4.0812 O   0  0  0  0  0  0  0  0  0  0  0  0
    6.6507   -3.9282   -3.6317 C   0  0  2  0  0  0  0  0  0  0  0  0
    6.4863   -4.2186   -2.2216 O   0  0  0  0  0  0  0  0  0  0  0  0
    5.6491   -4.7213   -4.4799 C   0  0  2  0  0  0  0  0  0  0  0  0
    4.3255   -4.6372   -3.8912 N   0  3  0  0  0  0  0  0  0  0  0  0
    6.0500   -6.1871   -4.6044 C   0  0  1  0  0  0  0  0  0  0  0  0
    5.2382   -6.8235   -5.5791 O   0  0  0  0  0  0  0  0  0  0  0  0
    7.5151   -6.3801   -4.9641 C   0  0  2  0  0  0  0  0  0  0  0  0
    7.8672   -7.7532   -4.8799 O   0  0  0  0  0  0  0  0  0  0  0  0
    9.8337   -5.7250   -4.4726 C   0  0  0  0  0  0  0  0  0  0  0  0
   10.1439   -4.8075   -5.5536 N   0  3  0  0  0  0  0  0  0  0  0  0
    9.3008   -1.1426   -1.3752 C   0  0  2  0  0  0  0  0  0  0  0  0
    7.8276   -0.8235   -1.2143 C   0  0  0  0  0  0  0  0  0  0  0  0
    6.9783   -1.8604   -1.9259 C   0  0  1  0  0  0  0  0  0  0  0  0
    7.1777   -3.2701   -1.3673 C   0  0  2  0  0  0  0  0  0  0  0  0
    8.6800   -3.6276   -1.2907 C   0  0  1  0  0  0  0  0  0  0  0  0
    9.6201   -2.5173   -0.8033 C   0  0  1  0  0  0  0  0  0  0  0  0
   10.0895   -0.1352   -0.6919 N   0  3  0  0  0  0  0  0  0  0  0  0
    5.5849   -1.4695   -1.8375 N   0  3  0  0  0  0  0  0  0  0  0  0
    8.9002   -4.8363   -0.5229 O   0  0  0  0  0  0  0  0  0  0  0  0
   10.9686   -2.8610   -1.1041 O   0  0  0  0  0  0  0  0  0  0  0  0
  1  2  1  0  0  0  0
  3  2  1  1  0  0  0
  3  4  1  0  0  0  0
  3  5  1  0  0  0  0
  4  8  1  0  0  0  0
  5  6  1  0  0  0  0
  5 12  1  6  0  0  0
  6  7  1  6  0  0  0
  6  8  1  0  0  0  0
  8 41  1  1  0  0  0
  9 10  1  0  0  0  0
  9 17  1  0  0  0  0
  9 19  1  1  0  0  0
 10 11  1  0  0  0  0
 11 12  1  6  0  0  0
 11 13  1  0  0  0  0
 13 14  1  1  0  0  0
 13 15  1  0  0  0  0
 15 16  1  6  0  0  0
 15 17  1  0  0  0  0
 17 18  1  6  0  0  0
 19 20  1  0  0  0  0
 21 22  1  0  0  0  0
 21 29  1  0  0  0  0
 21 31  1  6  0  0  0
 22 23  1  0  0  0  0
 23 24  1  1  0  0  0
 23 25  1  0  0  0  0
 25 26  1  1  0  0  0
 25 27  1  0  0  0  0
 27 28  1  6  0  0  0
 27 29  1  0  0  0  0
 29 30  1  1  0  0  0
 31 32  1  0  0  0  0
 33 34  1  0  0  0  0
 33 38  1  0  0  0  0
 33 39  1  1  0  0  0
 34 35  1  0  0  0  0
 35 36  1  0  0  0  0
 35 40  1  1  0  0  0
 36 24  1  6  0  0  0
 36 37  1  0  0  0  0
 37 38  1  0  0  0  0
 37 41  1  1  0  0  0
 38 42  1  6  0  0  0
M  CHG  6  14   1  20   1  26   1  32   1  39   1  40   1
M  END
>  <CHROM.1>
-167.79428026,-43.80069091,-139.48413320,60.64431864,-107.87207609,-73.35620063
51.63770393,-119.31596287,62.21587450,46.59293048,165.80064698,-36.79087852
69.55457196,41.63980945,-164.94190941,-60.29956927,43.72378572,-134.92924585
-151.94387698,77.01925744,57.43255833,67.12689892,8.72877657,-6.25595283
-0.75024603,-0.66231721,-1.06591483,0.06880572

>  <Name>


>  <RI>
0

>  <Rbt.Current_Directory>
/home/itssahil/PROJECTS/Mol_Feturizer/New_Systems/rnas/1qd3

>  <Rbt.Executable>
rbdock ($Id: //depot/dev/client3/rdock/2013.1/src/exe/rbdock.cxx#4 $)

>  <Rbt.Library>
libRbt.so (2013.1, Build901 2013/11/27)

>  <Rbt.Parameter_File>
/export/apps/rDock/src/rDock_2013.1_src/data/scripts/dock_solv.prm

>  <Rbt.Receptor>
prm/pocket_docking_8.prm

>  <SCORE>
-66.0929

>  <SCORE.INTER>
-49.4035

>  <SCORE.INTER.CONST>
1

>  <SCORE.INTER.POLAR>
-9.749

>  <SCORE.INTER.ROT>
9

>  <SCORE.INTER.SOLV>
35.5772

>  <SCORE.INTER.VDW>
-21.8981

>  <SCORE.INTER.norm>
-1.17627

>  <SCORE.INTRA>
-16.7111

>  <SCORE.INTRA.DIHEDRAL>
-10.1683

>  <SCORE.INTRA.DIHEDRAL.0>
40.6252

>  <SCORE.INTRA.POLAR>
0.192913

>  <SCORE.INTRA.POLAR.0>
-1.20161

>  <SCORE.INTRA.REPUL>
-0.115675

>  <SCORE.INTRA.REPUL.0>
0.115675

>  <SCORE.INTRA.SOLV>
-10.1869

>  <SCORE.INTRA.SOLV.lig_0>
-154.895

>  <SCORE.INTRA.VDW>
-6.61098

>  <SCORE.INTRA.VDW.0>
2.2925

>  <SCORE.INTRA.norm>
-0.397883

>  <SCORE.RESTR>
0.0216504

>  <SCORE.RESTR.CAVITY>
0.0216504

>  <SCORE.RESTR.norm>
0.000515486

>  <SCORE.SYSTEM>
0

>  <SCORE.SYSTEM.CONST>
0

>  <SCORE.SYSTEM.DIHEDRAL>
0

>  <SCORE.SYSTEM.SOLV>
0

>  <SCORE.SYSTEM.norm>
0

>  <SCORE.heavy>
42

>  <SCORE.norm>
-1.57364

>  <RMSD>
8.505

$$$$

 OpenBabel11021811413D
libRbt.so/2013.1/901 2013/11/27
 42 45  0  0  0  0  0  0  0  0999 V2000
   12.4826   -0.7223   -7.2405 O   0  0  0  0  0  0  0  0  0  0  0  0
   12.3316   -1.0768   -5.8733 C   0  0  0  0  0  0  0  0  0  0  0  0
   11.5985   -2.4143   -5.7632 C   0  0  1  0  0  0  0  0  0  0  0  0
   12.4253   -3.5055   -6.2231 O   0  0  0  0  0  0  0  0  0  0  0  0
   11.2005   -2.7689   -4.3401 C   0  0  2  0  0  0  0  0  0  0  0  0
   10.9867   -4.2670   -4.4773 C   0  0  1  0  0  0  0  0  0  0  0  0
    9.7352   -4.5185   -5.1070 O   0  0  0  0  0  0  0  0  0  0  0  0
   12.1382   -4.6769   -5.4178 C   0  0  2  0  0  0  0  0  0  0  0  0
   11.1116   -0.1731   -1.0222 C   0  0  2  0  0  0  0  0  0  0  0  0
   10.9982   -0.5821   -2.3938 O   0  0  0  0  0  0  0  0  0  0  0  0
   10.0492   -1.6511   -2.5593 C   0  0  2  0  0  0  0  0  0  0  0  0
   10.0024   -2.0766   -3.9371 O   0  0  0  0  0  0  0  0  0  0  0  0
    8.6517   -1.2143   -2.0874 C   0  0  2  0  0  0  0  0  0  0  0  0
    8.0244   -0.3481   -3.0685 N   0  3  0  0  0  0  0  0  0  0  0  0
    8.6669   -0.5426   -0.7093 C   0  0  1  0  0  0  0  0  0  0  0  0
    8.7855   -1.5354    0.2972 O   0  0  0  0  0  0  0  0  0  0  0  0
    9.8046    0.4652   -0.5696 C   0  0  2  0  0  0  0  0  0  0  0  0
    9.5278    1.6215   -1.3513 O   0  0  0  0  0  0  0  0  0  0  0  0
   12.2787    0.7938   -0.8440 C   0  0  0  0  0  0  0  0  0  0  0  0
   13.5194    0.1744   -1.2707 N   0  3  0  0  0  0  0  0  0  0  0  0
   10.8286   -5.3826    0.1841 C   0  0  1  0  0  0  0  0  0  0  0  0
   10.7258   -4.9658   -1.1936 O   0  0  0  0  0  0  0  0  0  0  0  0
   11.9789   -5.0450   -1.9111 C   0  0  2  0  0  0  0  0  0  0  0  0
   12.4386   -6.4119   -2.0525 O   0  0  0  0  0  0  0  0  0  0  0  0
   13.0435   -4.1706   -1.2376 C   0  0  2  0  0  0  0  0  0  0  0  0
   14.3414   -4.4207   -1.8363 N   0  3  0  0  0  0  0  0  0  0  0  0
   13.1245   -4.4333    0.2621 C   0  0  1  0  0  0  0  0  0  0  0  0
   13.9421   -3.4491    0.8763 O   0  0  0  0  0  0  0  0  0  0  0  0
   11.7641   -4.4548    0.9420 C   0  0  2  0  0  0  0  0  0  0  0  0
   11.8921   -4.8873    2.2885 O   0  0  0  0  0  0  0  0  0  0  0  0
    9.4602   -5.3098    0.8553 C   0  0  0  0  0  0  0  0  0  0  0  0
    8.5241   -4.5632    0.0348 N   0  3  0  0  0  0  0  0  0  0  0  0
   13.3746   -8.8076   -5.4413 C   0  0  2  0  0  0  0  0  0  0  0  0
   12.1084   -9.1271   -4.6715 C   0  0  0  0  0  0  0  0  0  0  0  0
   12.1373   -8.4693   -3.3043 C   0  0  1  0  0  0  0  0  0  0  0  0
   12.2195   -6.9443   -3.3852 C   0  0  2  0  0  0  0  0  0  0  0  0
   13.3648   -6.5009   -4.3246 C   0  0  1  0  0  0  0  0  0  0  0  0
   13.5308   -7.3037   -5.6217 C   0  0  1  0  0  0  0  0  0  0  0  0
   13.3245   -9.4517   -6.7400 N   0  3  0  0  0  0  0  0  0  0  0  0
   10.9619   -8.8776   -2.5599 N   0  3  0  0  0  0  0  0  0  0  0  0
   13.2890   -5.0854   -4.6238 O   0  0  0  0  0  0  0  0  0  0  0  0
   14.7977   -7.0191   -6.2058 O   0  0  0  0  0  0  0  0  0  0  0  0
  1  2  1  0  0  0  0
  3  2  1  1  0  0  0
  3  4  1  0  0  0  0
  3  5  1  0  0  0  0
  4  8  1  0  0  0  0
  5  6  1  0  0  0  0
  5 12  1  6  0  0  0
  6  7  1  6  0  0  0
  6  8  1  0  0  0  0
  8 41  1  1  0  0  0
  9 10  1  0  0  0  0
  9 17  1  0  0  0  0
  9 19  1  6  0  0  0
 10 11  1  0  0  0  0
 11 12  1  6  0  0  0
 11 13  1  0  0  0  0
 13 14  1  6  0  0  0
 13 15  1  0  0  0  0
 15 16  1  1  0  0  0
 15 17  1  0  0  0  0
 17 18  1  6  0  0  0
 19 20  1  0  0  0  0
 21 22  1  0  0  0  0
 21 29  1  0  0  0  0
 21 31  1  1  0  0  0
 22 23  1  0  0  0  0
 23 24  1  1  0  0  0
 23 25  1  0  0  0  0
 25 26  1  6  0  0  0
 25 27  1  0  0  0  0
 27 28  1  1  0  0  0
 27 29  1  0  0  0  0
 29 30  1  1  0  0  0
 31 32  1  0  0  0  0
 33 34  1  0  0  0  0
 33 38  1  0  0  0  0
 33 39  1  6  0  0  0
 34 35  1  0  0  0  0
 35 36  1  0  0  0  0
 35 40  1  6  0  0  0
 36 24  1  1  0  0  0
 36 37  1  0  0  0  0
 37 38  1  0  0  0  0
 37 41  1  6  0  0  0
 38 42  1  1  0  0  0
M  CHG  6  14   1  20   1  26   1  32   1  39   1  40   1
M  END
>  <CHROM.1>
-58.79129033,69.86049192,-141.92655523,-65.07627983,-151.06788880,-58.50971849
70.22161265,-177.21335887,-163.63453879,-176.47864097,177.29309145,-13.20560893
103.49218875,-155.35917087,48.35820053,-58.55248276,-175.00802098,-84.53096517
-66.13303542,61.46763056,-66.84588135,-64.20492551,11.56047991,-3.88250573
-2.70519695,-2.96880825,-1.23342803,2.24705662

>  <Name>


>  <RI>
0

>  <Rbt.Current_Directory>
/home/itssahil/PROJECTS/Mol_Feturizer/New_Systems/rnas/1qd3

>  <Rbt.Executable>
rbdock ($Id: //depot/dev/client3/rdock/2013.1/src/exe/rbdock.cxx#4 $)

>  <Rbt.Library>
libRbt.so (2013.1, Build901 2013/11/27)

>  <Rbt.Parameter_File>
/export/apps/rDock/src/rDock_2013.1_src/data/scripts/dock_solv.prm

>  <Rbt.Receptor>
prm/pocket_docking_6.prm

>  <SCORE>
-43.7047

>  <SCORE.INTER>
-17.674

>  <SCORE.INTER.CONST>
1

>  <SCORE.INTER.POLAR>
-3.95371

>  <SCORE.INTER.ROT>
9

>  <SCORE.INTER.SOLV>
20.9972

>  <SCORE.INTER.VDW>
-15.2027

>  <SCORE.INTER.norm>
-0.42081

>  <SCORE.INTRA>
-26.0307

>  <SCORE.INTRA.DIHEDRAL>
-12.0555

>  <SCORE.INTRA.DIHEDRAL.0>
40.6252

>  <SCORE.INTRA.POLAR>
-1.28943

>  <SCORE.INTRA.POLAR.0>
-1.20161

>  <SCORE.INTRA.REPUL>
-0.115421

>  <SCORE.INTRA.REPUL.0>
0.115675

>  <SCORE.INTRA.SOLV>
-7.96047

>  <SCORE.INTRA.SOLV.lig_0>
-154.895

>  <SCORE.INTRA.VDW>
-11.0615

>  <SCORE.INTRA.VDW.0>
2.2925

>  <SCORE.INTRA.norm>
-0.619778

>  <SCORE.RESTR>
0

>  <SCORE.RESTR.CAVITY>
0

>  <SCORE.RESTR.norm>
0

>  <SCORE.SYSTEM>
0

>  <SCORE.SYSTEM.CONST>
0

>  <SCORE.SYSTEM.DIHEDRAL>
0

>  <SCORE.SYSTEM.SOLV>
0

>  <SCORE.SYSTEM.norm>
0

>  <SCORE.heavy>
42

>  <SCORE.norm>
-1.04059

>  <RMSD>
8.520

$$$$

 OpenBabel11021811413D
libRbt.so/2013.1/901 2013/11/27
 42 45  0  0  0  0  0  0  0  0999 V2000
    5.7562   -1.4419   -3.5026 O   0  0  0  0  0  0  0  0  0  0  0  0
    5.6144   -1.7477   -2.1227 C   0  0  0  0  0  0  0  0  0  0  0  0
    6.8133   -2.5701   -1.6488 C   0  0  1  0  0  0  0  0  0  0  0  0
    6.9816   -3.7614   -2.4476 O   0  0  0  0  0  0  0  0  0  0  0  0
    8.1326   -1.8214   -1.7406 C   0  0  2  0  0  0  0  0  0  0  0  0
    9.1127   -2.9821   -1.7073 C   0  0  1  0  0  0  0  0  0  0  0  0
    9.2441   -3.4626   -0.3740 O   0  0  0  0  0  0  0  0  0  0  0  0
    8.3993   -4.0375   -2.5767 C   0  0  2  0  0  0  0  0  0  0  0  0
   11.7479   -0.1351   -1.5816 C   0  0  2  0  0  0  0  0  0  0  0  0
   10.3595   -0.4715   -1.7252 O   0  0  0  0  0  0  0  0  0  0  0  0
    9.6849   -0.5236   -0.4551 C   0  0  2  0  0  0  0  0  0  0  0  0
    8.3088   -0.9204   -0.6297 O   0  0  0  0  0  0  0  0  0  0  0  0
    9.7621    0.8378    0.2569 C   0  0  2  0  0  0  0  0  0  0  0  0
    8.8293    1.7806   -0.3325 N   0  3  0  0  0  0  0  0  0  0  0  0
   11.1784    1.4247    0.2769 C   0  0  1  0  0  0  0  0  0  0  0  0
   11.9459    0.7686    1.2735 O   0  0  0  0  0  0  0  0  0  0  0  0
   11.8772    1.2953   -1.0739 C   0  0  2  0  0  0  0  0  0  0  0  0
   11.3002    2.2006   -2.0077 O   0  0  0  0  0  0  0  0  0  0  0  0
   12.4835   -0.3096   -2.9072 C   0  0  0  0  0  0  0  0  0  0  0  0
   11.5906   -0.8508   -3.9146 N   0  3  0  0  0  0  0  0  0  0  0  0
    8.8235   -6.6890   -2.2331 C   0  0  1  0  0  0  0  0  0  0  0  0
    8.3194   -7.4449   -3.3541 O   0  0  0  0  0  0  0  0  0  0  0  0
    6.9025   -7.2615   -3.5779 C   0  0  2  0  0  0  0  0  0  0  0  0
    6.5861   -5.9041   -3.9744 O   0  0  0  0  0  0  0  0  0  0  0  0
    6.1013   -7.6762   -2.3378 C   0  0  2  0  0  0  0  0  0  0  0  0
    4.7108   -7.2923   -2.4951 N   0  3  0  0  0  0  0  0  0  0  0  0
    6.6561   -7.0403   -1.0680 C   0  0  1  0  0  0  0  0  0  0  0  0
    6.0434   -7.6293    0.0686 O   0  0  0  0  0  0  0  0  0  0  0  0
    8.1673   -7.1625   -0.9465 C   0  0  2  0  0  0  0  0  0  0  0  0
    8.6379   -6.3938    0.1509 O   0  0  0  0  0  0  0  0  0  0  0  0
   10.3277   -6.9041   -2.0922 C   0  0  0  0  0  0  0  0  0  0  0  0
   10.9509   -7.0467   -3.3952 N   0  3  0  0  0  0  0  0  0  0  0  0
    9.6574   -6.1931   -6.9041 C   0  0  2  0  0  0  0  0  0  0  0  0
    8.2182   -6.2980   -7.3687 C   0  0  0  0  0  0  0  0  0  0  0  0
    7.2996   -6.5787   -6.1939 C   0  0  1  0  0  0  0  0  0  0  0  0
    7.3330   -5.4700   -5.1411 C   0  0  2  0  0  0  0  0  0  0  0  0
    8.7874   -5.1316   -4.7398 C   0  0  1  0  0  0  0  0  0  0  0  0
    9.8131   -5.0772   -5.8798 C   0  0  1  0  0  0  0  0  0  0  0  0
   10.5140   -5.9306   -8.0448 N   0  3  0  0  0  0  0  0  0  0  0  0
    5.9499   -6.7728   -6.6870 N   0  3  0  0  0  0  0  0  0  0  0  0
    8.8531   -3.9154   -3.9554 O   0  0  0  0  0  0  0  0  0  0  0  0
   11.1316   -5.0988   -5.3431 O   0  0  0  0  0  0  0  0  0  0  0  0
  1  2  1  0  0  0  0
  3  2  1  6  0  0  0
  3  4  1  0  0  0  0
  3  5  1  0  0  0  0
  4  8  1  0  0  0  0
  5  6  1  0  0  0  0
  5 12  1  1  0  0  0
  6  7  1  1  0  0  0
  6  8  1  0  0  0  0
  8 41  1  6  0  0  0
  9 10  1  0  0  0  0
  9 17  1  0  0  0  0
  9 19  1  6  0  0  0
 10 11  1  0  0  0  0
 11 12  1  6  0  0  0
 11 13  1  0  0  0  0
 13 14  1  6  0  0  0
 13 15  1  0  0  0  0
 15 16  1  1  0  0  0
 15 17  1  0  0  0  0
 17 18  1  6  0  0  0
 19 20  1  0  0  0  0
 21 22  1  0  0  0  0
 21 29  1  0  0  0  0
 21 31  1  1  0  0  0
 22 23  1  0  0  0  0
 23 24  1  1  0  0  0
 23 25  1  0  0  0  0
 25 26  1  6  0  0  0
 25 27  1  0  0  0  0
 27 28  1  1  0  0  0
 27 29  1  0  0  0  0
 29 30  1  1  0  0  0
 31 32  1  0  0  0  0
 33 34  1  0  0  0  0
 33 38  1  0  0  0  0
 33 39  1  6  0  0  0
 34 35  1  0  0  0  0
 35 36  1  0  0  0  0
 35 40  1  6  0  0  0
 36 24  1  1  0  0  0
 36 37  1  0  0  0  0
 37 38  1  0  0  0  0
 37 41  1  6  0  0  0
 38 42  1  1  0  0  0
M  CHG  6  14   1  20   1  26   1  32   1  39   1  40   1
M  END
>  <CHROM.1>
-150.78399613,-55.66319515,161.65540097,57.46060956,-90.28332665,-3.78515163
32.00678364,68.89734007,67.59878586,-68.00876102,-21.93967085,34.95347067
55.24347834,45.39702288,-89.25874324,61.23130368,170.67682762,75.61535573
60.84179179,-166.05639876,74.63409771,66.38534899,8.77951873,-3.74293883
-2.73160190,1.02908940,0.84486110,0.85137339

>  <Name>


>  <RI>
0

>  <Rbt.Current_Directory>
/home/itssahil/PROJECTS/Mol_Feturizer/New_Systems/rnas/1qd3

>  <Rbt.Executable>
rbdock ($Id: //depot/dev/client3/rdock/2013.1/src/exe/rbdock.cxx#4 $)

>  <Rbt.Library>
libRbt.so (2013.1, Build901 2013/11/27)

>  <Rbt.Parameter_File>
/export/apps/rDock/src/rDock_2013.1_src/data/scripts/dock_solv.prm

>  <Rbt.Receptor>
prm/pocket_docking_3.prm

>  <SCORE>
-28.0659

>  <SCORE.INTER>
-18.3853

>  <SCORE.INTER.CONST>
1

>  <SCORE.INTER.POLAR>
-3.66901

>  <SCORE.INTER.ROT>
9

>  <SCORE.INTER.SOLV>
33.4991

>  <SCORE.INTER.VDW>
-20.7932

>  <SCORE.INTER.norm>
-0.437745

>  <SCORE.INTRA>
-11.0839

>  <SCORE.INTRA.DIHEDRAL>
-10.9515

>  <SCORE.INTRA.DIHEDRAL.0>
40.6252

>  <SCORE.INTRA.POLAR>
-0.236741

>  <SCORE.INTRA.POLAR.0>
-1.20161

>  <SCORE.INTRA.REPUL>
0.119997

>  <SCORE.INTRA.REPUL.0>
0.115675

>  <SCORE.INTRA.SOLV>
-1.76965

>  <SCORE.INTRA.SOLV.lig_0>
-154.895

>  <SCORE.INTRA.VDW>
-4.51839

>  <SCORE.INTRA.VDW.0>
2.2925

>  <SCORE.INTRA.norm>
-0.263902

>  <SCORE.RESTR>
1.40331

>  <SCORE.RESTR.CAVITY>
1.40331

>  <SCORE.RESTR.norm>
0.0334122

>  <SCORE.SYSTEM>
0

>  <SCORE.SYSTEM.CONST>
0

>  <SCORE.SYSTEM.DIHEDRAL>
0

>  <SCORE.SYSTEM.SOLV>
0

>  <SCORE.SYSTEM.norm>
0

>  <SCORE.heavy>
42

>  <SCORE.norm>
-0.668235

>  <RMSD>
8.567

$$$$

 OpenBabel11021811413D
libRbt.so/2013.1/901 2013/11/27
 42 45  0  0  0  0  0  0  0  0999 V2000
   12.3556   -2.9701   -4.2164 O   0  0  0  0  0  0  0  0  0  0  0  0
   11.9114   -1.6722   -4.5850 C   0  0  0  0  0  0  0  0  0  0  0  0
   10.4308   -1.5136   -4.2370 C   0  0  1  0  0  0  0  0  0  0  0  0
    9.6500   -2.6152   -4.7493 O   0  0  0  0  0  0  0  0  0  0  0  0
   10.1630   -1.4777   -2.7416 C   0  0  2  0  0  0  0  0  0  0  0  0
    8.6830   -1.8210   -2.7168 C   0  0  1  0  0  0  0  0  0  0  0  0
    7.9182   -0.6793   -3.0877 O   0  0  0  0  0  0  0  0  0  0  0  0
    8.5793   -2.9001   -3.8138 C   0  0  2  0  0  0  0  0  0  0  0  0
   13.8614   -0.7231   -1.0395 C   0  0  2  0  0  0  0  0  0  0  0  0
   12.7436   -0.6421   -1.9371 O   0  0  0  0  0  0  0  0  0  0  0  0
   11.5508   -0.1905   -1.2708 C   0  0  2  0  0  0  0  0  0  0  0  0
   10.4354   -0.1762   -2.1857 O   0  0  0  0  0  0  0  0  0  0  0  0
   11.7633    1.2078   -0.6657 C   0  0  2  0  0  0  0  0  0  0  0  0
   11.7146    2.2279   -1.6970 N   0  3  0  0  0  0  0  0  0  0  0  0
   13.0622    1.3211    0.1410 C   0  0  1  0  0  0  0  0  0  0  0  0
   12.8836    0.7106    1.4092 O   0  0  0  0  0  0  0  0  0  0  0  0
   14.2457    0.6758   -0.5748 C   0  0  2  0  0  0  0  0  0  0  0  0
   14.6331    1.4727   -1.6880 O   0  0  0  0  0  0  0  0  0  0  0  0
   15.0428   -1.4155   -1.7130 C   0  0  0  0  0  0  0  0  0  0  0  0
   14.6690   -2.7489   -2.1458 N   0  3  0  0  0  0  0  0  0  0  0  0
    8.5385   -6.6891   -1.1465 C   0  0  1  0  0  0  0  0  0  0  0  0
    8.2480   -7.4055   -2.3649 O   0  0  0  0  0  0  0  0  0  0  0  0
    6.8427   -7.4091   -2.7062 C   0  0  2  0  0  0  0  0  0  0  0  0
    6.3574   -6.0814   -3.0247 O   0  0  0  0  0  0  0  0  0  0  0  0
    6.0153   -8.0452   -1.5825 C   0  0  2  0  0  0  0  0  0  0  0  0
    4.6001   -7.8534   -1.8398 N   0  3  0  0  0  0  0  0  0  0  0  0
    6.3618   -7.4531   -0.2210 C   0  0  1  0  0  0  0  0  0  0  0  0
    5.7549   -8.2245    0.8041 O   0  0  0  0  0  0  0  0  0  0  0  0
    7.8590   -7.3665    0.0324 C   0  0  2  0  0  0  0  0  0  0  0  0
    8.1165   -6.6400    1.2251 O   0  0  0  0  0  0  0  0  0  0  0  0
   10.0413   -6.6966   -0.8818 C   0  0  0  0  0  0  0  0  0  0  0  0
   10.3811   -5.7662    0.1791 N   0  3  0  0  0  0  0  0  0  0  0  0
    8.8521   -6.1918   -6.4692 C   0  0  2  0  0  0  0  0  0  0  0  0
    7.3507   -6.1754   -6.6778 C   0  0  0  0  0  0  0  0  0  0  0  0
    6.6313   -6.5399   -5.3923 C   0  0  1  0  0  0  0  0  0  0  0  0
    6.9195   -5.5573   -4.2564 C   0  0  2  0  0  0  0  0  0  0  0  0
    8.4406   -5.3357   -4.0889 C   0  0  1  0  0  0  0  0  0  0  0  0
    9.2560   -5.2049   -5.3822 C   0  0  1  0  0  0  0  0  0  0  0  0
    9.5151   -5.8462   -7.7121 N   0  3  0  0  0  0  0  0  0  0  0  0
    5.2071   -6.6131   -5.6537 N   0  3  0  0  0  0  0  0  0  0  0  0
    8.7215   -4.2183   -3.2106 O   0  0  0  0  0  0  0  0  0  0  0  0
   10.6429   -5.3490   -5.0941 O   0  0  0  0  0  0  0  0  0  0  0  0
  1  2  1  0  0  0  0
  3  2  1  1  0  0  0
  3  4  1  0  0  0  0
  3  5  1  0  0  0  0
  4  8  1  0  0  0  0
  5  6  1  0  0  0  0
  5 12  1  6  0  0  0
  6  7  1  6  0  0  0
  6  8  1  0  0  0  0
  8 41  1  1  0  0  0
  9 10  1  0  0  0  0
  9 17  1  0  0  0  0
  9 19  1  6  0  0  0
 10 11  1  0  0  0  0
 11 12  1  6  0  0  0
 11 13  1  0  0  0  0
 13 14  1  6  0  0  0
 13 15  1  0  0  0  0
 15 16  1  1  0  0  0
 15 17  1  0  0  0  0
 17 18  1  6  0  0  0
 19 20  1  0  0  0  0
 21 22  1  0  0  0  0
 21 29  1  0  0  0  0
 21 31  1  1  0  0  0
 22 23  1  0  0  0  0
 23 24  1  1  0  0  0
 23 25  1  0  0  0  0
 25 26  1  6  0  0  0
 25 27  1  0  0  0  0
 27 28  1  1  0  0  0
 27 29  1  0  0  0  0
 29 30  1  1  0  0  0
 31 32  1  0  0  0  0
 33 34  1  0  0  0  0
 33 38  1  0  0  0  0
 33 39  1  6  0  0  0
 34 35  1  0  0  0  0
 35 36  1  0  0  0  0
 35 40  1  6  0  0  0
 36 24  1  1  0  0  0
 36 37  1  0  0  0  0
 37 38  1  0  0  0  0
 37 41  1  1  0  0  0
 38 42  1  1  0  0  0
M  CHG  6  14   1  20   1  26   1  32   1  39   1  40   1
M  END
>  <CHROM.1>
62.62713996,-50.38311479,-113.82894335,61.72459710,-72.22301348,-58.49124674
59.52219072,76.85534027,-176.67115287,53.93199753,-67.47200558,168.59917426
67.83729203,55.92927747,66.55562160,50.32301539,70.63384630,-175.88033309
-69.96847393,-38.84512737,-78.46108926,42.07522164,9.70120848,-3.72307925
-2.59010200,-0.08650244,-0.87392208,-1.47698506

>  <Name>


>  <RI>
0

>  <Rbt.Current_Directory>
/home/itssahil/PROJECTS/Mol_Feturizer/New_Systems/rnas/1qd3

>  <Rbt.Executable>
rbdock ($Id: //depot/dev/client3/rdock/2013.1/src/exe/rbdock.cxx#4 $)

>  <Rbt.Library>
libRbt.so (2013.1, Build901 2013/11/27)

>  <Rbt.Parameter_File>
/export/apps/rDock/src/rDock_2013.1_src/data/scripts/dock_solv.prm

>  <Rbt.Receptor>
prm/pocket_docking_5.prm

>  <SCORE>
-61.4363

>  <SCORE.INTER>
-33.6476

>  <SCORE.INTER.CONST>
1

>  <SCORE.INTER.POLAR>
-6.94074

>  <SCORE.INTER.ROT>
9

>  <SCORE.INTER.SOLV>
31.4481

>  <SCORE.INTER.VDW>
-19.3786

>  <SCORE.INTER.norm>
-0.801133

>  <SCORE.INTRA>
-27.8218

>  <SCORE.INTRA.DIHEDRAL>
-24.9317

>  <SCORE.INTRA.DIHEDRAL.0>
40.6252

>  <SCORE.INTRA.POLAR>
-1.21605

>  <SCORE.INTRA.POLAR.0>
-1.20161

>  <SCORE.INTRA.REPUL>
-0.115675

>  <SCORE.INTRA.REPUL.0>
0.115675

>  <SCORE.INTRA.SOLV>
-8.26619

>  <SCORE.INTRA.SOLV.lig_0>
-154.895

>  <SCORE.INTRA.VDW>
-6.50988

>  <SCORE.INTRA.VDW.0>
2.2925

>  <SCORE.INTRA.norm>
-0.662423

>  <SCORE.RESTR>
0.0331103

>  <SCORE.RESTR.CAVITY>
0.0331103

>  <SCORE.RESTR.norm>
0.000788341

>  <SCORE.SYSTEM>
0

>  <SCORE.SYSTEM.CONST>
0

>  <SCORE.SYSTEM.DIHEDRAL>
0

>  <SCORE.SYSTEM.SOLV>
0

>  <SCORE.SYSTEM.norm>
0

>  <SCORE.heavy>
42

>  <SCORE.norm>
-1.46277

>  <RMSD>
8.586

$$$$

 OpenBabel11021811413D
libRbt.so/2013.1/901 2013/11/27
 42 45  0  0  0  0  0  0  0  0999 V2000
   12.3154    0.8970   -2.2748 O   0  0  0  0  0  0  0  0  0  0  0  0
   11.4124    0.3683   -1.3142 C   0  0  0  0  0  0  0  0  0  0  0  0
   10.1125   -0.0512   -2.0016 C   0  0  1  0  0  0  0  0  0  0  0  0
   10.2411   -1.3498   -2.6204 O   0  0  0  0  0  0  0  0  0  0  0  0
    8.9345   -0.1629   -1.0480 C   0  0  2  0  0  0  0  0  0  0  0  0
    7.9985   -1.0377   -1.8652 C   0  0  1  0  0  0  0  0  0  0  0  0
    7.3692   -0.2564   -2.8749 O   0  0  0  0  0  0  0  0  0  0  0  0
    8.9724   -2.0437   -2.5118 C   0  0  2  0  0  0  0  0  0  0  0  0
   10.8339    3.6822    0.1027 C   0  0  2  0  0  0  0  0  0  0  0  0
    9.9295    2.9055   -0.6975 O   0  0  0  0  0  0  0  0  0  0  0  0
    9.2208    1.9291    0.0868 C   0  0  2  0  0  0  0  0  0  0  0  0
    8.3656    1.1285   -0.7554 O   0  0  0  0  0  0  0  0  0  0  0  0
    8.3950    2.6139    1.1893 C   0  0  2  0  0  0  0  0  0  0  0  0
    7.1946    3.2135    0.6361 N   0  3  0  0  0  0  0  0  0  0  0  0
    9.1975    3.6522    1.9822 C   0  0  1  0  0  0  0  0  0  0  0  0
   10.0383    2.9876    2.9119 O   0  0  0  0  0  0  0  0  0  0  0  0
   10.0420    4.5449    1.0770 C   0  0  2  0  0  0  0  0  0  0  0  0
    9.2027    5.4453    0.3633 O   0  0  0  0  0  0  0  0  0  0  0  0
   11.7299    4.5444   -0.7819 C   0  0  0  0  0  0  0  0  0  0  0  0
   12.7031    3.7201   -1.4736 N   0  3  0  0  0  0  0  0  0  0  0  0
   12.8392   -3.0168   -1.1784 C   0  0  1  0  0  0  0  0  0  0  0  0
   12.8230   -4.4218   -1.5068 O   0  0  0  0  0  0  0  0  0  0  0  0
   12.3462   -5.2570   -0.4268 C   0  0  2  0  0  0  0  0  0  0  0  0
   10.9503   -5.0110   -0.1252 O   0  0  0  0  0  0  0  0  0  0  0  0
   13.2208   -5.0796    0.8203 C   0  0  2  0  0  0  0  0  0  0  0  0
   12.6131   -5.7549    1.9518 N   0  3  0  0  0  0  0  0  0  0  0  0
   13.4225   -3.6080    1.1644 C   0  0  1  0  0  0  0  0  0  0  0  0
   14.4179   -3.4839    2.1683 O   0  0  0  0  0  0  0  0  0  0  0  0
   13.8086   -2.7584   -0.0366 C   0  0  2  0  0  0  0  0  0  0  0  0
   13.7967   -1.3810    0.3090 O   0  0  0  0  0  0  0  0  0  0  0  0
   13.3126   -2.2048   -2.3806 C   0  0  0  0  0  0  0  0  0  0  0  0
   12.5107   -2.5060   -3.5523 N   0  3  0  0  0  0  0  0  0  0  0  0
    9.9402   -6.0034   -4.1370 C   0  0  2  0  0  0  0  0  0  0  0  0
    9.8915   -7.1054   -3.0972 C   0  0  0  0  0  0  0  0  0  0  0  0
   10.6499   -6.6927   -1.8493 C   0  0  1  0  0  0  0  0  0  0  0  0
   10.0601   -5.4474   -1.1856 C   0  0  2  0  0  0  0  0  0  0  0  0
    9.8693   -4.3096   -2.2151 C   0  0  1  0  0  0  0  0  0  0  0  0
    9.3287   -4.7200   -3.5912 C   0  0  1  0  0  0  0  0  0  0  0  0
    9.2141   -6.4246   -5.3199 N   0  3  0  0  0  0  0  0  0  0  0  0
   10.6686   -7.8052   -0.9196 N   0  3  0  0  0  0  0  0  0  0  0  0
    9.0719   -3.2291   -1.6713 O   0  0  0  0  0  0  0  0  0  0  0  0
    9.5257   -3.6607   -4.5219 O   0  0  0  0  0  0  0  0  0  0  0  0
  1  2  1  0  0  0  0
  3  2  1  1  0  0  0
  3  4  1  0  0  0  0
  3  5  1  0  0  0  0
  4  8  1  0  0  0  0
  5  6  1  0  0  0  0
  5 12  1  6  0  0  0
  6  7  1  6  0  0  0
  6  8  1  0  0  0  0
  8 41  1  1  0  0  0
  9 10  1  0  0  0  0
  9 17  1  0  0  0  0
  9 19  1  6  0  0  0
 10 11  1  0  0  0  0
 11 12  1  6  0  0  0
 11 13  1  0  0  0  0
 13 14  1  6  0  0  0
 13 15  1  0  0  0  0
 15 16  1  1  0  0  0
 15 17  1  0  0  0  0
 17 18  1  6  0  0  0
 19 20  1  0  0  0  0
 21 22  1  0  0  0  0
 21 29  1  0  0  0  0
 21 31  1  6  0  0  0
 22 23  1  0  0  0  0
 23 24  1  1  0  0  0
 23 25  1  0  0  0  0
 25 26  1  1  0  0  0
 25 27  1  0  0  0  0
 27 28  1  1  0  0  0
 27 29  1  0  0  0  0
 29 30  1  1  0  0  0
 31 32  1  0  0  0  0
 33 34  1  0  0  0  0
 33 38  1  0  0  0  0
 33 39  1  6  0  0  0
 34 35  1  0  0  0  0
 35 36  1  0  0  0  0
 35 40  1  1  0  0  0
 36 24  1  1  0  0  0
 36 37  1  0  0  0  0
 37 38  1  0  0  0  0
 37 41  1  1  0  0  0
 38 42  1  6  0  0  0
M  CHG  6  14   1  20   1  26   1  32   1  39   1  40   1
M  END
>  <CHROM.1>
-51.71189248,81.15553653,-71.39290552,87.10279331,-68.13025093,-71.81614947
101.26970753,-172.30362146,-66.05146738,-65.63880786,152.20161799,54.26749965
68.36396870,33.59572038,-42.07665734,174.89020881,61.10424822,-168.14868825
-67.99241430,-175.55811878,172.99341361,-56.89718438,10.68749116,-1.47814197
-1.03897696,-1.75142504,0.70359700,-2.79502842

>  <Name>


>  <RI>
0

>  <Rbt.Current_Directory>
/home/itssahil/PROJECTS/Mol_Feturizer/New_Systems/rnas/1qd3

>  <Rbt.Executable>
rbdock ($Id: //depot/dev/client3/rdock/2013.1/src/exe/rbdock.cxx#4 $)

>  <Rbt.Library>
libRbt.so (2013.1, Build901 2013/11/27)

>  <Rbt.Parameter_File>
/export/apps/rDock/src/rDock_2013.1_src/data/scripts/dock_solv.prm

>  <Rbt.Receptor>
prm/pocket_docking_8.prm

>  <SCORE>
-41.9689

>  <SCORE.INTER>
-18.3026

>  <SCORE.INTER.CONST>
1

>  <SCORE.INTER.POLAR>
-2.90601

>  <SCORE.INTER.ROT>
9

>  <SCORE.INTER.SOLV>
23.5152

>  <SCORE.INTER.VDW>
-19.9534

>  <SCORE.INTER.norm>
-0.435776

>  <SCORE.INTRA>
-23.6663

>  <SCORE.INTRA.DIHEDRAL>
-21.2517

>  <SCORE.INTRA.DIHEDRAL.0>
40.6252

>  <SCORE.INTRA.POLAR>
-1.19379

>  <SCORE.INTRA.POLAR.0>
-1.20161

>  <SCORE.INTRA.REPUL>
-0.115675

>  <SCORE.INTRA.REPUL.0>
0.115675

>  <SCORE.INTRA.SOLV>
-2.70885

>  <SCORE.INTRA.SOLV.lig_0>
-154.895

>  <SCORE.INTRA.VDW>
-7.04875

>  <SCORE.INTRA.VDW.0>
2.2925

>  <SCORE.INTRA.norm>
-0.563483

>  <SCORE.RESTR>
0

>  <SCORE.RESTR.CAVITY>
0

>  <SCORE.RESTR.norm>
0

>  <SCORE.SYSTEM>
0

>  <SCORE.SYSTEM.CONST>
0

>  <SCORE.SYSTEM.DIHEDRAL>
0

>  <SCORE.SYSTEM.SOLV>
0

>  <SCORE.SYSTEM.norm>
0

>  <SCORE.heavy>
42

>  <SCORE.norm>
-0.999259

>  <RMSD>
8.588

$$$$

 OpenBabel11021811413D
libRbt.so/2013.1/901 2013/11/27
 42 45  0  0  0  0  0  0  0  0999 V2000
   12.5780   -0.8152   -4.0197 O   0  0  0  0  0  0  0  0  0  0  0  0
   11.6692   -1.9032   -4.1099 C   0  0  0  0  0  0  0  0  0  0  0  0
   10.2717   -1.4465   -3.6894 C   0  0  1  0  0  0  0  0  0  0  0  0
    9.3056   -2.5100   -3.8358 O   0  0  0  0  0  0  0  0  0  0  0  0
   10.1909   -1.0122   -2.2354 C   0  0  2  0  0  0  0  0  0  0  0  0
    8.6935   -1.1149   -1.9983 C   0  0  1  0  0  0  0  0  0  0  0  0
    8.0363    0.0048   -2.5816 O   0  0  0  0  0  0  0  0  0  0  0  0
    8.3274   -2.3984   -2.7711 C   0  0  2  0  0  0  0  0  0  0  0  0
   13.5568   -0.0499    0.1734 C   0  0  2  0  0  0  0  0  0  0  0  0
   12.7703   -0.1216   -1.0257 O   0  0  0  0  0  0  0  0  0  0  0  0
   11.4699    0.4697   -0.8519 C   0  0  2  0  0  0  0  0  0  0  0  0
   10.6859    0.3292   -2.0549 O   0  0  0  0  0  0  0  0  0  0  0  0
   11.5955    1.9537   -0.4665 C   0  0  2  0  0  0  0  0  0  0  0  0
   11.9366    2.7593   -1.6246 N   0  3  0  0  0  0  0  0  0  0  0  0
   12.5962    2.1956    0.6696 C   0  0  1  0  0  0  0  0  0  0  0  0
   11.9988    1.8411    1.9067 O   0  0  0  0  0  0  0  0  0  0  0  0
   13.8879    1.4049    0.4808 C   0  0  2  0  0  0  0  0  0  0  0  0
   14.6514    1.9681   -0.5796 O   0  0  0  0  0  0  0  0  0  0  0  0
   14.8302   -0.8787    0.0317 C   0  0  0  0  0  0  0  0  0  0  0  0
   15.5497   -0.5007   -1.1701 N   0  3  0  0  0  0  0  0  0  0  0  0
   11.0411   -5.6782    0.8610 C   0  0  1  0  0  0  0  0  0  0  0  0
   10.5588   -4.5578    0.0902 O   0  0  0  0  0  0  0  0  0  0  0  0
   11.0218   -4.5634   -1.2798 C   0  0  2  0  0  0  0  0  0  0  0  0
   10.4901   -5.6842   -2.0286 O   0  0  0  0  0  0  0  0  0  0  0  0
   12.5543   -4.5405   -1.3324 C   0  0  2  0  0  0  0  0  0  0  0  0
   13.0066   -4.7586   -2.6939 N   0  3  0  0  0  0  0  0  0  0  0  0
   13.1667   -5.6017   -0.4250 C   0  0  1  0  0  0  0  0  0  0  0  0
   14.5666   -5.3923   -0.3219 O   0  0  0  0  0  0  0  0  0  0  0  0
   12.5563   -5.6251    0.9679 C   0  0  2  0  0  0  0  0  0  0  0  0
   13.0320   -6.7475    1.6963 O   0  0  0  0  0  0  0  0  0  0  0  0
   10.4747   -5.6206    2.2769 C   0  0  0  0  0  0  0  0  0  0  0  0
   10.7777   -6.8409    3.0019 N   0  3  0  0  0  0  0  0  0  0  0  0
    6.4816   -6.5977   -3.1228 C   0  0  2  0  0  0  0  0  0  0  0  0
    7.2114   -7.5697   -2.2168 C   0  0  0  0  0  0  0  0  0  0  0  0
    8.7067   -7.3144   -2.2579 C   0  0  1  0  0  0  0  0  0  0  0  0
    9.0790   -5.9119   -1.7748 C   0  0  2  0  0  0  0  0  0  0  0  0
    8.2337   -4.8360   -2.4949 C   0  0  1  0  0  0  0  0  0  0  0  0
    6.7476   -5.1602   -2.6967 C   0  0  1  0  0  0  0  0  0  0  0  0
    5.0572   -6.8662   -3.0698 N   0  3  0  0  0  0  0  0  0  0  0  0
    9.3790   -8.3228   -1.4621 N   0  3  0  0  0  0  0  0  0  0  0  0
    8.3771   -3.5386   -1.8662 O   0  0  0  0  0  0  0  0  0  0  0  0
    6.1841   -4.2650   -3.6497 O   0  0  0  0  0  0  0  0  0  0  0  0
  1  2  1  0  0  0  0
  3  2  1  1  0  0  0
  3  4  1  0  0  0  0
  3  5  1  0  0  0  0
  4  8  1  0  0  0  0
  5  6  1  0  0  0  0
  5 12  1  6  0  0  0
  6  7  1  6  0  0  0
  6  8  1  0  0  0  0
  8 41  1  1  0  0  0
  9 10  1  0  0  0  0
  9 17  1  0  0  0  0
  9 19  1  6  0  0  0
 10 11  1  0  0  0  0
 11 12  1  6  0  0  0
 11 13  1  0  0  0  0
 13 14  1  6  0  0  0
 13 15  1  0  0  0  0
 15 16  1  1  0  0  0
 15 17  1  0  0  0  0
 17 18  1  6  0  0  0
 19 20  1  0  0  0  0
 21 22  1  0  0  0  0
 21 29  1  0  0  0  0
 21 31  1  1  0  0  0
 22 23  1  0  0  0  0
 23 24  1  1  0  0  0
 23 25  1  0  0  0  0
 25 26  1  6  0  0  0
 25 27  1  0  0  0  0
 27 28  1  1  0  0  0
 27 29  1  0  0  0  0
 29 30  1  6  0  0  0
 31 32  1  0  0  0  0
 33 34  1  0  0  0  0
 33 38  1  0  0  0  0
 33 39  1  1  0  0  0
 34 35  1  0  0  0  0
 35 36  1  0  0  0  0
 35 40  1  1  0  0  0
 36 24  1  6  0  0  0
 36 37  1  0  0  0  0
 37 38  1  0  0  0  0
 37 41  1  1  0  0  0
 38 42  1  6  0  0  0
M  CHG  6  14   1  20   1  26   1  32   1  39   1  40   1
M  END
>  <CHROM.1>
62.72558417,176.97981051,-139.78783668,179.74520323,-55.06011185,52.80004249
75.21197394,175.90764524,-62.21304808,-176.88012760,157.34887428,171.15097828
43.32048747,-163.50829125,-168.71691315,-177.16678811,67.34025261,-56.35141329
-168.42094650,-58.46614004,145.84590650,-55.86577235,10.82455916,-2.98853993
-1.27688036,0.89075307,-0.55588341,-0.25292288

>  <Name>


>  <RI>
0

>  <Rbt.Current_Directory>
/home/itssahil/PROJECTS/Mol_Feturizer/New_Systems/rnas/1qd3

>  <Rbt.Executable>
rbdock ($Id: //depot/dev/client3/rdock/2013.1/src/exe/rbdock.cxx#4 $)

>  <Rbt.Library>
libRbt.so (2013.1, Build901 2013/11/27)

>  <Rbt.Parameter_File>
/export/apps/rDock/src/rDock_2013.1_src/data/scripts/dock_solv.prm

>  <Rbt.Receptor>
prm/pocket_docking_8.prm

>  <SCORE>
-50.2881

>  <SCORE.INTER>
-22.1064

>  <SCORE.INTER.CONST>
1

>  <SCORE.INTER.POLAR>
-4.23151

>  <SCORE.INTER.ROT>
9

>  <SCORE.INTER.SOLV>
18.241

>  <SCORE.INTER.VDW>
-16.3129

>  <SCORE.INTER.norm>
-0.526342

>  <SCORE.INTRA>
-28.1817

>  <SCORE.INTRA.DIHEDRAL>
-23.0612

>  <SCORE.INTRA.DIHEDRAL.0>
40.6252

>  <SCORE.INTRA.POLAR>
-0.713212

>  <SCORE.INTRA.POLAR.0>
-1.20161

>  <SCORE.INTRA.REPUL>
-0.115675

>  <SCORE.INTRA.REPUL.0>
0.115675

>  <SCORE.INTRA.SOLV>
-7.43647

>  <SCORE.INTRA.SOLV.lig_0>
-154.895

>  <SCORE.INTRA.VDW>
-9.9296

>  <SCORE.INTRA.VDW.0>
2.2925

>  <SCORE.INTRA.norm>
-0.670994

>  <SCORE.RESTR>
0

>  <SCORE.RESTR.CAVITY>
0

>  <SCORE.RESTR.norm>
0

>  <SCORE.SYSTEM>
0

>  <SCORE.SYSTEM.CONST>
0

>  <SCORE.SYSTEM.DIHEDRAL>
0

>  <SCORE.SYSTEM.SOLV>
0

>  <SCORE.SYSTEM.norm>
0

>  <SCORE.heavy>
42

>  <SCORE.norm>
-1.19734

>  <RMSD>
8.588

$$$$

 OpenBabel11021811413D
libRbt.so/2013.1/901 2013/11/27
 42 45  0  0  0  0  0  0  0  0999 V2000
    5.5803   -4.8777   -5.7876 O   0  0  0  0  0  0  0  0  0  0  0  0
    6.8138   -4.4983   -5.1942 C   0  0  0  0  0  0  0  0  0  0  0  0
    6.6507   -4.4032   -3.6767 C   0  0  1  0  0  0  0  0  0  0  0  0
    6.3372   -5.6898   -3.1006 O   0  0  0  0  0  0  0  0  0  0  0  0
    7.9050   -3.9259   -2.9638 C   0  0  2  0  0  0  0  0  0  0  0  0
    7.6200   -4.4059   -1.5505 C   0  0  1  0  0  0  0  0  0  0  0  0
    6.6861   -3.5326   -0.9252 O   0  0  0  0  0  0  0  0  0  0  0  0
    6.9672   -5.7811   -1.7977 C   0  0  2  0  0  0  0  0  0  0  0  0
   11.2777   -2.0355   -1.3995 C   0  0  2  0  0  0  0  0  0  0  0  0
   10.3158   -2.4809   -2.3680 O   0  0  0  0  0  0  0  0  0  0  0  0
    8.9964   -1.9812   -2.0843 C   0  0  2  0  0  0  0  0  0  0  0  0
    8.0454   -2.4936   -3.0407 O   0  0  0  0  0  0  0  0  0  0  0  0
    8.9853   -0.4430   -2.0915 C   0  0  2  0  0  0  0  0  0  0  0  0
    9.0134    0.0657   -3.4505 N   0  3  0  0  0  0  0  0  0  0  0  0
   10.1228    0.1689   -1.2653 C   0  0  1  0  0  0  0  0  0  0  0  0
    9.7973    0.0921    0.1135 O   0  0  0  0  0  0  0  0  0  0  0  0
   11.4579   -0.5273   -1.5147 C   0  0  2  0  0  0  0  0  0  0  0  0
   11.9475   -0.1898   -2.8074 O   0  0  0  0  0  0  0  0  0  0  0  0
   12.6081   -2.7580   -1.5914 C   0  0  0  0  0  0  0  0  0  0  0  0
   12.4763   -4.1617   -1.2492 N   0  3  0  0  0  0  0  0  0  0  0  0
    7.7784   -9.3784    3.5894 C   0  0  1  0  0  0  0  0  0  0  0  0
    6.9399   -8.3510    3.0207 O   0  0  0  0  0  0  0  0  0  0  0  0
    7.6108   -7.5542    2.0176 C   0  0  2  0  0  0  0  0  0  0  0  0
    7.9546   -8.3333    0.8452 O   0  0  0  0  0  0  0  0  0  0  0  0
    8.8492   -6.8706    2.6098 C   0  0  2  0  0  0  0  0  0  0  0  0
    9.6259   -6.2504    1.5525 N   0  3  0  0  0  0  0  0  0  0  0  0
    9.7314   -7.8570    3.3669 C   0  0  1  0  0  0  0  0  0  0  0  0
   10.7272   -7.1502    4.0901 O   0  0  0  0  0  0  0  0  0  0  0  0
    8.9523   -8.7487    4.3214 C   0  0  2  0  0  0  0  0  0  0  0  0
    9.7956   -9.7617    4.8499 O   0  0  0  0  0  0  0  0  0  0  0  0
    6.9856  -10.1976    4.6038 C   0  0  0  0  0  0  0  0  0  0  0  0
    6.1556   -9.3352    5.4249 N   0  3  0  0  0  0  0  0  0  0  0  0
    5.8550   -9.8817   -2.5154 C   0  0  2  0  0  0  0  0  0  0  0  0
    5.1416   -9.8609   -1.1779 C   0  0  0  0  0  0  0  0  0  0  0  0
    6.1361   -9.6697   -0.0479 C   0  0  1  0  0  0  0  0  0  0  0  0
    6.8983   -8.3478   -0.1505 C   0  0  2  0  0  0  0  0  0  0  0  0
    7.5023   -8.1654   -1.5622 C   0  0  1  0  0  0  0  0  0  0  0  0
    6.6134   -8.5809   -2.7419 C   0  0  1  0  0  0  0  0  0  0  0  0
    4.8843  -10.0711   -3.5764 N   0  3  0  0  0  0  0  0  0  0  0  0
    5.4338   -9.7561    1.2177 N   0  3  0  0  0  0  0  0  0  0  0  0
    7.9913   -6.8162   -1.7609 O   0  0  0  0  0  0  0  0  0  0  0  0
    7.3992   -8.6830   -3.9248 O   0  0  0  0  0  0  0  0  0  0  0  0
  1  2  1  0  0  0  0
  3  2  1  6  0  0  0
  3  4  1  0  0  0  0
  3  5  1  0  0  0  0
  4  8  1  0  0  0  0
  5  6  1  0  0  0  0
  5 12  1  1  0  0  0
  6  7  1  6  0  0  0
  6  8  1  0  0  0  0
  8 41  1  6  0  0  0
  9 10  1  0  0  0  0
  9 17  1  0  0  0  0
  9 19  1  6  0  0  0
 10 11  1  0  0  0  0
 11 12  1  6  0  0  0
 11 13  1  0  0  0  0
 13 14  1  6  0  0  0
 13 15  1  0  0  0  0
 15 16  1  1  0  0  0
 15 17  1  0  0  0  0
 17 18  1  6  0  0  0
 19 20  1  0  0  0  0
 21 22  1  0  0  0  0
 21 29  1  0  0  0  0
 21 31  1  1  0  0  0
 22 23  1  0  0  0  0
 23 24  1  6  0  0  0
 23 25  1  0  0  0  0
 25 26  1  6  0  0  0
 25 27  1  0  0  0  0
 27 28  1  1  0  0  0
 27 29  1  0  0  0  0
 29 30  1  6  0  0  0
 31 32  1  0  0  0  0
 33 34  1  0  0  0  0
 33 38  1  0  0  0  0
 33 39  1  6  0  0  0
 34 35  1  0  0  0  0
 35 36  1  0  0  0  0
 35 40  1  1  0  0  0
 36 24  1  1  0  0  0
 36 37  1  0  0  0  0
 37 38  1  0  0  0  0
 37 41  1  6  0  0  0
 38 42  1  6  0  0  0
M  CHG  6  14   1  20   1  26   1  32   1  39   1  40   1
M  END
>  <CHROM.1>
72.57016433,64.10372669,163.99605658,-75.29230769,-81.47106202,-68.25109467
64.04172660,164.12850147,57.98415445,-65.71709957,-63.48148852,-41.93608742
89.14884291,-100.98641948,-48.14807964,58.68211253,-65.97900544,-18.75851369
-56.39449861,85.02812314,-67.27731968,68.45983717,8.20847367,-5.78877285
-0.56138794,1.14584304,-0.89676488,-0.90153589

>  <Name>


>  <RI>
0

>  <Rbt.Current_Directory>
/home/itssahil/PROJECTS/Mol_Feturizer/New_Systems/rnas/1qd3

>  <Rbt.Executable>
rbdock ($Id: //depot/dev/client3/rdock/2013.1/src/exe/rbdock.cxx#4 $)

>  <Rbt.Library>
libRbt.so (2013.1, Build901 2013/11/27)

>  <Rbt.Parameter_File>
/export/apps/rDock/src/rDock_2013.1_src/data/scripts/dock_solv.prm

>  <Rbt.Receptor>
prm/pocket_docking_7.prm

>  <SCORE>
-52.7586

>  <SCORE.INTER>
-33.6696

>  <SCORE.INTER.CONST>
1

>  <SCORE.INTER.POLAR>
-6.06685

>  <SCORE.INTER.ROT>
9

>  <SCORE.INTER.SOLV>
32.7983

>  <SCORE.INTER.VDW>
-22.7563

>  <SCORE.INTER.norm>
-0.801656

>  <SCORE.INTRA>
-19.9608

>  <SCORE.INTRA.DIHEDRAL>
-17.8847

>  <SCORE.INTRA.DIHEDRAL.0>
40.6252

>  <SCORE.INTRA.POLAR>
0.207326

>  <SCORE.INTRA.POLAR.0>
-1.20161

>  <SCORE.INTRA.REPUL>
-0.115675

>  <SCORE.INTRA.REPUL.0>
0.115675

>  <SCORE.INTRA.SOLV>
-8.3408

>  <SCORE.INTRA.SOLV.lig_0>
-154.895

>  <SCORE.INTRA.VDW>
-6.97463

>  <SCORE.INTRA.VDW.0>
2.2925

>  <SCORE.INTRA.norm>
-0.475258

>  <SCORE.RESTR>
0.871788

>  <SCORE.RESTR.CAVITY>
0.871788

>  <SCORE.RESTR.norm>
0.0207569

>  <SCORE.SYSTEM>
0

>  <SCORE.SYSTEM.CONST>
0

>  <SCORE.SYSTEM.DIHEDRAL>
0

>  <SCORE.SYSTEM.SOLV>
0

>  <SCORE.SYSTEM.norm>
0

>  <SCORE.heavy>
42

>  <SCORE.norm>
-1.25616

>  <RMSD>
8.595

$$$$

 OpenBabel11021811413D
libRbt.so/2013.1/901 2013/11/27
 42 45  0  0  0  0  0  0  0  0999 V2000
    9.9644   -0.6562   -3.2359 O   0  0  0  0  0  0  0  0  0  0  0  0
    8.7991    0.1195   -2.9953 C   0  0  0  0  0  0  0  0  0  0  0  0
    8.1707   -0.2899   -1.6626 C   0  0  1  0  0  0  0  0  0  0  0  0
    7.9806   -1.7196   -1.5890 O   0  0  0  0  0  0  0  0  0  0  0  0
    9.0204    0.0765   -0.4571 C   0  0  2  0  0  0  0  0  0  0  0  0
    8.4329   -0.8554    0.5895 C   0  0  1  0  0  0  0  0  0  0  0  0
    7.1905   -0.3372    1.0516 O   0  0  0  0  0  0  0  0  0  0  0  0
    8.1939   -2.1465   -0.2196 C   0  0  2  0  0  0  0  0  0  0  0  0
   11.8069    2.4121    1.8502 C   0  0  2  0  0  0  0  0  0  0  0  0
   11.0005    2.1068    0.7022 O   0  0  0  0  0  0  0  0  0  0  0  0
    9.6364    1.8246    1.0630 C   0  0  2  0  0  0  0  0  0  0  0  0
    8.8686    1.4656   -0.1046 O   0  0  0  0  0  0  0  0  0  0  0  0
    9.0004    3.0342    1.7694 C   0  0  2  0  0  0  0  0  0  0  0  0
    8.6564    4.0680    0.8105 N   0  3  0  0  0  0  0  0  0  0  0  0
    9.8811    3.6082    2.8854 C   0  0  1  0  0  0  0  0  0  0  0  0
    9.7826    2.7824    4.0348 O   0  0  0  0  0  0  0  0  0  0  0  0
   11.3435    3.7266    2.4650 C   0  0  2  0  0  0  0  0  0  0  0  0
   11.4951    4.7861    1.5275 O   0  0  0  0  0  0  0  0  0  0  0  0
   13.2826    2.4815    1.4679 C   0  0  0  0  0  0  0  0  0  0  0  0
   14.1186    2.2363    2.6281 N   0  3  0  0  0  0  0  0  0  0  0  0
   11.4921   -4.9777    1.3535 C   0  0  1  0  0  0  0  0  0  0  0  0
   10.9121   -6.0048    0.5224 O   0  0  0  0  0  0  0  0  0  0  0  0
    9.7227   -6.5986    1.0917 C   0  0  2  0  0  0  0  0  0  0  0  0
    8.6328   -5.6484    1.1860 O   0  0  0  0  0  0  0  0  0  0  0  0
   10.0314   -7.2232    2.4579 C   0  0  2  0  0  0  0  0  0  0  0  0
    8.7984   -7.6252    3.1088 N   0  3  0  0  0  0  0  0  0  0  0  0
   10.7842   -6.2557    3.3644 C   0  0  1  0  0  0  0  0  0  0  0  0
   11.2527   -6.9439    4.5138 O   0  0  0  0  0  0  0  0  0  0  0  0
   11.9546   -5.5730    2.6733 C   0  0  2  0  0  0  0  0  0  0  0  0
   12.4925   -4.5547    3.5041 O   0  0  0  0  0  0  0  0  0  0  0  0
   12.7131   -4.3755    0.6640 C   0  0  0  0  0  0  0  0  0  0  0  0
   12.3128   -3.5440   -0.4564 N   0  3  0  0  0  0  0  0  0  0  0  0
    8.7594   -5.3443   -3.0556 C   0  0  2  0  0  0  0  0  0  0  0  0
    7.5636   -6.0317   -2.4265 C   0  0  0  0  0  0  0  0  0  0  0  0
    7.8629   -6.4073   -0.9870 C   0  0  1  0  0  0  0  0  0  0  0  0
    8.1708   -5.1913   -0.1121 C   0  0  2  0  0  0  0  0  0  0  0  0
    9.2464   -4.2953   -0.7686 C   0  0  1  0  0  0  0  0  0  0  0  0
    9.1242   -4.0836   -2.2834 C   0  0  1  0  0  0  0  0  0  0  0  0
    8.4498   -5.0014   -4.4305 N   0  3  0  0  0  0  0  0  0  0  0  0
    6.7391   -7.1498   -0.4503 N   0  3  0  0  0  0  0  0  0  0  0  0
    9.3555   -3.0165   -0.0965 O   0  0  0  0  0  0  0  0  0  0  0  0
   10.3382   -3.5424   -2.7939 O   0  0  0  0  0  0  0  0  0  0  0  0
  1  2  1  0  0  0  0
  3  2  1  6  0  0  0
  3  4  1  0  0  0  0
  3  5  1  0  0  0  0
  4  8  1  0  0  0  0
  5  6  1  0  0  0  0
  5 12  1  1  0  0  0
  6  7  1  6  0  0  0
  6  8  1  0  0  0  0
  8 41  1  6  0  0  0
  9 10  1  0  0  0  0
  9 17  1  0  0  0  0
  9 19  1  6  0  0  0
 10 11  1  0  0  0  0
 11 12  1  6  0  0  0
 11 13  1  0  0  0  0
 13 14  1  6  0  0  0
 13 15  1  0  0  0  0
 15 16  1  1  0  0  0
 15 17  1  0  0  0  0
 17 18  1  6  0  0  0
 19 20  1  0  0  0  0
 21 22  1  0  0  0  0
 21 29  1  0  0  0  0
 21 31  1  6  0  0  0
 22 23  1  0  0  0  0
 23 24  1  1  0  0  0
 23 25  1  0  0  0  0
 25 26  1  1  0  0  0
 25 27  1  0  0  0  0
 27 28  1  1  0  0  0
 27 29  1  0  0  0  0
 29 30  1  1  0  0  0
 31 32  1  0  0  0  0
 33 34  1  0  0  0  0
 33 38  1  0  0  0  0
 33 39  1  6  0  0  0
 34 35  1  0  0  0  0
 35 36  1  0  0  0  0
 35 40  1  1  0  0  0
 36 24  1  1  0  0  0
 36 37  1  0  0  0  0
 37 38  1  0  0  0  0
 37 41  1  1  0  0  0
 38 42  1  6  0  0  0
M  CHG  6  14   1  20   1  26   1  32   1  39   1  40   1
M  END
>  <CHROM.1>
-173.93790143,-51.38493912,178.24237677,-175.65114693,-65.41389157,-156.46957871
82.96823322,179.08341601,179.28434397,-168.80387381,51.61941443,72.17935141
64.71250931,52.28658319,167.24045722,-60.06175554,67.85829108,57.44014983
-178.86296667,-94.72647437,-66.90244504,150.53300574,9.85315911,-2.13438668
0.46572096,1.31656011,-1.03165304,-0.09380719

>  <Name>


>  <RI>
0

>  <Rbt.Current_Directory>
/home/itssahil/PROJECTS/Mol_Feturizer/New_Systems/rnas/1qd3

>  <Rbt.Executable>
rbdock ($Id: //depot/dev/client3/rdock/2013.1/src/exe/rbdock.cxx#4 $)

>  <Rbt.Library>
libRbt.so (2013.1, Build901 2013/11/27)

>  <Rbt.Parameter_File>
/export/apps/rDock/src/rDock_2013.1_src/data/scripts/dock_solv.prm

>  <Rbt.Receptor>
prm/pocket_docking_6.prm

>  <SCORE>
-58.4576

>  <SCORE.INTER>
-32.5434

>  <SCORE.INTER.CONST>
1

>  <SCORE.INTER.POLAR>
-5.30437

>  <SCORE.INTER.ROT>
9

>  <SCORE.INTER.SOLV>
29.0817

>  <SCORE.INTER.VDW>
-23.3083

>  <SCORE.INTER.norm>
-0.774844

>  <SCORE.INTRA>
-26.6726

>  <SCORE.INTRA.DIHEDRAL>
-24.7021

>  <SCORE.INTRA.DIHEDRAL.0>
40.6252

>  <SCORE.INTRA.POLAR>
-0.722757

>  <SCORE.INTRA.POLAR.0>
-1.20161

>  <SCORE.INTRA.REPUL>
-0.115675

>  <SCORE.INTRA.REPUL.0>
0.115675

>  <SCORE.INTRA.SOLV>
-6.96068

>  <SCORE.INTRA.SOLV.lig_0>
-154.895

>  <SCORE.INTRA.VDW>
-7.80543

>  <SCORE.INTRA.VDW.0>
2.2925

>  <SCORE.INTRA.norm>
-0.635062

>  <SCORE.RESTR>
0.758434

>  <SCORE.RESTR.CAVITY>
0.758434

>  <SCORE.RESTR.norm>
0.0180579

>  <SCORE.SYSTEM>
0

>  <SCORE.SYSTEM.CONST>
0

>  <SCORE.SYSTEM.DIHEDRAL>
0

>  <SCORE.SYSTEM.SOLV>
0

>  <SCORE.SYSTEM.norm>
0

>  <SCORE.heavy>
42

>  <SCORE.norm>
-1.39185

>  <RMSD>
8.607

$$$$

 OpenBabel11021811413D
libRbt.so/2013.1/901 2013/11/27
 42 45  0  0  0  0  0  0  0  0999 V2000
   13.2829    1.1349   -1.9701 O   0  0  0  0  0  0  0  0  0  0  0  0
   12.4704    0.7184   -0.8820 C   0  0  0  0  0  0  0  0  0  0  0  0
   11.0318    0.5139   -1.3586 C   0  0  1  0  0  0  0  0  0  0  0  0
   10.8418   -0.8108   -1.9014 O   0  0  0  0  0  0  0  0  0  0  0  0
   10.0026    0.6576   -0.2498 C   0  0  2  0  0  0  0  0  0  0  0  0
    8.8207   -0.0656   -0.8735 C   0  0  1  0  0  0  0  0  0  0  0  0
    8.1978    0.7745   -1.8389 O   0  0  0  0  0  0  0  0  0  0  0  0
    9.5009   -1.2576   -1.5770 C   0  0  2  0  0  0  0  0  0  0  0  0
    8.3498    2.1616    3.4172 C   0  0  2  0  0  0  0  0  0  0  0  0
    9.3223    2.0666    2.3652 O   0  0  0  0  0  0  0  0  0  0  0  0
    8.7217    2.1999    1.0643 C   0  0  2  0  0  0  0  0  0  0  0  0
    9.7154    2.0418    0.0303 O   0  0  0  0  0  0  0  0  0  0  0  0
    8.0202    3.5620    0.9271 C   0  0  2  0  0  0  0  0  0  0  0  0
    8.9896    4.6216    0.7176 N   0  3  0  0  0  0  0  0  0  0  0  0
    7.1129    3.8920    2.1182 C   0  0  1  0  0  0  0  0  0  0  0  0
    5.9004    3.1645    2.0022 O   0  0  0  0  0  0  0  0  0  0  0  0
    7.7749    3.5718    3.4557 C   0  0  2  0  0  0  0  0  0  0  0  0
    8.8065    4.5141    3.7247 O   0  0  0  0  0  0  0  0  0  0  0  0
    8.9727    1.7920    4.7604 C   0  0  0  0  0  0  0  0  0  0  0  0
    7.9427    1.6327    5.7697 N   0  3  0  0  0  0  0  0  0  0  0  0
   11.2732   -4.6198    1.3753 C   0  0  1  0  0  0  0  0  0  0  0  0
   10.7561   -5.5041    0.3590 O   0  0  0  0  0  0  0  0  0  0  0  0
    9.4199   -5.9806    0.6402 C   0  0  2  0  0  0  0  0  0  0  0  0
    8.4451   -4.9087    0.6188 O   0  0  0  0  0  0  0  0  0  0  0  0
    9.3845   -6.7336    1.9756 C   0  0  2  0  0  0  0  0  0  0  0  0
    8.0112   -7.0205    2.3463 N   0  3  0  0  0  0  0  0  0  0  0  0
   10.0486   -5.9355    3.0921 C   0  0  1  0  0  0  0  0  0  0  0  0
   10.2041   -6.7565    4.2392 O   0  0  0  0  0  0  0  0  0  0  0  0
   11.3998   -5.3601    2.6967 C   0  0  2  0  0  0  0  0  0  0  0  0
   11.8750   -4.4791    3.7040 O   0  0  0  0  0  0  0  0  0  0  0  0
   12.6644   -4.1306    0.9833 C   0  0  0  0  0  0  0  0  0  0  0  0
   12.6030   -3.3107   -0.2129 N   0  3  0  0  0  0  0  0  0  0  0  0
    8.9291   -4.7789   -3.6059 C   0  0  2  0  0  0  0  0  0  0  0  0
    7.6279   -5.3281   -3.0550 C   0  0  0  0  0  0  0  0  0  0  0  0
    7.7774   -5.6749   -1.5852 C   0  0  1  0  0  0  0  0  0  0  0  0
    8.1310   -4.4603   -0.7257 C   0  0  2  0  0  0  0  0  0  0  0  0
    9.3349   -3.6934   -1.3201 C   0  0  1  0  0  0  0  0  0  0  0  0
    9.3514   -3.5290   -2.8456 C   0  0  1  0  0  0  0  0  0  0  0  0
    8.7613   -4.4612   -5.0112 N   0  3  0  0  0  0  0  0  0  0  0  0
    6.5497   -6.2893   -1.1188 N   0  3  0  0  0  0  0  0  0  0  0  0
    9.5129   -2.4056   -0.6807 O   0  0  0  0  0  0  0  0  0  0  0  0
   10.6473   -3.1223   -3.2725 O   0  0  0  0  0  0  0  0  0  0  0  0
  1  2  1  0  0  0  0
  3  2  1  1  0  0  0
  3  4  1  0  0  0  0
  3  5  1  0  0  0  0
  4  8  1  0  0  0  0
  5  6  1  0  0  0  0
  5 12  1  6  0  0  0
  6  7  1  6  0  0  0
  6  8  1  0  0  0  0
  8 41  1  1  0  0  0
  9 10  1  0  0  0  0
  9 17  1  0  0  0  0
  9 19  1  1  0  0  0
 10 11  1  0  0  0  0
 11 12  1  6  0  0  0
 11 13  1  0  0  0  0
 13 14  1  1  0  0  0
 13 15  1  0  0  0  0
 15 16  1  6  0  0  0
 15 17  1  0  0  0  0
 17 18  1  6  0  0  0
 19 20  1  0  0  0  0
 21 22  1  0  0  0  0
 21 29  1  0  0  0  0
 21 31  1  6  0  0  0
 22 23  1  0  0  0  0
 23 24  1  1  0  0  0
 23 25  1  0  0  0  0
 25 26  1  1  0  0  0
 25 27  1  0  0  0  0
 27 28  1  1  0  0  0
 27 29  1  0  0  0  0
 29 30  1  1  0  0  0
 31 32  1  0  0  0  0
 33 34  1  0  0  0  0
 33 38  1  0  0  0  0
 33 39  1  6  0  0  0
 34 35  1  0  0  0  0
 35 36  1  0  0  0  0
 35 40  1  1  0  0  0
 36 24  1  1  0  0  0
 36 37  1  0  0  0  0
 37 38  1  0  0  0  0
 37 41  1  1  0  0  0
 38 42  1  6  0  0  0
M  CHG  6  14   1  20   1  26   1  32   1  39   1  40   1
M  END
>  <CHROM.1>
-172.85300287,85.63082159,178.94583005,-158.63172073,-98.86009726,-168.80471601
81.35257814,-46.08315926,174.44781606,174.13665209,-162.23866383,65.05334848
74.57265140,50.90493835,-134.57215394,-62.46119509,-58.70347509,-68.97041228
-156.13042231,-151.45081277,-123.50377486,-177.10682700,9.44588928,-1.68108588
0.45123836,-2.63302038,-1.45892057,2.33944436

>  <Name>


>  <RI>
0

>  <Rbt.Current_Directory>
/home/itssahil/PROJECTS/Mol_Feturizer/New_Systems/rnas/1qd3

>  <Rbt.Executable>
rbdock ($Id: //depot/dev/client3/rdock/2013.1/src/exe/rbdock.cxx#4 $)

>  <Rbt.Library>
libRbt.so (2013.1, Build901 2013/11/27)

>  <Rbt.Parameter_File>
/export/apps/rDock/src/rDock_2013.1_src/data/scripts/dock_solv.prm

>  <Rbt.Receptor>
prm/pocket_docking_6.prm

>  <SCORE>
-37.9302

>  <SCORE.INTER>
-27.3828

>  <SCORE.INTER.CONST>
1

>  <SCORE.INTER.POLAR>
-8.36015

>  <SCORE.INTER.ROT>
9

>  <SCORE.INTER.SOLV>
45.6613

>  <SCORE.INTER.VDW>
-15.2085

>  <SCORE.INTER.norm>
-0.651972

>  <SCORE.INTRA>
-10.6177

>  <SCORE.INTRA.DIHEDRAL>
-11.2808

>  <SCORE.INTRA.DIHEDRAL.0>
40.6252

>  <SCORE.INTRA.POLAR>
-0.133656

>  <SCORE.INTRA.POLAR.0>
-1.20161

>  <SCORE.INTRA.REPUL>
0.045305

>  <SCORE.INTRA.REPUL.0>
0.115675

>  <SCORE.INTRA.SOLV>
-6.80086

>  <SCORE.INTRA.SOLV.lig_0>
-154.895

>  <SCORE.INTRA.VDW>
-1.34895

>  <SCORE.INTRA.VDW.0>
2.2925

>  <SCORE.INTRA.norm>
-0.252803

>  <SCORE.RESTR>
0.0703113

>  <SCORE.RESTR.CAVITY>
0.0703113

>  <SCORE.RESTR.norm>
0.00167408

>  <SCORE.SYSTEM>
0

>  <SCORE.SYSTEM.CONST>
0

>  <SCORE.SYSTEM.DIHEDRAL>
0

>  <SCORE.SYSTEM.SOLV>
0

>  <SCORE.SYSTEM.norm>
0

>  <SCORE.heavy>
42

>  <SCORE.norm>
-0.9031

>  <RMSD>
8.612

$$$$

 OpenBabel11021811413D
libRbt.so/2013.1/901 2013/11/27
 42 45  0  0  0  0  0  0  0  0999 V2000
   11.4820   -2.7941   -5.0327 O   0  0  0  0  0  0  0  0  0  0  0  0
   10.9761   -2.6050   -3.7189 C   0  0  0  0  0  0  0  0  0  0  0  0
    9.6517   -3.3531   -3.5616 C   0  0  1  0  0  0  0  0  0  0  0  0
    9.8221   -4.7720   -3.7696 O   0  0  0  0  0  0  0  0  0  0  0  0
    9.0379   -3.2090   -2.1788 C   0  0  2  0  0  0  0  0  0  0  0  0
    8.0893   -4.3960   -2.1717 C   0  0  1  0  0  0  0  0  0  0  0  0
    6.9312   -4.0907   -2.9409 O   0  0  0  0  0  0  0  0  0  0  0  0
    8.9201   -5.4827   -2.8842 C   0  0  2  0  0  0  0  0  0  0  0  0
   10.3198    0.6115   -0.3340 C   0  0  2  0  0  0  0  0  0  0  0  0
    9.7519   -0.1502   -1.4104 O   0  0  0  0  0  0  0  0  0  0  0  0
    8.8548   -1.1691   -0.9332 C   0  0  2  0  0  0  0  0  0  0  0  0
    8.3478   -1.9521   -2.0339 O   0  0  0  0  0  0  0  0  0  0  0  0
    7.6927   -0.5428   -0.1435 C   0  0  2  0  0  0  0  0  0  0  0  0
    6.7228    0.0555   -1.0422 N   0  3  0  0  0  0  0  0  0  0  0  0
    8.1590    0.4785    0.9007 C   0  0  1  0  0  0  0  0  0  0  0  0
    8.6676   -0.2060    2.0345 O   0  0  0  0  0  0  0  0  0  0  0  0
    9.2264    1.4210    0.3514 C   0  0  2  0  0  0  0  0  0  0  0  0
    8.6411    2.3328   -0.5708 O   0  0  0  0  0  0  0  0  0  0  0  0
   11.4301    1.5236   -0.8477 C   0  0  0  0  0  0  0  0  0  0  0  0
   12.2459    0.8277   -1.8250 N   0  3  0  0  0  0  0  0  0  0  0  0
    8.8213   -7.2220    0.9815 C   0  0  1  0  0  0  0  0  0  0  0  0
    9.3064   -8.3938    0.2932 O   0  0  0  0  0  0  0  0  0  0  0  0
    8.2557   -9.1690   -0.3284 C   0  0  2  0  0  0  0  0  0  0  0  0
    7.6096   -8.4444   -1.4042 O   0  0  0  0  0  0  0  0  0  0  0  0
    7.2345   -9.6320    0.7178 C   0  0  2  0  0  0  0  0  0  0  0  0
    6.0841  -10.2228    0.0596 N   0  3  0  0  0  0  0  0  0  0  0  0
    6.7694   -8.4802    1.6018 C   0  0  1  0  0  0  0  0  0  0  0  0
    6.0175   -8.9886    2.6929 O   0  0  0  0  0  0  0  0  0  0  0  0
    7.9139   -7.6296    2.1307 C   0  0  2  0  0  0  0  0  0  0  0  0
    7.4090   -6.4746    2.7847 O   0  0  0  0  0  0  0  0  0  0  0  0
    9.9919   -6.4402    1.5706 C   0  0  0  0  0  0  0  0  0  0  0  0
   10.3517   -5.3276    0.7107 N   0  3  0  0  0  0  0  0  0  0  0  0
   11.0326   -9.2649   -3.7936 C   0  0  2  0  0  0  0  0  0  0  0  0
    9.6803   -9.7176   -4.3079 C   0  0  0  0  0  0  0  0  0  0  0  0
    8.6573   -9.7150   -3.1870 C   0  0  1  0  0  0  0  0  0  0  0  0
    8.4463   -8.3252   -2.5845 C   0  0  2  0  0  0  0  0  0  0  0  0
    9.7974   -7.6739   -2.2090 C   0  0  1  0  0  0  0  0  0  0  0  0
   10.9450   -7.8611   -3.2102 C   0  0  1  0  0  0  0  0  0  0  0  0
   11.9920   -9.2818   -4.8813 N   0  3  0  0  0  0  0  0  0  0  0  0
    7.4060  -10.2478   -3.6898 N   0  3  0  0  0  0  0  0  0  0  0  0
    9.6403   -6.2690   -1.8919 O   0  0  0  0  0  0  0  0  0  0  0  0
   12.1823   -7.5190   -2.5945 O   0  0  0  0  0  0  0  0  0  0  0  0
  1  2  1  0  0  0  0
  3  2  1  1  0  0  0
  3  4  1  0  0  0  0
  3  5  1  0  0  0  0
  4  8  1  0  0  0  0
  5  6  1  0  0  0  0
  5 12  1  6  0  0  0
  6  7  1  6  0  0  0
  6  8  1  0  0  0  0
  8 41  1  1  0  0  0
  9 10  1  0  0  0  0
  9 17  1  0  0  0  0
  9 19  1  6  0  0  0
 10 11  1  0  0  0  0
 11 12  1  6  0  0  0
 11 13  1  0  0  0  0
 13 14  1  6  0  0  0
 13 15  1  0  0  0  0
 15 16  1  1  0  0  0
 15 17  1  0  0  0  0
 17 18  1  6  0  0  0
 19 20  1  0  0  0  0
 21 22  1  0  0  0  0
 21 29  1  0  0  0  0
 21 31  1  1  0  0  0
 22 23  1  0  0  0  0
 23 24  1  6  0  0  0
 23 25  1  0  0  0  0
 25 26  1  6  0  0  0
 25 27  1  0  0  0  0
 27 28  1  1  0  0  0
 27 29  1  0  0  0  0
 29 30  1  6  0  0  0
 31 32  1  0  0  0  0
 33 34  1  0  0  0  0
 33 38  1  0  0  0  0
 33 39  1  6  0  0  0
 34 35  1  0  0  0  0
 35 36  1  0  0  0  0
 35 40  1  6  0  0  0
 36 24  1  1  0  0  0
 36 37  1  0  0  0  0
 37 38  1  0  0  0  0
 37 41  1  6  0  0  0
 38 42  1  1  0  0  0
M  CHG  6  14   1  20   1  26   1  32   1  39   1  40   1
M  END
>  <CHROM.1>
179.37054149,60.69289795,-122.62213046,-170.34704798,-97.85491981,-41.16474699
100.10590529,130.84467179,-175.43070152,-168.66211599,2.07817160,98.86331162
72.38062622,66.36153488,-50.82893593,-68.14597106,-155.59629468,-47.81899725
70.02055062,-63.96779114,-51.17028482,-72.48846198,9.05457560,-4.97143951
-1.26155457,-1.39578269,-1.00477762,-2.93686889

>  <Name>


>  <RI>
0

>  <Rbt.Current_Directory>
/home/itssahil/PROJECTS/Mol_Feturizer/New_Systems/rnas/1qd3

>  <Rbt.Executable>
rbdock ($Id: //depot/dev/client3/rdock/2013.1/src/exe/rbdock.cxx#4 $)

>  <Rbt.Library>
libRbt.so (2013.1, Build901 2013/11/27)

>  <Rbt.Parameter_File>
/export/apps/rDock/src/rDock_2013.1_src/data/scripts/dock_solv.prm

>  <Rbt.Receptor>
prm/pocket_docking_6.prm

>  <SCORE>
-33.2593

>  <SCORE.INTER>
-18.2959

>  <SCORE.INTER.CONST>
1

>  <SCORE.INTER.POLAR>
-4.29272

>  <SCORE.INTER.ROT>
9

>  <SCORE.INTER.SOLV>
23.7232

>  <SCORE.INTER.VDW>
-15.3959

>  <SCORE.INTER.norm>
-0.435616

>  <SCORE.INTRA>
-14.9634

>  <SCORE.INTRA.DIHEDRAL>
-3.44691

>  <SCORE.INTRA.DIHEDRAL.0>
40.6252

>  <SCORE.INTRA.POLAR>
-0.213369

>  <SCORE.INTRA.POLAR.0>
-1.20161

>  <SCORE.INTRA.REPUL>
-0.115675

>  <SCORE.INTRA.REPUL.0>
0.115675

>  <SCORE.INTRA.SOLV>
-8.18749

>  <SCORE.INTRA.SOLV.lig_0>
-154.895

>  <SCORE.INTRA.VDW>
-7.84242

>  <SCORE.INTRA.VDW.0>
2.2925

>  <SCORE.INTRA.norm>
-0.356272

>  <SCORE.RESTR>
0

>  <SCORE.RESTR.CAVITY>
0

>  <SCORE.RESTR.norm>
0

>  <SCORE.SYSTEM>
0

>  <SCORE.SYSTEM.CONST>
0

>  <SCORE.SYSTEM.DIHEDRAL>
0

>  <SCORE.SYSTEM.SOLV>
0

>  <SCORE.SYSTEM.norm>
0

>  <SCORE.heavy>
42

>  <SCORE.norm>
-0.791888

>  <RMSD>
8.615

$$$$

 OpenBabel11021811413D
libRbt.so/2013.1/901 2013/11/27
 42 45  0  0  0  0  0  0  0  0999 V2000
    8.5375    1.6771   -1.3151 O   0  0  0  0  0  0  0  0  0  0  0  0
    8.1283    0.3947   -1.7685 C   0  0  0  0  0  0  0  0  0  0  0  0
    7.3615   -0.3263   -0.6592 C   0  0  1  0  0  0  0  0  0  0  0  0
    7.1452   -1.7158   -0.9879 O   0  0  0  0  0  0  0  0  0  0  0  0
    8.0886   -0.3259    0.6753 C   0  0  2  0  0  0  0  0  0  0  0  0
    7.3844   -1.4765    1.3748 C   0  0  1  0  0  0  0  0  0  0  0  0
    6.1085   -1.0488    1.8385 O   0  0  0  0  0  0  0  0  0  0  0  0
    7.2114   -2.4973    0.2317 C   0  0  2  0  0  0  0  0  0  0  0  0
   11.3589    2.0600    0.8765 C   0  0  2  0  0  0  0  0  0  0  0  0
   10.0736    1.4994    0.5678 O   0  0  0  0  0  0  0  0  0  0  0  0
    9.1809    1.5483    1.6953 C   0  0  2  0  0  0  0  0  0  0  0  0
    7.9207    0.9258    1.3696 O   0  0  0  0  0  0  0  0  0  0  0  0
    8.9575    3.0013    2.1484 C   0  0  2  0  0  0  0  0  0  0  0  0
    8.0478    3.6870    1.2491 N   0  3  0  0  0  0  0  0  0  0  0  0
   10.2635    3.7909    2.2962 C   0  0  1  0  0  0  0  0  0  0  0  0
   10.9004    3.4247    3.5099 O   0  0  0  0  0  0  0  0  0  0  0  0
   11.2169    3.5558    1.1277 C   0  0  2  0  0  0  0  0  0  0  0  0
   10.7239    4.2038   -0.0392 O   0  0  0  0  0  0  0  0  0  0  0  0
   12.3487    1.7904   -0.2532 C   0  0  0  0  0  0  0  0  0  0  0  0
   12.8186    0.4189   -0.1985 N   0  3  0  0  0  0  0  0  0  0  0  0
    7.8441   -6.7835    0.5772 C   0  0  1  0  0  0  0  0  0  0  0  0
    8.3080   -6.6973   -0.7864 O   0  0  0  0  0  0  0  0  0  0  0  0
    7.2467   -6.4545   -1.7382 C   0  0  2  0  0  0  0  0  0  0  0  0
    6.6382   -5.1525   -1.5534 O   0  0  0  0  0  0  0  0  0  0  0  0
    6.1963   -7.5699   -1.6726 C   0  0  2  0  0  0  0  0  0  0  0  0
    5.0409   -7.2101   -2.4735 N   0  3  0  0  0  0  0  0  0  0  0  0
    5.7486   -7.8409   -0.2406 C   0  0  1  0  0  0  0  0  0  0  0  0
    4.9653   -9.0238   -0.2005 O   0  0  0  0  0  0  0  0  0  0  0  0
    6.9072   -7.9698    0.7362 C   0  0  2  0  0  0  0  0  0  0  0  0
    6.4237   -8.0321    2.0700 O   0  0  0  0  0  0  0  0  0  0  0  0
    9.0260   -6.9974    1.5185 C   0  0  0  0  0  0  0  0  0  0  0  0
    8.8330   -6.2699    2.7596 N   0  3  0  0  0  0  0  0  0  0  0  0
   10.2241   -3.4525   -3.0869 C   0  0  2  0  0  0  0  0  0  0  0  0
    8.9714   -3.3571   -3.9353 C   0  0  0  0  0  0  0  0  0  0  0  0
    7.9215   -4.3372   -3.4452 C   0  0  1  0  0  0  0  0  0  0  0  0
    7.4880   -4.0651   -2.0040 C   0  0  2  0  0  0  0  0  0  0  0  0
    8.7151   -3.9344   -1.0723 C   0  0  1  0  0  0  0  0  0  0  0  0
    9.9111   -3.1499   -1.6277 C   0  0  1  0  0  0  0  0  0  0  0  0
   11.2120   -2.5114   -3.5789 N   0  3  0  0  0  0  0  0  0  0  0  0
    6.7802   -4.2908   -4.3382 N   0  3  0  0  0  0  0  0  0  0  0  0
    8.3423   -3.4153    0.2279 O   0  0  0  0  0  0  0  0  0  0  0  0
   11.0630   -3.3976   -0.8284 O   0  0  0  0  0  0  0  0  0  0  0  0
  1  2  1  0  0  0  0
  3  2  1  6  0  0  0
  3  4  1  0  0  0  0
  3  5  1  0  0  0  0
  4  8  1  0  0  0  0
  5  6  1  0  0  0  0
  5 12  1  1  0  0  0
  6  7  1  6  0  0  0
  6  8  1  0  0  0  0
  8 41  1  6  0  0  0
  9 10  1  0  0  0  0
  9 17  1  0  0  0  0
  9 19  1  6  0  0  0
 10 11  1  0  0  0  0
 11 12  1  6  0  0  0
 11 13  1  0  0  0  0
 13 14  1  6  0  0  0
 13 15  1  0  0  0  0
 15 16  1  1  0  0  0
 15 17  1  0  0  0  0
 17 18  1  6  0  0  0
 19 20  1  0  0  0  0
 21 22  1  0  0  0  0
 21 29  1  0  0  0  0
 21 31  1  1  0  0  0
 22 23  1  0  0  0  0
 23 24  1  1  0  0  0
 23 25  1  0  0  0  0
 25 26  1  6  0  0  0
 25 27  1  0  0  0  0
 27 28  1  6  0  0  0
 27 29  1  0  0  0  0
 29 30  1  1  0  0  0
 31 32  1  0  0  0  0
 33 34  1  0  0  0  0
 33 38  1  0  0  0  0
 33 39  1  6  0  0  0
 34 35  1  0  0  0  0
 35 36  1  0  0  0  0
 35 40  1  6  0  0  0
 36 24  1  1  0  0  0
 36 37  1  0  0  0  0
 37 38  1  0  0  0  0
 37 41  1  1  0  0  0
 38 42  1  1  0  0  0
M  CHG  6  14   1  20   1  26   1  32   1  39   1  40   1
M  END
>  <CHROM.1>
174.04128176,-169.33775120,-123.61588775,-165.89536584,-32.20773249,-77.21357147
44.91951510,-36.04206360,-60.87839611,50.34860921,136.13905083,142.76785269
73.34577992,52.95381497,64.48907893,-77.41452012,73.02527561,-164.96934581
-72.56347477,-175.63653553,-31.31745406,166.74249078,8.50660730,-2.30550277
-0.25500104,-0.78396931,-1.09782926,-2.23542997

>  <Name>


>  <RI>
0

>  <Rbt.Current_Directory>
/home/itssahil/PROJECTS/Mol_Feturizer/New_Systems/rnas/1qd3

>  <Rbt.Executable>
rbdock ($Id: //depot/dev/client3/rdock/2013.1/src/exe/rbdock.cxx#4 $)

>  <Rbt.Library>
libRbt.so (2013.1, Build901 2013/11/27)

>  <Rbt.Parameter_File>
/export/apps/rDock/src/rDock_2013.1_src/data/scripts/dock_solv.prm

>  <Rbt.Receptor>
prm/pocket_docking_4.prm

>  <SCORE>
-66.8718

>  <SCORE.INTER>
-53.7182

>  <SCORE.INTER.CONST>
1

>  <SCORE.INTER.POLAR>
-8.16264

>  <SCORE.INTER.ROT>
9

>  <SCORE.INTER.SOLV>
40.5944

>  <SCORE.INTER.VDW>
-31.7348

>  <SCORE.INTER.norm>
-1.27901

>  <SCORE.INTRA>
-13.4576

>  <SCORE.INTRA.DIHEDRAL>
-10.7997

>  <SCORE.INTRA.DIHEDRAL.0>
40.6252

>  <SCORE.INTRA.POLAR>
0.750514

>  <SCORE.INTRA.POLAR.0>
-1.20161

>  <SCORE.INTRA.REPUL>
-0.115675

>  <SCORE.INTRA.REPUL.0>
0.115675

>  <SCORE.INTRA.SOLV>
-7.95132

>  <SCORE.INTRA.SOLV.lig_0>
-154.895

>  <SCORE.INTRA.VDW>
-6.05547

>  <SCORE.INTRA.VDW.0>
2.2925

>  <SCORE.INTRA.norm>
-0.320419

>  <SCORE.RESTR>
0.304034

>  <SCORE.RESTR.CAVITY>
0.304034

>  <SCORE.RESTR.norm>
0.0072389

>  <SCORE.SYSTEM>
0

>  <SCORE.SYSTEM.CONST>
0

>  <SCORE.SYSTEM.DIHEDRAL>
0

>  <SCORE.SYSTEM.SOLV>
0

>  <SCORE.SYSTEM.norm>
0

>  <SCORE.heavy>
42

>  <SCORE.norm>
-1.59219

>  <RMSD>
8.628

$$$$

 OpenBabel11021811413D
libRbt.so/2013.1/901 2013/11/27
 42 45  0  0  0  0  0  0  0  0999 V2000
   12.2776   -3.2008   -0.7792 O   0  0  0  0  0  0  0  0  0  0  0  0
   12.6620   -4.5422   -1.0447 C   0  0  0  0  0  0  0  0  0  0  0  0
   12.6527   -4.7944   -2.5530 C   0  0  1  0  0  0  0  0  0  0  0  0
   12.7856   -6.2012   -2.8509 O   0  0  0  0  0  0  0  0  0  0  0  0
   11.3683   -4.3480   -3.2315 C   0  0  2  0  0  0  0  0  0  0  0  0
   11.4429   -5.1492   -4.5204 C   0  0  1  0  0  0  0  0  0  0  0  0
   12.3675   -4.5382   -5.4136 O   0  0  0  0  0  0  0  0  0  0  0  0
   12.0010   -6.5018   -4.0328 C   0  0  2  0  0  0  0  0  0  0  0  0
    8.0466   -2.5223   -1.9808 C   0  0  2  0  0  0  0  0  0  0  0  0
    9.3650   -3.0480   -2.1973 O   0  0  0  0  0  0  0  0  0  0  0  0
   10.0637   -2.3370   -3.2351 C   0  0  2  0  0  0  0  0  0  0  0  0
   11.3601   -2.9262   -3.4669 O   0  0  0  0  0  0  0  0  0  0  0  0
   10.2104   -0.8498   -2.8701 C   0  0  2  0  0  0  0  0  0  0  0  0
   11.2534   -0.6636   -1.8782 N   0  3  0  0  0  0  0  0  0  0  0  0
    8.8976   -0.2166   -2.3945 C   0  0  1  0  0  0  0  0  0  0  0  0
    8.0729    0.0564   -3.5162 O   0  0  0  0  0  0  0  0  0  0  0  0
    8.1458   -1.1121   -1.4134 C   0  0  2  0  0  0  0  0  0  0  0  0
    8.8208   -1.1343   -0.1610 O   0  0  0  0  0  0  0  0  0  0  0  0
    7.2526   -3.4297   -1.0455 C   0  0  0  0  0  0  0  0  0  0  0  0
    7.9614   -3.6103    0.2075 N   0  3  0  0  0  0  0  0  0  0  0  0
    7.8325   -8.0945   -0.8746 C   0  0  1  0  0  0  0  0  0  0  0  0
    8.4518   -8.6396   -2.0584 O   0  0  0  0  0  0  0  0  0  0  0  0
    7.8107   -8.2201   -3.2850 C   0  0  2  0  0  0  0  0  0  0  0  0
    7.9501   -6.7957   -3.5115 O   0  0  0  0  0  0  0  0  0  0  0  0
    6.3358   -8.6397   -3.2949 C   0  0  2  0  0  0  0  0  0  0  0  0
    5.6560   -8.0345   -4.4251 N   0  3  0  0  0  0  0  0  0  0  0  0
    5.6249   -8.2363   -2.0079 C   0  0  1  0  0  0  0  0  0  0  0  0
    4.3436   -8.8446   -1.9587 O   0  0  0  0  0  0  0  0  0  0  0  0
    6.4039   -8.5989   -0.7529 C   0  0  2  0  0  0  0  0  0  0  0  0
    5.7845   -8.0335    0.3931 O   0  0  0  0  0  0  0  0  0  0  0  0
    8.5917   -8.5494    0.3686 C   0  0  0  0  0  0  0  0  0  0  0  0
    9.8288   -7.8047    0.5166 N   0  3  0  0  0  0  0  0  0  0  0  0
    9.6566   -7.5285   -7.3390 C   0  0  2  0  0  0  0  0  0  0  0  0
    8.7322   -6.3365   -7.1881 C   0  0  0  0  0  0  0  0  0  0  0  0
    7.9162   -6.4547   -5.9142 C   0  0  1  0  0  0  0  0  0  0  0  0
    8.7866   -6.4871   -4.6571 C   0  0  2  0  0  0  0  0  0  0  0  0
    9.9097   -7.5417   -4.7888 C   0  0  1  0  0  0  0  0  0  0  0  0
   10.6067   -7.6274   -6.1531 C   0  0  1  0  0  0  0  0  0  0  0  0
   10.4199   -7.3941   -8.5651 N   0  3  0  0  0  0  0  0  0  0  0  0
    6.9746   -5.3537   -5.8538 N   0  3  0  0  0  0  0  0  0  0  0  0
   10.8955   -7.4026   -3.7363 O   0  0  0  0  0  0  0  0  0  0  0  0
   11.3550   -8.8357   -6.2369 O   0  0  0  0  0  0  0  0  0  0  0  0
  1  2  1  0  0  0  0
  3  2  1  1  0  0  0
  3  4  1  0  0  0  0
  3  5  1  0  0  0  0
  4  8  1  0  0  0  0
  5  6  1  0  0  0  0
  5 12  1  6  0  0  0
  6  7  1  6  0  0  0
  6  8  1  0  0  0  0
  8 41  1  1  0  0  0
  9 10  1  0  0  0  0
  9 17  1  0  0  0  0
  9 19  1  1  0  0  0
 10 11  1  0  0  0  0
 11 12  1  1  0  0  0
 11 13  1  0  0  0  0
 13 14  1  1  0  0  0
 13 15  1  0  0  0  0
 15 16  1  6  0  0  0
 15 17  1  0  0  0  0
 17 18  1  1  0  0  0
 19 20  1  0  0  0  0
 21 22  1  0  0  0  0
 21 29  1  0  0  0  0
 21 31  1  1  0  0  0
 22 23  1  0  0  0  0
 23 24  1  1  0  0  0
 23 25  1  0  0  0  0
 25 26  1  6  0  0  0
 25 27  1  0  0  0  0
 27 28  1  1  0  0  0
 27 29  1  0  0  0  0
 29 30  1  1  0  0  0
 31 32  1  0  0  0  0
 33 34  1  0  0  0  0
 33 38  1  0  0  0  0
 33 39  1  6  0  0  0
 34 35  1  0  0  0  0
 35 36  1  0  0  0  0
 35 40  1  1  0  0  0
 36 24  1  1  0  0  0
 36 37  1  0  0  0  0
 37 38  1  0  0  0  0
 37 41  1  1  0  0  0
 38 42  1  1  0  0  0
M  CHG  6  14   1  20   1  26   1  32   1  39   1  40   1
M  END
>  <CHROM.1>
168.42922582,-168.96022301,-140.93080431,-66.27377572,168.10120442,56.25931784
31.73145010,93.94939321,-66.38663655,-176.75931366,-85.01237856,76.20763657
112.73225735,87.92818253,-176.79268488,-174.40130851,-64.23186847,63.11955031
168.32507356,-144.84049696,-89.30480218,176.13924618,9.21324903,-5.46697113
-3.05806665,1.05422810,0.78879755,0.62912748

>  <Name>


>  <RI>
0

>  <Rbt.Current_Directory>
/home/itssahil/PROJECTS/Mol_Feturizer/New_Systems/rnas/1qd3

>  <Rbt.Executable>
rbdock ($Id: //depot/dev/client3/rdock/2013.1/src/exe/rbdock.cxx#4 $)

>  <Rbt.Library>
libRbt.so (2013.1, Build901 2013/11/27)

>  <Rbt.Parameter_File>
/export/apps/rDock/src/rDock_2013.1_src/data/scripts/dock_solv.prm

>  <Rbt.Receptor>
prm/pocket_docking_4.prm

>  <SCORE>
-29.436

>  <SCORE.INTER>
-14.5256

>  <SCORE.INTER.CONST>
1

>  <SCORE.INTER.POLAR>
-3.89309

>  <SCORE.INTER.ROT>
9

>  <SCORE.INTER.SOLV>
21.6544

>  <SCORE.INTER.VDW>
-13.5249

>  <SCORE.INTER.norm>
-0.345848

>  <SCORE.INTRA>
-14.9254

>  <SCORE.INTRA.DIHEDRAL>
-9.87296

>  <SCORE.INTRA.DIHEDRAL.0>
40.6252

>  <SCORE.INTRA.POLAR>
-0.601902

>  <SCORE.INTRA.POLAR.0>
-1.20161

>  <SCORE.INTRA.REPUL>
-0.115675

>  <SCORE.INTRA.REPUL.0>
0.115675

>  <SCORE.INTRA.SOLV>
-3.88823

>  <SCORE.INTRA.SOLV.lig_0>
-154.895

>  <SCORE.INTRA.VDW>
-5.41993

>  <SCORE.INTRA.VDW.0>
2.2925

>  <SCORE.INTRA.norm>
-0.355366

>  <SCORE.RESTR>
0.0149536

>  <SCORE.RESTR.CAVITY>
0.0149536

>  <SCORE.RESTR.norm>
0.000356039

>  <SCORE.SYSTEM>
0

>  <SCORE.SYSTEM.CONST>
0

>  <SCORE.SYSTEM.DIHEDRAL>
0

>  <SCORE.SYSTEM.SOLV>
0

>  <SCORE.SYSTEM.norm>
0

>  <SCORE.heavy>
42

>  <SCORE.norm>
-0.700858

>  <RMSD>
8.658

$$$$

 OpenBabel11021811413D
libRbt.so/2013.1/901 2013/11/27
 42 45  0  0  0  0  0  0  0  0999 V2000
   11.8018    1.8308   -1.6691 O   0  0  0  0  0  0  0  0  0  0  0  0
   11.6105    0.4234   -1.6883 C   0  0  0  0  0  0  0  0  0  0  0  0
   10.2716    0.0920   -2.3485 C   0  0  1  0  0  0  0  0  0  0  0  0
   10.2458   -1.2697   -2.8288 O   0  0  0  0  0  0  0  0  0  0  0  0
    9.0861    0.2201   -1.4063 C   0  0  2  0  0  0  0  0  0  0  0  0
    8.0546   -0.6174   -2.1434 C   0  0  1  0  0  0  0  0  0  0  0  0
    7.5258    0.1240   -3.2373 O   0  0  0  0  0  0  0  0  0  0  0  0
    8.9031   -1.7933   -2.6687 C   0  0  2  0  0  0  0  0  0  0  0  0
    7.8174    0.9832    2.2427 C   0  0  2  0  0  0  0  0  0  0  0  0
    8.3957    0.7694    0.9461 O   0  0  0  0  0  0  0  0  0  0  0  0
    8.1310    1.8655    0.0520 C   0  0  2  0  0  0  0  0  0  0  0  0
    8.6747    1.5932   -1.2563 O   0  0  0  0  0  0  0  0  0  0  0  0
    8.7139    3.1748    0.6108 C   0  0  2  0  0  0  0  0  0  0  0  0
   10.1527    3.2180    0.4260 N   0  3  0  0  0  0  0  0  0  0  0  0
    8.3539    3.4117    2.0823 C   0  0  1  0  0  0  0  0  0  0  0  0
    7.0157    3.8745    2.1711 O   0  0  0  0  0  0  0  0  0  0  0  0
    8.5158    2.1511    2.9274 C   0  0  2  0  0  0  0  0  0  0  0  0
    9.8971    1.8597    3.1052 O   0  0  0  0  0  0  0  0  0  0  0  0
    7.9161   -0.2817    3.0908 C   0  0  0  0  0  0  0  0  0  0  0  0
    6.7058   -0.4652    3.8696 N   0  3  0  0  0  0  0  0  0  0  0  0
   10.1353   -5.9741    1.6242 C   0  0  1  0  0  0  0  0  0  0  0  0
   10.1955   -4.6945    0.9599 O   0  0  0  0  0  0  0  0  0  0  0  0
   10.9072   -4.7352   -0.2983 C   0  0  2  0  0  0  0  0  0  0  0  0
   10.2210   -5.5450   -1.2848 O   0  0  0  0  0  0  0  0  0  0  0  0
   12.3469   -5.2204   -0.0894 C   0  0  2  0  0  0  0  0  0  0  0  0
   12.9809   -5.4577   -1.3730 N   0  3  0  0  0  0  0  0  0  0  0  0
   12.3976   -6.4996    0.7386 C   0  0  1  0  0  0  0  0  0  0  0  0
   13.7400   -6.7790    1.1049 O   0  0  0  0  0  0  0  0  0  0  0  0
   11.5354   -6.4390    1.9901 C   0  0  2  0  0  0  0  0  0  0  0  0
   11.4773   -7.7145    2.6116 O   0  0  0  0  0  0  0  0  0  0  0  0
    9.3344   -5.8540    2.9176 C   0  0  0  0  0  0  0  0  0  0  0  0
    8.2957   -6.8661    2.9748 N   0  3  0  0  0  0  0  0  0  0  0  0
    6.3540   -5.4287   -3.0546 C   0  0  2  0  0  0  0  0  0  0  0  0
    6.6006   -6.4353   -1.9483 C   0  0  0  0  0  0  0  0  0  0  0  0
    8.0894   -6.6206   -1.7204 C   0  0  1  0  0  0  0  0  0  0  0  0
    8.7856   -5.3285   -1.2907 C   0  0  2  0  0  0  0  0  0  0  0  0
    8.4320   -4.1653   -2.2461 C   0  0  1  0  0  0  0  0  0  0  0  0
    6.9700   -4.0809   -2.7042 C   0  0  1  0  0  0  0  0  0  0  0  0
    4.9259   -5.2743   -3.2561 N   0  3  0  0  0  0  0  0  0  0  0  0
    8.2887   -7.6606   -0.7300 N   0  3  0  0  0  0  0  0  0  0  0  0
    8.8579   -2.8887   -1.7097 O   0  0  0  0  0  0  0  0  0  0  0  0
    6.8640   -3.2004   -3.8180 O   0  0  0  0  0  0  0  0  0  0  0  0
  1  2  1  0  0  0  0
  3  2  1  1  0  0  0
  3  4  1  0  0  0  0
  3  5  1  0  0  0  0
  4  8  1  0  0  0  0
  5  6  1  0  0  0  0
  5 12  1  6  0  0  0
  6  7  1  6  0  0  0
  6  8  1  0  0  0  0
  8 41  1  1  0  0  0
  9 10  1  0  0  0  0
  9 17  1  0  0  0  0
  9 19  1  1  0  0  0
 10 11  1  0  0  0  0
 11 12  1  6  0  0  0
 11 13  1  0  0  0  0
 13 14  1  1  0  0  0
 13 15  1  0  0  0  0
 15 16  1  6  0  0  0
 15 17  1  0  0  0  0
 17 18  1  6  0  0  0
 19 20  1  0  0  0  0
 21 22  1  0  0  0  0
 21 29  1  0  0  0  0
 21 31  1  1  0  0  0
 22 23  1  0  0  0  0
 23 24  1  6  0  0  0
 23 25  1  0  0  0  0
 25 26  1  6  0  0  0
 25 27  1  0  0  0  0
 27 28  1  1  0  0  0
 27 29  1  0  0  0  0
 29 30  1  6  0  0  0
 31 32  1  0  0  0  0
 33 34  1  0  0  0  0
 33 38  1  0  0  0  0
 33 39  1  1  0  0  0
 34 35  1  0  0  0  0
 35 36  1  0  0  0  0
 35 40  1  1  0  0  0
 36 24  1  6  0  0  0
 36 37  1  0  0  0  0
 37 38  1  0  0  0  0
 37 41  1  1  0  0  0
 38 42  1  6  0  0  0
M  CHG  6  14   1  20   1  26   1  32   1  39   1  40   1
M  END
>  <CHROM.1>
-140.12424979,158.94412417,-148.36252336,81.23877343,-117.71023902,-140.72841111
11.84483914,36.49583151,-177.63360189,-174.48506915,134.32944310,128.34571673
42.23269026,-149.73722876,66.23890612,57.89270604,47.36470473,-65.93402171
168.17071442,51.58143741,164.06344466,64.87360064,9.18500640,-2.42137929
-0.18291121,1.82922285,-1.02893791,0.31792762

>  <Name>


>  <RI>
0

>  <Rbt.Current_Directory>
/home/itssahil/PROJECTS/Mol_Feturizer/New_Systems/rnas/1qd3

>  <Rbt.Executable>
rbdock ($Id: //depot/dev/client3/rdock/2013.1/src/exe/rbdock.cxx#4 $)

>  <Rbt.Library>
libRbt.so (2013.1, Build901 2013/11/27)

>  <Rbt.Parameter_File>
/export/apps/rDock/src/rDock_2013.1_src/data/scripts/dock_solv.prm

>  <Rbt.Receptor>
prm/pocket_docking_5.prm

>  <SCORE>
-33.6068

>  <SCORE.INTER>
-26.0045

>  <SCORE.INTER.CONST>
1

>  <SCORE.INTER.POLAR>
-4.96102

>  <SCORE.INTER.ROT>
9

>  <SCORE.INTER.SOLV>
38.8367

>  <SCORE.INTER.VDW>
-23.3452

>  <SCORE.INTER.norm>
-0.619156

>  <SCORE.INTRA>
-8.0093

>  <SCORE.INTRA.DIHEDRAL>
8.3456

>  <SCORE.INTRA.DIHEDRAL.0>
40.6252

>  <SCORE.INTRA.POLAR>
-0.104772

>  <SCORE.INTRA.POLAR.0>
-1.20161

>  <SCORE.INTRA.REPUL>
-0.115675

>  <SCORE.INTRA.REPUL.0>
0.115675

>  <SCORE.INTRA.SOLV>
-8.52182

>  <SCORE.INTRA.SOLV.lig_0>
-154.895

>  <SCORE.INTRA.VDW>
-6.98659

>  <SCORE.INTRA.VDW.0>
2.2925

>  <SCORE.INTRA.norm>
-0.190698

>  <SCORE.RESTR>
0.406999

>  <SCORE.RESTR.CAVITY>
0.406999

>  <SCORE.RESTR.norm>
0.00969046

>  <SCORE.SYSTEM>
0

>  <SCORE.SYSTEM.CONST>
0

>  <SCORE.SYSTEM.DIHEDRAL>
0

>  <SCORE.SYSTEM.SOLV>
0

>  <SCORE.SYSTEM.norm>
0

>  <SCORE.heavy>
42

>  <SCORE.norm>
-0.800163

>  <RMSD>
8.663

$$$$

 OpenBabel11021811413D
libRbt.so/2013.1/901 2013/11/27
 42 45  0  0  0  0  0  0  0  0999 V2000
    9.9859  -10.5982   -1.7568 O   0  0  0  0  0  0  0  0  0  0  0  0
   10.7211   -9.4207   -1.4562 C   0  0  0  0  0  0  0  0  0  0  0  0
    9.7855   -8.3609   -0.8732 C   0  0  1  0  0  0  0  0  0  0  0  0
   10.4545   -7.0885   -0.7352 O   0  0  0  0  0  0  0  0  0  0  0  0
    8.5639   -8.0937   -1.7368 C   0  0  2  0  0  0  0  0  0  0  0  0
    8.1417   -6.7338   -1.2065 C   0  0  1  0  0  0  0  0  0  0  0  0
    7.4773   -6.8898    0.0426 O   0  0  0  0  0  0  0  0  0  0  0  0
    9.4977   -6.0302   -0.9946 C   0  0  2  0  0  0  0  0  0  0  0  0
    6.0143  -11.0088   -4.2548 C   0  0  2  0  0  0  0  0  0  0  0  0
    6.7295  -10.7427   -3.0386 O   0  0  0  0  0  0  0  0  0  0  0  0
    6.7752   -9.3360   -2.7386 C   0  0  2  0  0  0  0  0  0  0  0  0
    7.5491   -9.0988   -1.5443 O   0  0  0  0  0  0  0  0  0  0  0  0
    5.3544   -8.7692   -2.5759 C   0  0  2  0  0  0  0  0  0  0  0  0
    4.7944   -9.1447   -1.2907 N   0  3  0  0  0  0  0  0  0  0  0  0
    4.4114   -9.1790   -3.7132 C   0  0  1  0  0  0  0  0  0  0  0  0
    4.6835   -8.3875   -4.8588 O   0  0  0  0  0  0  0  0  0  0  0  0
    4.5437  -10.6570   -4.0701 C   0  0  2  0  0  0  0  0  0  0  0  0
    3.9739  -11.4579   -3.0412 O   0  0  0  0  0  0  0  0  0  0  0  0
    6.1761  -12.4698   -4.6651 C   0  0  0  0  0  0  0  0  0  0  0  0
    6.1542  -12.5954   -6.1103 N   0  3  0  0  0  0  0  0  0  0  0  0
    8.0641   -7.1186   -6.5663 C   0  0  1  0  0  0  0  0  0  0  0  0
    8.6362   -7.1363   -5.2417 O   0  0  0  0  0  0  0  0  0  0  0  0
    9.3866   -5.9411   -4.9259 C   0  0  2  0  0  0  0  0  0  0  0  0
    8.5385   -4.7679   -4.8626 O   0  0  0  0  0  0  0  0  0  0  0  0
   10.5319   -5.7420   -5.9260 C   0  0  2  0  0  0  0  0  0  0  0  0
   11.1413   -4.4399   -5.7286 N   0  3  0  0  0  0  0  0  0  0  0  0
   10.0494   -5.8560   -7.3678 C   0  0  1  0  0  0  0  0  0  0  0  0
   11.1656   -5.9022   -8.2431 O   0  0  0  0  0  0  0  0  0  0  0  0
    9.1670   -7.0707   -7.6111 C   0  0  2  0  0  0  0  0  0  0  0  0
    8.6018   -7.0173   -8.9127 O   0  0  0  0  0  0  0  0  0  0  0  0
    7.2565   -8.3916   -6.8035 C   0  0  0  0  0  0  0  0  0  0  0  0
    6.5667   -8.3325   -8.0792 N   0  3  0  0  0  0  0  0  0  0  0  0
    7.2426   -2.5777   -1.4533 C   0  0  2  0  0  0  0  0  0  0  0  0
    6.1848   -3.1845   -2.3539 C   0  0  0  0  0  0  0  0  0  0  0  0
    6.7834   -3.5644   -3.6956 C   0  0  1  0  0  0  0  0  0  0  0  0
    7.8943   -4.6081   -3.5715 C   0  0  2  0  0  0  0  0  0  0  0  0
    8.9368   -4.1832   -2.5115 C   0  0  1  0  0  0  0  0  0  0  0  0
    8.3829   -3.5603   -1.2232 C   0  0  1  0  0  0  0  0  0  0  0  0
    6.6444   -2.2187   -0.1815 N   0  3  0  0  0  0  0  0  0  0  0  0
    5.7266   -4.0458   -4.5638 N   0  3  0  0  0  0  0  0  0  0  0  0
    9.8396   -5.2694   -2.1886 O   0  0  0  0  0  0  0  0  0  0  0  0
    9.4332   -2.9180   -0.5082 O   0  0  0  0  0  0  0  0  0  0  0  0
  1  2  1  0  0  0  0
  3  2  1  6  0  0  0
  3  4  1  0  0  0  0
  3  5  1  0  0  0  0
  4  8  1  0  0  0  0
  5  6  1  0  0  0  0
  5 12  1  1  0  0  0
  6  7  1  1  0  0  0
  6  8  1  0  0  0  0
  8 41  1  6  0  0  0
  9 10  1  0  0  0  0
  9 17  1  0  0  0  0
  9 19  1  1  0  0  0
 10 11  1  0  0  0  0
 11 12  1  1  0  0  0
 11 13  1  0  0  0  0
 13 14  1  1  0  0  0
 13 15  1  0  0  0  0
 15 16  1  6  0  0  0
 15 17  1  0  0  0  0
 17 18  1  1  0  0  0
 19 20  1  0  0  0  0
 21 22  1  0  0  0  0
 21 29  1  0  0  0  0
 21 31  1  6  0  0  0
 22 23  1  0  0  0  0
 23 24  1  6  0  0  0
 23 25  1  0  0  0  0
 25 26  1  6  0  0  0
 25 27  1  0  0  0  0
 27 28  1  6  0  0  0
 27 29  1  0  0  0  0
 29 30  1  6  0  0  0
 31 32  1  0  0  0  0
 33 34  1  0  0  0  0
 33 38  1  0  0  0  0
 33 39  1  1  0  0  0
 34 35  1  0  0  0  0
 35 36  1  0  0  0  0
 35 40  1  6  0  0  0
 36 24  1  6  0  0  0
 36 37  1  0  0  0  0
 37 38  1  0  0  0  0
 37 41  1  1  0  0  0
 38 42  1  6  0  0  0
M  CHG  6  14   1  20   1  26   1  32   1  39   1  40   1
M  END
>  <CHROM.1>
-60.51848450,-171.68537371,-148.43003844,72.05396833,-179.49284071,-148.07680214
128.80295094,-65.39991300,-73.07882016,-55.77141986,54.24786438,174.40272685
83.92560266,-166.63069343,-20.46586269,67.71423183,69.58677601,-48.78079587
-174.31857737,-30.07423626,-97.04894845,72.23993662,7.79395769,-7.16086935
-3.66099433,2.45200969,-1.08845999,-2.01648595

>  <Name>


>  <RI>
0

>  <Rbt.Current_Directory>
/home/itssahil/PROJECTS/Mol_Feturizer/New_Systems/rnas/1qd3

>  <Rbt.Executable>
rbdock ($Id: //depot/dev/client3/rdock/2013.1/src/exe/rbdock.cxx#4 $)

>  <Rbt.Library>
libRbt.so (2013.1, Build901 2013/11/27)

>  <Rbt.Parameter_File>
/export/apps/rDock/src/rDock_2013.1_src/data/scripts/dock_solv.prm

>  <Rbt.Receptor>
prm/pocket_docking_6.prm

>  <SCORE>
-40.0883

>  <SCORE.INTER>
-24.8038

>  <SCORE.INTER.CONST>
1

>  <SCORE.INTER.POLAR>
-5.51721

>  <SCORE.INTER.ROT>
9

>  <SCORE.INTER.SOLV>
25.1867

>  <SCORE.INTER.VDW>
-16.1407

>  <SCORE.INTER.norm>
-0.590566

>  <SCORE.INTRA>
-15.2845

>  <SCORE.INTRA.DIHEDRAL>
-9.99834

>  <SCORE.INTRA.DIHEDRAL.0>
40.6252

>  <SCORE.INTRA.POLAR>
0.284321

>  <SCORE.INTRA.POLAR.0>
-1.20161

>  <SCORE.INTRA.REPUL>
-0.106111

>  <SCORE.INTRA.REPUL.0>
0.115675

>  <SCORE.INTRA.SOLV>
-8.37313

>  <SCORE.INTRA.SOLV.lig_0>
-154.895

>  <SCORE.INTRA.VDW>
-6.53494

>  <SCORE.INTRA.VDW.0>
2.2925

>  <SCORE.INTRA.norm>
-0.363918

>  <SCORE.RESTR>
0

>  <SCORE.RESTR.CAVITY>
0

>  <SCORE.RESTR.norm>
0

>  <SCORE.SYSTEM>
0

>  <SCORE.SYSTEM.CONST>
0

>  <SCORE.SYSTEM.DIHEDRAL>
0

>  <SCORE.SYSTEM.SOLV>
0

>  <SCORE.SYSTEM.norm>
0

>  <SCORE.heavy>
42

>  <SCORE.norm>
-0.954484

>  <RMSD>
8.682

$$$$

 OpenBabel11021811413D
libRbt.so/2013.1/901 2013/11/27
 42 45  0  0  0  0  0  0  0  0999 V2000
    6.9639   -6.1840   -6.8156 O   0  0  0  0  0  0  0  0  0  0  0  0
    6.0020   -5.2201   -6.4114 C   0  0  0  0  0  0  0  0  0  0  0  0
    5.9454   -5.1540   -4.8847 C   0  0  1  0  0  0  0  0  0  0  0  0
    5.5961   -6.4348   -4.3163 O   0  0  0  0  0  0  0  0  0  0  0  0
    7.2698   -4.7668   -4.2481 C   0  0  2  0  0  0  0  0  0  0  0  0
    7.0514   -5.2651   -2.8293 C   0  0  1  0  0  0  0  0  0  0  0  0
    6.2135   -4.3561   -2.1240 O   0  0  0  0  0  0  0  0  0  0  0  0
    6.3045   -6.5944   -3.0610 C   0  0  2  0  0  0  0  0  0  0  0  0
   10.8356   -2.0426   -3.6301 C   0  0  2  0  0  0  0  0  0  0  0  0
    9.6636   -2.4106   -4.3734 O   0  0  0  0  0  0  0  0  0  0  0  0
    8.6272   -2.9297   -3.5207 C   0  0  2  0  0  0  0  0  0  0  0  0
    7.4883   -3.3433   -4.3039 O   0  0  0  0  0  0  0  0  0  0  0  0
    8.2057   -1.8803   -2.4779 C   0  0  2  0  0  0  0  0  0  0  0  0
    7.3629   -0.8645   -3.0814 N   0  3  0  0  0  0  0  0  0  0  0  0
    9.3975   -1.2336   -1.7622 C   0  0  1  0  0  0  0  0  0  0  0  0
    9.8982   -2.1269   -0.7802 O   0  0  0  0  0  0  0  0  0  0  0  0
   10.5172   -0.8567   -2.7285 C   0  0  2  0  0  0  0  0  0  0  0  0
   10.1249    0.2636   -3.5130 O   0  0  0  0  0  0  0  0  0  0  0  0
   11.9894   -1.7138   -4.5732 C   0  0  0  0  0  0  0  0  0  0  0  0
   12.3772   -2.8901   -5.3286 N   0  3  0  0  0  0  0  0  0  0  0  0
    9.2770   -7.4602   -0.6273 C   0  0  1  0  0  0  0  0  0  0  0  0
    8.8087   -8.7904   -0.9330 O   0  0  0  0  0  0  0  0  0  0  0  0
    7.7216   -9.2242   -0.0836 C   0  0  2  0  0  0  0  0  0  0  0  0
    6.5227   -8.4372   -0.2909 O   0  0  0  0  0  0  0  0  0  0  0  0
    8.1467   -9.2065    1.3897 C   0  0  2  0  0  0  0  0  0  0  0  0
    6.9942   -9.4377    2.2407 N   0  3  0  0  0  0  0  0  0  0  0  0
    8.7960   -7.8818    1.7746 C   0  0  1  0  0  0  0  0  0  0  0  0
    9.3814   -7.9929    3.0627 O   0  0  0  0  0  0  0  0  0  0  0  0
    9.8494   -7.4185    0.7801 C   0  0  2  0  0  0  0  0  0  0  0  0
   10.2771   -6.1008    1.0922 O   0  0  0  0  0  0  0  0  0  0  0  0
   10.3908   -7.0640   -1.5922 C   0  0  0  0  0  0  0  0  0  0  0  0
   11.2995   -8.1742   -1.8122 N   0  3  0  0  0  0  0  0  0  0  0  0
    5.4954  -11.0406   -3.4951 C   0  0  2  0  0  0  0  0  0  0  0  0
    4.4314  -10.7304   -2.4607 C   0  0  0  0  0  0  0  0  0  0  0  0
    5.0602  -10.1414   -1.2116 C   0  0  1  0  0  0  0  0  0  0  0  0
    5.7930   -8.8269   -1.4839 C   0  0  2  0  0  0  0  0  0  0  0  0
    6.7690   -8.9737   -2.6741 C   0  0  1  0  0  0  0  0  0  0  0  0
    6.2602   -9.7802   -3.8763 C   0  0  1  0  0  0  0  0  0  0  0  0
    4.8699  -11.6067   -4.6750 N   0  3  0  0  0  0  0  0  0  0  0  0
    4.0295   -9.9521   -0.2095 N   0  3  0  0  0  0  0  0  0  0  0  0
    7.2666   -7.6866   -3.1154 O   0  0  0  0  0  0  0  0  0  0  0  0
    7.3514  -10.1192   -4.7257 O   0  0  0  0  0  0  0  0  0  0  0  0
  1  2  1  0  0  0  0
  3  2  1  6  0  0  0
  3  4  1  0  0  0  0
  3  5  1  0  0  0  0
  4  8  1  0  0  0  0
  5  6  1  0  0  0  0
  5 12  1  1  0  0  0
  6  7  1  1  0  0  0
  6  8  1  0  0  0  0
  8 41  1  6  0  0  0
  9 10  1  0  0  0  0
  9 17  1  0  0  0  0
  9 19  1  6  0  0  0
 10 11  1  0  0  0  0
 11 12  1  6  0  0  0
 11 13  1  0  0  0  0
 13 14  1  6  0  0  0
 13 15  1  0  0  0  0
 15 16  1  1  0  0  0
 15 17  1  0  0  0  0
 17 18  1  6  0  0  0
 19 20  1  0  0  0  0
 21 22  1  0  0  0  0
 21 29  1  0  0  0  0
 21 31  1  6  0  0  0
 22 23  1  0  0  0  0
 23 24  1  1  0  0  0
 23 25  1  0  0  0  0
 25 26  1  1  0  0  0
 25 27  1  0  0  0  0
 27 28  1  1  0  0  0
 27 29  1  0  0  0  0
 29 30  1  1  0  0  0
 31 32  1  0  0  0  0
 33 34  1  0  0  0  0
 33 38  1  0  0  0  0
 33 39  1  6  0  0  0
 34 35  1  0  0  0  0
 35 36  1  0  0  0  0
 35 40  1  1  0  0  0
 36 24  1  1  0  0  0
 36 37  1  0  0  0  0
 37 38  1  0  0  0  0
 37 41  1  6  0  0  0
 38 42  1  6  0  0  0
M  CHG  6  14   1  20   1  26   1  32   1  39   1  40   1
M  END
>  <CHROM.1>
-176.67082742,-59.18035807,170.64403565,91.81784406,-92.32689090,-64.15639745
114.18839787,82.82394989,179.92796904,51.14774349,-61.77107594,-41.77192108
78.54947637,75.25330626,179.84474550,66.17639426,-177.93320455,47.01494151
-64.23361296,-79.18724967,-36.72659495,-59.14992461,7.93535649,-6.23320211
-2.32891391,0.91492838,-0.90152719,-0.81972092

>  <Name>


>  <RI>
0

>  <Rbt.Current_Directory>
/home/itssahil/PROJECTS/Mol_Feturizer/New_Systems/rnas/1qd3

>  <Rbt.Executable>
rbdock ($Id: //depot/dev/client3/rdock/2013.1/src/exe/rbdock.cxx#4 $)

>  <Rbt.Library>
libRbt.so (2013.1, Build901 2013/11/27)

>  <Rbt.Parameter_File>
/export/apps/rDock/src/rDock_2013.1_src/data/scripts/dock_solv.prm

>  <Rbt.Receptor>
prm/pocket_docking_5.prm

>  <SCORE>
-43.0969

>  <SCORE.INTER>
-27.6232

>  <SCORE.INTER.CONST>
1

>  <SCORE.INTER.POLAR>
-5.72946

>  <SCORE.INTER.ROT>
9

>  <SCORE.INTER.SOLV>
27.0768

>  <SCORE.INTER.VDW>
-17.9429

>  <SCORE.INTER.norm>
-0.657695

>  <SCORE.INTRA>
-15.79

>  <SCORE.INTRA.DIHEDRAL>
-14.217

>  <SCORE.INTRA.DIHEDRAL.0>
40.6252

>  <SCORE.INTRA.POLAR>
1.07801

>  <SCORE.INTRA.POLAR.0>
-1.20161

>  <SCORE.INTRA.REPUL>
-0.115675

>  <SCORE.INTRA.REPUL.0>
0.115675

>  <SCORE.INTRA.SOLV>
-11.6907

>  <SCORE.INTRA.SOLV.lig_0>
-154.895

>  <SCORE.INTRA.VDW>
-5.92298

>  <SCORE.INTRA.VDW.0>
2.2925

>  <SCORE.INTRA.norm>
-0.375952

>  <SCORE.RESTR>
0.316254

>  <SCORE.RESTR.CAVITY>
0.316254

>  <SCORE.RESTR.norm>
0.00752986

>  <SCORE.SYSTEM>
0

>  <SCORE.SYSTEM.CONST>
0

>  <SCORE.SYSTEM.DIHEDRAL>
0

>  <SCORE.SYSTEM.SOLV>
0

>  <SCORE.SYSTEM.norm>
0

>  <SCORE.heavy>
42

>  <SCORE.norm>
-1.02612

>  <RMSD>
8.717

$$$$

 OpenBabel11021811413D
libRbt.so/2013.1/901 2013/11/27
 42 45  0  0  0  0  0  0  0  0999 V2000
   11.3123    0.4295   -2.4367 O   0  0  0  0  0  0  0  0  0  0  0  0
   10.5325    0.6042   -1.2623 C   0  0  0  0  0  0  0  0  0  0  0  0
    9.2056   -0.1420   -1.4063 C   0  0  1  0  0  0  0  0  0  0  0  0
    9.3909   -1.4245   -2.0440 O   0  0  0  0  0  0  0  0  0  0  0  0
    8.5310   -0.4356   -0.0765 C   0  0  2  0  0  0  0  0  0  0  0  0
    7.5880   -1.5547   -0.4853 C   0  0  1  0  0  0  0  0  0  0  0  0
    6.4636   -1.0108   -1.1678 O   0  0  0  0  0  0  0  0  0  0  0  0
    8.4537   -2.3693   -1.4679 C   0  0  2  0  0  0  0  0  0  0  0  0
   10.6112    2.5817    1.8917 C   0  0  2  0  0  0  0  0  0  0  0  0
    9.8120    1.9268    0.8948 O   0  0  0  0  0  0  0  0  0  0  0  0
    8.5809    1.4197    1.4407 C   0  0  2  0  0  0  0  0  0  0  0  0
    7.8300    0.7182    0.4279 O   0  0  0  0  0  0  0  0  0  0  0  0
    7.7390    2.5621    2.0345 C   0  0  2  0  0  0  0  0  0  0  0  0
    7.0945    3.3270    0.9829 N   0  3  0  0  0  0  0  0  0  0  0  0
    8.5461    3.4865    2.9536 C   0  0  1  0  0  0  0  0  0  0  0  0
    8.7279    2.8574    4.2122 O   0  0  0  0  0  0  0  0  0  0  0  0
    9.9057    3.8475    2.3615 C   0  0  2  0  0  0  0  0  0  0  0  0
    9.7376    4.7475    1.2724 O   0  0  0  0  0  0  0  0  0  0  0  0
   11.9979    2.9046    1.3425 C   0  0  0  0  0  0  0  0  0  0  0  0
   12.9147    3.2047    2.4262 N   0  3  0  0  0  0  0  0  0  0  0  0
    9.7369   -5.8761    1.1530 C   0  0  1  0  0  0  0  0  0  0  0  0
    9.8395   -6.7181   -0.0142 O   0  0  0  0  0  0  0  0  0  0  0  0
    8.5590   -7.1837   -0.4990 C   0  0  2  0  0  0  0  0  0  0  0  0
    7.7373   -6.0973   -0.9933 O   0  0  0  0  0  0  0  0  0  0  0  0
    7.8268   -7.9803    0.5878 C   0  0  2  0  0  0  0  0  0  0  0  0
    6.4665   -8.2589    0.1662 N   0  3  0  0  0  0  0  0  0  0  0  0
    7.7964   -7.2300    1.9147 C   0  0  1  0  0  0  0  0  0  0  0  0
    7.3263   -8.0912    2.9401 O   0  0  0  0  0  0  0  0  0  0  0  0
    9.1497   -6.6620    2.3140 C   0  0  2  0  0  0  0  0  0  0  0  0
    9.0162   -5.8223    3.4514 O   0  0  0  0  0  0  0  0  0  0  0  0
   11.1227   -5.3949    1.5734 C   0  0  0  0  0  0  0  0  0  0  0  0
   12.0586   -6.5031    1.6228 N   0  3  0  0  0  0  0  0  0  0  0  0
   10.9127   -5.1345   -3.6560 C   0  0  2  0  0  0  0  0  0  0  0  0
    9.6446   -5.7222   -4.2432 C   0  0  0  0  0  0  0  0  0  0  0  0
    8.8048   -6.3672   -3.1563 C   0  0  1  0  0  0  0  0  0  0  0  0
    8.3618   -5.3707   -2.0840 C   0  0  2  0  0  0  0  0  0  0  0  0
    9.5649   -4.5566   -1.5542 C   0  0  1  0  0  0  0  0  0  0  0  0
   10.5830   -4.0865   -2.6016 C   0  0  1  0  0  0  0  0  0  0  0  0
   11.6989   -4.5302   -4.7146 N   0  3  0  0  0  0  0  0  0  0  0  0
    7.6541   -7.0049   -3.7659 N   0  3  0  0  0  0  0  0  0  0  0  0
    9.1330   -3.4356   -0.7446 O   0  0  0  0  0  0  0  0  0  0  0  0
   11.7788   -3.6632   -1.9551 O   0  0  0  0  0  0  0  0  0  0  0  0
  1  2  1  0  0  0  0
  3  2  1  1  0  0  0
  3  4  1  0  0  0  0
  3  5  1  0  0  0  0
  4  8  1  0  0  0  0
  5  6  1  0  0  0  0
  5 12  1  6  0  0  0
  6  7  1  6  0  0  0
  6  8  1  0  0  0  0
  8 41  1  1  0  0  0
  9 10  1  0  0  0  0
  9 17  1  0  0  0  0
  9 19  1  6  0  0  0
 10 11  1  0  0  0  0
 11 12  1  6  0  0  0
 11 13  1  0  0  0  0
 13 14  1  6  0  0  0
 13 15  1  0  0  0  0
 15 16  1  1  0  0  0
 15 17  1  0  0  0  0
 17 18  1  6  0  0  0
 19 20  1  0  0  0  0
 21 22  1  0  0  0  0
 21 29  1  0  0  0  0
 21 31  1  1  0  0  0
 22 23  1  0  0  0  0
 23 24  1  1  0  0  0
 23 25  1  0  0  0  0
 25 26  1  6  0  0  0
 25 27  1  0  0  0  0
 27 28  1  1  0  0  0
 27 29  1  0  0  0  0
 29 30  1  1  0  0  0
 31 32  1  0  0  0  0
 33 34  1  0  0  0  0
 33 38  1  0  0  0  0
 33 39  1  6  0  0  0
 34 35  1  0  0  0  0
 35 36  1  0  0  0  0
 35 40  1  6  0  0  0
 36 24  1  1  0  0  0
 36 37  1  0  0  0  0
 37 38  1  0  0  0  0
 37 41  1  6  0  0  0
 38 42  1  1  0  0  0
M  CHG  6  14   1  20   1  26   1  32   1  39   1  40   1
M  END
>  <CHROM.1>
-46.98451922,40.37372251,-99.98196567,-85.45227323,-85.20275019,-163.69179869
62.44122018,57.74063974,-58.81339429,-60.70778992,69.98591741,-48.24786083
59.35576535,51.75316622,69.14624548,-174.61648510,67.10418631,-164.25065274
61.68238634,-178.34780108,-68.75956263,-57.18369068,9.28780913,-2.46348446
-0.04612422,-1.33003651,-1.25915368,-2.68785554

>  <Name>


>  <RI>
0

>  <Rbt.Current_Directory>
/home/itssahil/PROJECTS/Mol_Feturizer/New_Systems/rnas/1qd3

>  <Rbt.Executable>
rbdock ($Id: //depot/dev/client3/rdock/2013.1/src/exe/rbdock.cxx#4 $)

>  <Rbt.Library>
libRbt.so (2013.1, Build901 2013/11/27)

>  <Rbt.Parameter_File>
/export/apps/rDock/src/rDock_2013.1_src/data/scripts/dock_solv.prm

>  <Rbt.Receptor>
prm/pocket_docking_8.prm

>  <SCORE>
-52.003

>  <SCORE.INTER>
-31.6573

>  <SCORE.INTER.CONST>
1

>  <SCORE.INTER.POLAR>
-4.82639

>  <SCORE.INTER.ROT>
9

>  <SCORE.INTER.SOLV>
26.1861

>  <SCORE.INTER.VDW>
-23.3456

>  <SCORE.INTER.norm>
-0.753746

>  <SCORE.INTRA>
-20.3456

>  <SCORE.INTRA.DIHEDRAL>
-22.2464

>  <SCORE.INTRA.DIHEDRAL.0>
40.6252

>  <SCORE.INTRA.POLAR>
1.03305

>  <SCORE.INTRA.POLAR.0>
-1.20161

>  <SCORE.INTRA.REPUL>
-0.115675

>  <SCORE.INTRA.REPUL.0>
0.115675

>  <SCORE.INTRA.SOLV>
-13.4474

>  <SCORE.INTRA.SOLV.lig_0>
-154.895

>  <SCORE.INTRA.VDW>
-5.43267

>  <SCORE.INTRA.VDW.0>
2.2925

>  <SCORE.INTRA.norm>
-0.48442

>  <SCORE.RESTR>
0

>  <SCORE.RESTR.CAVITY>
0

>  <SCORE.RESTR.norm>
0

>  <SCORE.SYSTEM>
0

>  <SCORE.SYSTEM.CONST>
0

>  <SCORE.SYSTEM.DIHEDRAL>
0

>  <SCORE.SYSTEM.SOLV>
0

>  <SCORE.SYSTEM.norm>
0

>  <SCORE.heavy>
42

>  <SCORE.norm>
-1.23817

>  <RMSD>
8.719

$$$$

 OpenBabel11021811413D
libRbt.so/2013.1/901 2013/11/27
 42 45  0  0  0  0  0  0  0  0999 V2000
   15.1642   -5.3325   -4.7928 O   0  0  0  0  0  0  0  0  0  0  0  0
   14.0467   -4.9339   -4.0118 C   0  0  0  0  0  0  0  0  0  0  0  0
   12.8860   -4.5465   -4.9288 C   0  0  1  0  0  0  0  0  0  0  0  0
   12.4491   -5.6690   -5.7256 O   0  0  0  0  0  0  0  0  0  0  0  0
   11.6549   -4.0705   -4.1757 C   0  0  2  0  0  0  0  0  0  0  0  0
   10.5891   -4.2530   -5.2433 C   0  0  1  0  0  0  0  0  0  0  0  0
   10.6704   -3.1934   -6.1900 O   0  0  0  0  0  0  0  0  0  0  0  0
   11.0128   -5.5803   -5.9046 C   0  0  2  0  0  0  0  0  0  0  0  0
    9.1190   -2.0991   -1.3351 C   0  0  2  0  0  0  0  0  0  0  0  0
   10.3657   -2.5702   -1.8693 O   0  0  0  0  0  0  0  0  0  0  0  0
   10.5547   -2.1595   -3.2354 C   0  0  2  0  0  0  0  0  0  0  0  0
   11.7869   -2.6972   -3.7590 O   0  0  0  0  0  0  0  0  0  0  0  0
   10.5516   -0.6252   -3.3465 C   0  0  2  0  0  0  0  0  0  0  0  0
   11.8112   -0.0729   -2.8829 N   0  3  0  0  0  0  0  0  0  0  0  0
    9.3757    0.0270   -2.6099 C   0  0  1  0  0  0  0  0  0  0  0  0
    8.1972   -0.1127   -3.3875 O   0  0  0  0  0  0  0  0  0  0  0  0
    9.1508   -0.5799   -1.2277 C   0  0  2  0  0  0  0  0  0  0  0  0
   10.1890   -0.1729   -0.3439 O   0  0  0  0  0  0  0  0  0  0  0  0
    8.8421   -2.7343    0.0245 C   0  0  0  0  0  0  0  0  0  0  0  0
    7.6907   -3.6136   -0.0522 N   0  3  0  0  0  0  0  0  0  0  0  0
    9.4825   -8.2658   -2.2983 C   0  0  1  0  0  0  0  0  0  0  0  0
    8.3851   -8.3071   -3.2343 O   0  0  0  0  0  0  0  0  0  0  0  0
    7.4575   -7.2086   -3.0783 C   0  0  2  0  0  0  0  0  0  0  0  0
    8.0668   -5.9334   -3.3980 O   0  0  0  0  0  0  0  0  0  0  0  0
    6.8643   -7.1989   -1.6642 C   0  0  2  0  0  0  0  0  0  0  0  0
    6.1043   -5.9807   -1.4542 N   0  3  0  0  0  0  0  0  0  0  0  0
    7.9474   -7.3041   -0.5963 C   0  0  1  0  0  0  0  0  0  0  0  0
    7.3490   -7.5288    0.6709 O   0  0  0  0  0  0  0  0  0  0  0  0
    8.9620   -8.4019   -0.8768 C   0  0  2  0  0  0  0  0  0  0  0  0
   10.0396   -8.3252    0.0450 O   0  0  0  0  0  0  0  0  0  0  0  0
   10.4336   -9.4308   -2.5568 C   0  0  0  0  0  0  0  0  0  0  0  0
   11.2027   -9.2077   -3.7674 N   0  3  0  0  0  0  0  0  0  0  0  0
    7.2219   -6.7538   -7.4862 C   0  0  2  0  0  0  0  0  0  0  0  0
    6.6022   -5.5173   -6.8654 C   0  0  0  0  0  0  0  0  0  0  0  0
    6.6666   -5.5936   -5.3511 C   0  0  1  0  0  0  0  0  0  0  0  0
    8.1006   -5.6678   -4.8249 C   0  0  2  0  0  0  0  0  0  0  0  0
    8.8990   -6.7768   -5.5485 C   0  0  1  0  0  0  0  0  0  0  0  0
    8.6771   -6.8983   -7.0619 C   0  0  1  0  0  0  0  0  0  0  0  0
    7.1426   -6.6587   -8.9314 N   0  3  0  0  0  0  0  0  0  0  0  0
    5.9770   -4.4473   -4.7918 N   0  3  0  0  0  0  0  0  0  0  0  0
   10.3159   -6.6855   -5.2608 O   0  0  0  0  0  0  0  0  0  0  0  0
    9.1913   -8.1422   -7.5260 O   0  0  0  0  0  0  0  0  0  0  0  0
  1  2  1  0  0  0  0
  3  2  1  1  0  0  0
  3  4  1  0  0  0  0
  3  5  1  0  0  0  0
  4  8  1  0  0  0  0
  5  6  1  0  0  0  0
  5 12  1  6  0  0  0
  6  7  1  6  0  0  0
  6  8  1  0  0  0  0
  8 41  1  1  0  0  0
  9 10  1  0  0  0  0
  9 17  1  0  0  0  0
  9 19  1  1  0  0  0
 10 11  1  0  0  0  0
 11 12  1  1  0  0  0
 11 13  1  0  0  0  0
 13 14  1  1  0  0  0
 13 15  1  0  0  0  0
 15 16  1  6  0  0  0
 15 17  1  0  0  0  0
 17 18  1  1  0  0  0
 19 20  1  0  0  0  0
 21 22  1  0  0  0  0
 21 29  1  0  0  0  0
 21 31  1  6  0  0  0
 22 23  1  0  0  0  0
 23 24  1  1  0  0  0
 23 25  1  0  0  0  0
 25 26  1  1  0  0  0
 25 27  1  0  0  0  0
 27 28  1  1  0  0  0
 27 29  1  0  0  0  0
 29 30  1  1  0  0  0
 31 32  1  0  0  0  0
 33 34  1  0  0  0  0
 33 38  1  0  0  0  0
 33 39  1  6  0  0  0
 34 35  1  0  0  0  0
 35 36  1  0  0  0  0
 35 40  1  1  0  0  0
 36 24  1  1  0  0  0
 36 37  1  0  0  0  0
 37 38  1  0  0  0  0
 37 41  1  6  0  0  0
 38 42  1  1  0  0  0
M  CHG  6  14   1  20   1  26   1  32   1  39   1  40   1
M  END
>  <CHROM.1>
-56.42671478,62.37191713,170.64843588,74.36654586,-171.69378246,-113.34614402
80.47601960,53.24915327,-62.11360244,-169.22347837,69.26042986,73.14066234
81.42539978,62.55946971,-150.64509003,52.21906362,174.47204964,-90.81990500
-149.55923788,23.99966099,-72.88980369,67.35295613,9.46681377,-5.02286602
-3.58388682,-1.15380353,-0.97720503,-2.40973614

>  <Name>


>  <RI>
0

>  <Rbt.Current_Directory>
/home/itssahil/PROJECTS/Mol_Feturizer/New_Systems/rnas/1qd3

>  <Rbt.Executable>
rbdock ($Id: //depot/dev/client3/rdock/2013.1/src/exe/rbdock.cxx#4 $)

>  <Rbt.Library>
libRbt.so (2013.1, Build901 2013/11/27)

>  <Rbt.Parameter_File>
/export/apps/rDock/src/rDock_2013.1_src/data/scripts/dock_solv.prm

>  <Rbt.Receptor>
prm/pocket_docking_6.prm

>  <SCORE>
-45.4527

>  <SCORE.INTER>
-29.191

>  <SCORE.INTER.CONST>
1

>  <SCORE.INTER.POLAR>
-6.94178

>  <SCORE.INTER.ROT>
9

>  <SCORE.INTER.SOLV>
32.8566

>  <SCORE.INTER.VDW>
-16.8736

>  <SCORE.INTER.norm>
-0.695023

>  <SCORE.INTRA>
-16.2617

>  <SCORE.INTRA.DIHEDRAL>
-16.0422

>  <SCORE.INTRA.DIHEDRAL.0>
40.6252

>  <SCORE.INTRA.POLAR>
-0.0226244

>  <SCORE.INTRA.POLAR.0>
-1.20161

>  <SCORE.INTRA.REPUL>
-0.115675

>  <SCORE.INTRA.REPUL.0>
0.115675

>  <SCORE.INTRA.SOLV>
-1.55993

>  <SCORE.INTRA.SOLV.lig_0>
-154.895

>  <SCORE.INTRA.VDW>
-6.80533

>  <SCORE.INTRA.VDW.0>
2.2925

>  <SCORE.INTRA.norm>
-0.387184

>  <SCORE.RESTR>
0

>  <SCORE.RESTR.CAVITY>
0

>  <SCORE.RESTR.norm>
0

>  <SCORE.SYSTEM>
0

>  <SCORE.SYSTEM.CONST>
0

>  <SCORE.SYSTEM.DIHEDRAL>
0

>  <SCORE.SYSTEM.SOLV>
0

>  <SCORE.SYSTEM.norm>
0

>  <SCORE.heavy>
42

>  <SCORE.norm>
-1.08221

>  <RMSD>
8.720

$$$$

 OpenBabel11021811413D
libRbt.so/2013.1/901 2013/11/27
 42 45  0  0  0  0  0  0  0  0999 V2000
   10.5396    2.0257   -1.1363 O   0  0  0  0  0  0  0  0  0  0  0  0
   10.1568    1.2306   -0.0232 C   0  0  0  0  0  0  0  0  0  0  0  0
    8.9726    0.3415   -0.4050 C   0  0  1  0  0  0  0  0  0  0  0  0
    9.3254   -0.5777   -1.4615 O   0  0  0  0  0  0  0  0  0  0  0  0
    8.4706   -0.5201    0.7417 C   0  0  2  0  0  0  0  0  0  0  0  0
    7.7064   -1.5856   -0.0262 C   0  0  1  0  0  0  0  0  0  0  0  0
    6.4525   -1.0644   -0.4528 O   0  0  0  0  0  0  0  0  0  0  0  0
    8.6173   -1.8250   -1.2475 C   0  0  2  0  0  0  0  0  0  0  0  0
    9.1251    3.4851    2.3351 C   0  0  2  0  0  0  0  0  0  0  0  0
    8.3592    2.4791    1.6548 O   0  0  0  0  0  0  0  0  0  0  0  0
    8.3512    1.2322    2.3731 C   0  0  2  0  0  0  0  0  0  0  0  0
    7.6233    0.2285    1.6353 O   0  0  0  0  0  0  0  0  0  0  0  0
    7.7389    1.4155    3.7723 C   0  0  2  0  0  0  0  0  0  0  0  0
    6.2931    1.5140    3.6928 N   0  3  0  0  0  0  0  0  0  0  0  0
    8.3184    2.6174    4.5277 C   0  0  1  0  0  0  0  0  0  0  0  0
    9.5963    2.2785    5.0424 O   0  0  0  0  0  0  0  0  0  0  0  0
    8.4359    3.8550    3.6423 C   0  0  2  0  0  0  0  0  0  0  0  0
    7.1434    4.3893    3.3805 O   0  0  0  0  0  0  0  0  0  0  0  0
    9.3055    4.7145    1.4492 C   0  0  0  0  0  0  0  0  0  0  0  0
   10.2799    4.4496    0.4074 N   0  3  0  0  0  0  0  0  0  0  0  0
    9.9777   -5.4650    0.8051 C   0  0  1  0  0  0  0  0  0  0  0  0
    9.8377   -6.1652   -0.4488 O   0  0  0  0  0  0  0  0  0  0  0  0
    8.4660   -6.4874   -0.7748 C   0  0  2  0  0  0  0  0  0  0  0  0
    7.6705   -5.2998   -1.0125 O   0  0  0  0  0  0  0  0  0  0  0  0
    7.8414   -7.3614    0.3196 C   0  0  2  0  0  0  0  0  0  0  0  0
    6.4156   -7.5009    0.0886 N   0  3  0  0  0  0  0  0  0  0  0  0
    8.0690   -6.7758    1.7088 C   0  0  1  0  0  0  0  0  0  0  0  0
    7.6883   -7.7228    2.6949 O   0  0  0  0  0  0  0  0  0  0  0  0
    9.5078   -6.3464    1.9508 C   0  0  2  0  0  0  0  0  0  0  0  0
    9.6129   -5.6430    3.1800 O   0  0  0  0  0  0  0  0  0  0  0  0
   11.4448   -5.1262    1.0530 C   0  0  0  0  0  0  0  0  0  0  0  0
   11.8383   -3.9561    0.2897 N   0  3  0  0  0  0  0  0  0  0  0  0
   10.1681   -4.5177   -4.3666 C   0  0  2  0  0  0  0  0  0  0  0  0
    8.7086   -4.8358   -4.6246 C   0  0  0  0  0  0  0  0  0  0  0  0
    8.0782   -5.4708   -3.3989 C   0  0  1  0  0  0  0  0  0  0  0  0
    8.1097   -4.5520   -2.1767 C   0  0  2  0  0  0  0  0  0  0  0  0
    9.5325   -3.9952   -1.9395 C   0  0  1  0  0  0  0  0  0  0  0  0
   10.3117   -3.5633   -3.1887 C   0  0  1  0  0  0  0  0  0  0  0  0
   10.7477   -3.9180   -5.5533 N   0  3  0  0  0  0  0  0  0  0  0  0
    6.7155   -5.8529   -3.7143 N   0  3  0  0  0  0  0  0  0  0  0  0
    9.5285   -2.9250   -0.9630 O   0  0  0  0  0  0  0  0  0  0  0  0
   11.6891   -3.4028   -2.8661 O   0  0  0  0  0  0  0  0  0  0  0  0
  1  2  1  0  0  0  0
  3  2  1  1  0  0  0
  3  4  1  0  0  0  0
  3  5  1  0  0  0  0
  4  8  1  0  0  0  0
  5  6  1  0  0  0  0
  5 12  1  1  0  0  0
  6  7  1  6  0  0  0
  6  8  1  0  0  0  0
  8 41  1  1  0  0  0
  9 10  1  0  0  0  0
  9 17  1  0  0  0  0
  9 19  1  6  0  0  0
 10 11  1  0  0  0  0
 11 12  1  6  0  0  0
 11 13  1  0  0  0  0
 13 14  1  6  0  0  0
 13 15  1  0  0  0  0
 15 16  1  6  0  0  0
 15 17  1  0  0  0  0
 17 18  1  6  0  0  0
 19 20  1  0  0  0  0
 21 22  1  0  0  0  0
 21 29  1  0  0  0  0
 21 31  1  1  0  0  0
 22 23  1  0  0  0  0
 23 24  1  1  0  0  0
 23 25  1  0  0  0  0
 25 26  1  6  0  0  0
 25 27  1  0  0  0  0
 27 28  1  1  0  0  0
 27 29  1  0  0  0  0
 29 30  1  1  0  0  0
 31 32  1  0  0  0  0
 33 34  1  0  0  0  0
 33 38  1  0  0  0  0
 33 39  1  6  0  0  0
 34 35  1  0  0  0  0
 35 36  1  0  0  0  0
 35 40  1  6  0  0  0
 36 24  1  1  0  0  0
 36 37  1  0  0  0  0
 37 38  1  0  0  0  0
 37 41  1  1  0  0  0
 38 42  1  1  0  0  0
M  CHG  6  14   1  20   1  26   1  32   1  39   1  40   1
M  END
>  <CHROM.1>
-52.28008090,62.41592841,-68.46408867,63.60950776,-116.56025617,-74.59692586
90.24423558,93.43353141,-80.74732806,-59.19016513,164.67223455,79.46075964
64.61838942,56.89909416,62.61558294,63.21605630,-65.43428123,-67.09698207
33.36071338,-175.95269953,-54.28636330,65.95392135,8.87456328,-2.02949680
0.16333356,-1.67515822,-1.28884307,-2.82875513

>  <Name>


>  <RI>
0

>  <Rbt.Current_Directory>
/home/itssahil/PROJECTS/Mol_Feturizer/New_Systems/rnas/1qd3

>  <Rbt.Executable>
rbdock ($Id: //depot/dev/client3/rdock/2013.1/src/exe/rbdock.cxx#4 $)

>  <Rbt.Library>
libRbt.so (2013.1, Build901 2013/11/27)

>  <Rbt.Parameter_File>
/export/apps/rDock/src/rDock_2013.1_src/data/scripts/dock_solv.prm

>  <Rbt.Receptor>
prm/pocket_docking_4.prm

>  <SCORE>
-54.936

>  <SCORE.INTER>
-31.594

>  <SCORE.INTER.CONST>
1

>  <SCORE.INTER.POLAR>
-5.00168

>  <SCORE.INTER.ROT>
9

>  <SCORE.INTER.SOLV>
36.5035

>  <SCORE.INTER.VDW>
-26.1582

>  <SCORE.INTER.norm>
-0.752237

>  <SCORE.INTRA>
-23.4839

>  <SCORE.INTRA.DIHEDRAL>
-19.7187

>  <SCORE.INTRA.DIHEDRAL.0>
40.6252

>  <SCORE.INTRA.POLAR>
-1.41243

>  <SCORE.INTRA.POLAR.0>
-1.20161

>  <SCORE.INTRA.REPUL>
-0.115675

>  <SCORE.INTRA.REPUL.0>
0.115675

>  <SCORE.INTRA.SOLV>
-5.75556

>  <SCORE.INTRA.SOLV.lig_0>
-154.895

>  <SCORE.INTRA.VDW>
-5.3661

>  <SCORE.INTRA.VDW.0>
2.2925

>  <SCORE.INTRA.norm>
-0.559139

>  <SCORE.RESTR>
0.141834

>  <SCORE.RESTR.CAVITY>
0.141834

>  <SCORE.RESTR.norm>
0.003377

>  <SCORE.SYSTEM>
0

>  <SCORE.SYSTEM.CONST>
0

>  <SCORE.SYSTEM.DIHEDRAL>
0

>  <SCORE.SYSTEM.SOLV>
0

>  <SCORE.SYSTEM.norm>
0

>  <SCORE.heavy>
42

>  <SCORE.norm>
-1.308

>  <RMSD>
8.721

$$$$

 OpenBabel11021811413D
libRbt.so/2013.1/901 2013/11/27
 42 45  0  0  0  0  0  0  0  0999 V2000
    9.7577    1.2180   -1.4936 O   0  0  0  0  0  0  0  0  0  0  0  0
    8.3982    0.8063   -1.4866 C   0  0  0  0  0  0  0  0  0  0  0  0
    8.3198   -0.7206   -1.4571 C   0  0  1  0  0  0  0  0  0  0  0  0
    9.1686   -1.3095   -2.4662 O   0  0  0  0  0  0  0  0  0  0  0  0
    8.7697   -1.3224   -0.1362 C   0  0  2  0  0  0  0  0  0  0  0  0
    9.0589   -2.7507   -0.5667 C   0  0  1  0  0  0  0  0  0  0  0  0
    7.8370   -3.4664   -0.7104 O   0  0  0  0  0  0  0  0  0  0  0  0
    9.7139   -2.5494   -1.9484 C   0  0  2  0  0  0  0  0  0  0  0  0
    7.7505    2.1496    2.2057 C   0  0  2  0  0  0  0  0  0  0  0  0
    7.4855    1.0657    1.3022 O   0  0  0  0  0  0  0  0  0  0  0  0
    7.9610   -0.1913    1.8165 C   0  0  2  0  0  0  0  0  0  0  0  0
    7.7317   -1.2476    0.8608 O   0  0  0  0  0  0  0  0  0  0  0  0
    7.2782   -0.5238    3.1542 C   0  0  2  0  0  0  0  0  0  0  0  0
    5.9215   -0.9917    2.9375 N   0  3  0  0  0  0  0  0  0  0  0  0
    7.2905    0.6490    4.1417 C   0  0  1  0  0  0  0  0  0  0  0  0
    8.5766    0.7546    4.7314 O   0  0  0  0  0  0  0  0  0  0  0  0
    6.9247    1.9716    3.4734 C   0  0  2  0  0  0  0  0  0  0  0  0
    5.5368    1.9899    3.1605 O   0  0  0  0  0  0  0  0  0  0  0  0
    7.4455    3.4897    1.5423 C   0  0  0  0  0  0  0  0  0  0  0  0
    8.5890    3.9474    0.7757 N   0  3  0  0  0  0  0  0  0  0  0  0
    9.8338   -6.7008   -0.4983 C   0  0  1  0  0  0  0  0  0  0  0  0
   10.0775   -5.2786   -0.4965 O   0  0  0  0  0  0  0  0  0  0  0  0
   11.4829   -4.9383   -0.5205 C   0  0  2  0  0  0  0  0  0  0  0  0
   12.1189   -5.3425   -1.7582 O   0  0  0  0  0  0  0  0  0  0  0  0
   12.2046   -5.5366    0.6930 C   0  0  2  0  0  0  0  0  0  0  0  0
   13.6388   -5.3693    0.5485 N   0  3  0  0  0  0  0  0  0  0  0  0
   11.8878   -7.0179    0.8652 C   0  0  1  0  0  0  0  0  0  0  0  0
   12.3784   -7.4692    2.1181 O   0  0  0  0  0  0  0  0  0  0  0  0
   10.4026   -7.3298    0.7632 C   0  0  2  0  0  0  0  0  0  0  0  0
   10.1934   -8.7342    0.7431 O   0  0  0  0  0  0  0  0  0  0  0  0
    8.3325   -6.9735   -0.5153 C   0  0  0  0  0  0  0  0  0  0  0  0
    7.7137   -6.3710   -1.6819 N   0  3  0  0  0  0  0  0  0  0  0  0
   12.3947   -3.0789   -5.3498 C   0  0  2  0  0  0  0  0  0  0  0  0
   11.8344   -4.4849   -5.4357 C   0  0  0  0  0  0  0  0  0  0  0  0
   12.1766   -5.2709   -4.1835 C   0  0  1  0  0  0  0  0  0  0  0  0
   11.5871   -4.6484   -2.9171 C   0  0  2  0  0  0  0  0  0  0  0  0
   11.9267   -3.1424   -2.8310 C   0  0  1  0  0  0  0  0  0  0  0  0
   11.8307   -2.3469   -4.1396 C   0  0  1  0  0  0  0  0  0  0  0  0
   12.0593   -2.3518   -6.5592 N   0  3  0  0  0  0  0  0  0  0  0  0
   11.7147   -6.6360   -4.3430 N   0  3  0  0  0  0  0  0  0  0  0  0
   11.1606   -2.4833   -1.7928 O   0  0  0  0  0  0  0  0  0  0  0  0
   12.4856   -1.0916   -3.9896 O   0  0  0  0  0  0  0  0  0  0  0  0
  1  2  1  0  0  0  0
  3  2  1  1  0  0  0
  3  4  1  0  0  0  0
  3  5  1  0  0  0  0
  4  8  1  0  0  0  0
  5  6  1  0  0  0  0
  5 12  1  1  0  0  0
  6  7  1  6  0  0  0
  6  8  1  0  0  0  0
  8 41  1  1  0  0  0
  9 10  1  0  0  0  0
  9 17  1  0  0  0  0
  9 19  1  6  0  0  0
 10 11  1  0  0  0  0
 11 12  1  6  0  0  0
 11 13  1  0  0  0  0
 13 14  1  6  0  0  0
 13 15  1  0  0  0  0
 15 16  1  6  0  0  0
 15 17  1  0  0  0  0
 17 18  1  6  0  0  0
 19 20  1  0  0  0  0
 21 22  1  0  0  0  0
 21 29  1  0  0  0  0
 21 31  1  1  0  0  0
 22 23  1  0  0  0  0
 23 24  1  6  0  0  0
 23 25  1  0  0  0  0
 25 26  1  6  0  0  0
 25 27  1  0  0  0  0
 27 28  1  1  0  0  0
 27 29  1  0  0  0  0
 29 30  1  6  0  0  0
 31 32  1  0  0  0  0
 33 34  1  0  0  0  0
 33 38  1  0  0  0  0
 33 39  1  6  0  0  0
 34 35  1  0  0  0  0
 35 36  1  0  0  0  0
 35 40  1  6  0  0  0
 36 24  1  1  0  0  0
 36 37  1  0  0  0  0
 37 38  1  0  0  0  0
 37 41  1  1  0  0  0
 38 42  1  1  0  0  0
M  CHG  6  14   1  20   1  26   1  32   1  39   1  40   1
M  END
>  <CHROM.1>
162.83859873,-49.36466756,-102.94159573,62.69448713,-101.86078556,-85.29341026
83.52227895,0.70407680,-172.98060184,-72.02808599,149.58057116,58.63317842
63.92711265,-172.36406581,65.68276174,72.74625206,-177.54993602,-67.69324295
54.18397607,82.47066533,-59.61439818,-58.06669536,9.72733148,-2.59873107
-0.50934030,-2.73806995,-1.06412370,2.58425043

>  <Name>


>  <RI>
0

>  <Rbt.Current_Directory>
/home/itssahil/PROJECTS/Mol_Feturizer/New_Systems/rnas/1qd3

>  <Rbt.Executable>
rbdock ($Id: //depot/dev/client3/rdock/2013.1/src/exe/rbdock.cxx#4 $)

>  <Rbt.Library>
libRbt.so (2013.1, Build901 2013/11/27)

>  <Rbt.Parameter_File>
/export/apps/rDock/src/rDock_2013.1_src/data/scripts/dock_solv.prm

>  <Rbt.Receptor>
prm/pocket_docking_6.prm

>  <SCORE>
-43.8867

>  <SCORE.INTER>
-22.2819

>  <SCORE.INTER.CONST>
1

>  <SCORE.INTER.POLAR>
-4.68177

>  <SCORE.INTER.ROT>
9

>  <SCORE.INTER.SOLV>
33.4736

>  <SCORE.INTER.VDW>
-20.0066

>  <SCORE.INTER.norm>
-0.530522

>  <SCORE.INTRA>
-21.612

>  <SCORE.INTRA.DIHEDRAL>
-13.9153

>  <SCORE.INTRA.DIHEDRAL.0>
40.6252

>  <SCORE.INTRA.POLAR>
-0.0638955

>  <SCORE.INTRA.POLAR.0>
-1.20161

>  <SCORE.INTRA.REPUL>
-0.108816

>  <SCORE.INTRA.REPUL.0>
0.115675

>  <SCORE.INTRA.SOLV>
-10.8831

>  <SCORE.INTRA.SOLV.lig_0>
-154.895

>  <SCORE.INTRA.VDW>
-8.45143

>  <SCORE.INTRA.VDW.0>
2.2925

>  <SCORE.INTRA.norm>
-0.514571

>  <SCORE.RESTR>
0.00720315

>  <SCORE.RESTR.CAVITY>
0.00720315

>  <SCORE.RESTR.norm>
0.000171504

>  <SCORE.SYSTEM>
0

>  <SCORE.SYSTEM.CONST>
0

>  <SCORE.SYSTEM.DIHEDRAL>
0

>  <SCORE.SYSTEM.SOLV>
0

>  <SCORE.SYSTEM.norm>
0

>  <SCORE.heavy>
42

>  <SCORE.norm>
-1.04492

>  <RMSD>
8.739

$$$$

 OpenBabel11021811413D
libRbt.so/2013.1/901 2013/11/27
 42 45  0  0  0  0  0  0  0  0999 V2000
   11.0624    1.5404   -1.7748 O   0  0  0  0  0  0  0  0  0  0  0  0
   10.5336    0.9283   -0.6071 C   0  0  0  0  0  0  0  0  0  0  0  0
    9.2770    0.1330   -0.9633 C   0  0  1  0  0  0  0  0  0  0  0  0
    9.5682   -0.9076   -1.9215 O   0  0  0  0  0  0  0  0  0  0  0  0
    8.6483   -0.5679    0.2295 C   0  0  2  0  0  0  0  0  0  0  0  0
    7.8040   -1.6148   -0.4778 C   0  0  1  0  0  0  0  0  0  0  0  0
    6.6269   -1.0097   -1.0015 O   0  0  0  0  0  0  0  0  0  0  0  0
    8.7267   -2.0528   -1.6334 C   0  0  2  0  0  0  0  0  0  0  0  0
    9.2938    3.6521    1.5659 C   0  0  2  0  0  0  0  0  0  0  0  0
    8.4697    2.6253    0.9932 O   0  0  0  0  0  0  0  0  0  0  0  0
    8.6504    1.3599    1.6542 C   0  0  2  0  0  0  0  0  0  0  0  0
    7.8533    0.3391    1.0183 O   0  0  0  0  0  0  0  0  0  0  0  0
    8.2875    1.4695    3.1451 C   0  0  2  0  0  0  0  0  0  0  0  0
    6.8474    1.4905    3.3243 N   0  3  0  0  0  0  0  0  0  0  0  0
    8.9320    2.6794    3.8318 C   0  0  1  0  0  0  0  0  0  0  0  0
   10.2960    2.3967    4.1010 O   0  0  0  0  0  0  0  0  0  0  0  0
    8.8299    3.9463    2.9867 C   0  0  2  0  0  0  0  0  0  0  0  0
    7.4868    4.4159    2.9761 O   0  0  0  0  0  0  0  0  0  0  0  0
    9.2537    4.9142    0.7090 C   0  0  0  0  0  0  0  0  0  0  0  0
   10.3013    5.8336    1.1119 N   0  3  0  0  0  0  0  0  0  0  0  0
    9.8338   -5.6688    1.0128 C   0  0  1  0  0  0  0  0  0  0  0  0
    9.7426   -6.3866   -0.2356 O   0  0  0  0  0  0  0  0  0  0  0  0
    8.3844   -6.7108   -0.6119 C   0  0  2  0  0  0  0  0  0  0  0  0
    7.6021   -5.5252   -0.8983 O   0  0  0  0  0  0  0  0  0  0  0  0
    7.7141   -7.5678    0.4688 C   0  0  2  0  0  0  0  0  0  0  0  0
    6.2984   -7.7079    0.1826 N   0  3  0  0  0  0  0  0  0  0  0  0
    7.8870   -6.9628    1.8576 C   0  0  1  0  0  0  0  0  0  0  0  0
    7.4646   -7.8949    2.8409 O   0  0  0  0  0  0  0  0  0  0  0  0
    9.3160   -6.5327    2.1512 C   0  0  2  0  0  0  0  0  0  0  0  0
    9.3733   -5.8120    3.3734 O   0  0  0  0  0  0  0  0  0  0  0  0
   11.2906   -5.3292    1.3148 C   0  0  0  0  0  0  0  0  0  0  0  0
   11.7744   -4.2962    0.4173 N   0  3  0  0  0  0  0  0  0  0  0  0
    9.8464   -5.1318   -4.4910 C   0  0  2  0  0  0  0  0  0  0  0  0
    8.3649   -5.4314   -4.6064 C   0  0  0  0  0  0  0  0  0  0  0  0
    7.8188   -5.9306   -3.2814 C   0  0  1  0  0  0  0  0  0  0  0  0
    7.9647   -4.9025   -2.1586 C   0  0  2  0  0  0  0  0  0  0  0  0
    9.4130   -4.3664   -2.0839 C   0  0  1  0  0  0  0  0  0  0  0  0
   10.1013   -4.0757   -3.4241 C   0  0  1  0  0  0  0  0  0  0  0  0
   10.3442   -4.6627   -5.7701 N   0  3  0  0  0  0  0  0  0  0  0  0
    6.4280   -6.3020   -3.4549 N   0  3  0  0  0  0  0  0  0  0  0  0
    9.5076   -3.2096   -1.2168 O   0  0  0  0  0  0  0  0  0  0  0  0
   11.5027   -3.9245   -3.2234 O   0  0  0  0  0  0  0  0  0  0  0  0
  1  2  1  0  0  0  0
  3  2  1  1  0  0  0
  3  4  1  0  0  0  0
  3  5  1  0  0  0  0
  4  8  1  0  0  0  0
  5  6  1  0  0  0  0
  5 12  1  6  0  0  0
  6  7  1  6  0  0  0
  6  8  1  0  0  0  0
  8 41  1  1  0  0  0
  9 10  1  0  0  0  0
  9 17  1  0  0  0  0
  9 19  1  6  0  0  0
 10 11  1  0  0  0  0
 11 12  1  6  0  0  0
 11 13  1  0  0  0  0
 13 14  1  6  0  0  0
 13 15  1  0  0  0  0
 15 16  1  6  0  0  0
 15 17  1  0  0  0  0
 17 18  1  6  0  0  0
 19 20  1  0  0  0  0
 21 22  1  0  0  0  0
 21 29  1  0  0  0  0
 21 31  1  1  0  0  0
 22 23  1  0  0  0  0
 23 24  1  1  0  0  0
 23 25  1  0  0  0  0
 25 26  1  6  0  0  0
 25 27  1  0  0  0  0
 27 28  1  1  0  0  0
 27 29  1  0  0  0  0
 29 30  1  1  0  0  0
 31 32  1  0  0  0  0
 33 34  1  0  0  0  0
 33 38  1  0  0  0  0
 33 39  1  6  0  0  0
 34 35  1  0  0  0  0
 35 36  1  0  0  0  0
 35 40  1  6  0  0  0
 36 24  1  1  0  0  0
 36 37  1  0  0  0  0
 37 38  1  0  0  0  0
 37 41  1  1  0  0  0
 38 42  1  1  0  0  0
M  CHG  6  14   1  20   1  26   1  32   1  39   1  40   1
M  END
>  <CHROM.1>
61.14635463,60.39828515,-66.02259525,-77.60543427,-117.71019540,-167.25361436
105.92795489,-165.84408644,-170.63933054,-175.77328895,165.18666095,71.34097575
72.97283937,56.63153285,-51.75649285,62.31254907,57.78862593,154.38628923
158.44982847,-43.14230628,-61.77344554,-56.26218701,8.91950161,-2.17746668
-0.05003391,-1.41548067,-1.33942932,-2.66864429

>  <Name>


>  <RI>
0

>  <Rbt.Current_Directory>
/home/itssahil/PROJECTS/Mol_Feturizer/New_Systems/rnas/1qd3

>  <Rbt.Executable>
rbdock ($Id: //depot/dev/client3/rdock/2013.1/src/exe/rbdock.cxx#4 $)

>  <Rbt.Library>
libRbt.so (2013.1, Build901 2013/11/27)

>  <Rbt.Parameter_File>
/export/apps/rDock/src/rDock_2013.1_src/data/scripts/dock_solv.prm

>  <Rbt.Receptor>
prm/pocket_docking_4.prm

>  <SCORE>
-53.4244

>  <SCORE.INTER>
-32.3563

>  <SCORE.INTER.CONST>
1

>  <SCORE.INTER.POLAR>
-4.3717

>  <SCORE.INTER.ROT>
9

>  <SCORE.INTER.SOLV>
32.637

>  <SCORE.INTER.VDW>
-27.4775

>  <SCORE.INTER.norm>
-0.770387

>  <SCORE.INTRA>
-21.3091

>  <SCORE.INTRA.DIHEDRAL>
-18.0929

>  <SCORE.INTRA.DIHEDRAL.0>
40.6252

>  <SCORE.INTRA.POLAR>
0.166466

>  <SCORE.INTRA.POLAR.0>
-1.20161

>  <SCORE.INTRA.REPUL>
-0.115675

>  <SCORE.INTRA.REPUL.0>
0.115675

>  <SCORE.INTRA.SOLV>
-10.1136

>  <SCORE.INTRA.SOLV.lig_0>
-154.895

>  <SCORE.INTRA.VDW>
-7.19349

>  <SCORE.INTRA.VDW.0>
2.2925

>  <SCORE.INTRA.norm>
-0.50736

>  <SCORE.RESTR>
0.240947

>  <SCORE.RESTR.CAVITY>
0.240947

>  <SCORE.RESTR.norm>
0.00573684

>  <SCORE.SYSTEM>
0

>  <SCORE.SYSTEM.CONST>
0

>  <SCORE.SYSTEM.DIHEDRAL>
0

>  <SCORE.SYSTEM.SOLV>
0

>  <SCORE.SYSTEM.norm>
0

>  <SCORE.heavy>
42

>  <SCORE.norm>
-1.27201

>  <RMSD>
8.743

$$$$

 OpenBabel11021811413D
libRbt.so/2013.1/901 2013/11/27
 42 45  0  0  0  0  0  0  0  0999 V2000
   10.9443    1.4381    0.2649 O   0  0  0  0  0  0  0  0  0  0  0  0
    9.5632    1.7681    0.2282 C   0  0  0  0  0  0  0  0  0  0  0  0
    8.7857    0.6629   -0.4875 C   0  0  1  0  0  0  0  0  0  0  0  0
    9.3108    0.4244   -1.8115 O   0  0  0  0  0  0  0  0  0  0  0  0
    8.8448   -0.6767    0.2278 C   0  0  2  0  0  0  0  0  0  0  0  0
    8.4595   -1.6130   -0.9053 C   0  0  1  0  0  0  0  0  0  0  0  0
    7.0531   -1.5579   -1.1175 O   0  0  0  0  0  0  0  0  0  0  0  0
    9.1959   -0.9903   -2.1088 C   0  0  2  0  0  0  0  0  0  0  0  0
    7.8492    2.6242    2.7717 C   0  0  2  0  0  0  0  0  0  0  0  0
    7.5833    1.5535    1.8527 O   0  0  0  0  0  0  0  0  0  0  0  0
    8.1496    0.3084    2.2996 C   0  0  2  0  0  0  0  0  0  0  0  0
    7.9148   -0.7315    1.3274 O   0  0  0  0  0  0  0  0  0  0  0  0
    7.5655   -0.0948    3.6645 C   0  0  2  0  0  0  0  0  0  0  0  0
    6.2227   -0.6243    3.5137 N   0  3  0  0  0  0  0  0  0  0  0  0
    7.5803    1.0496    4.6847 C   0  0  1  0  0  0  0  0  0  0  0  0
    8.8929    1.2036    5.2007 O   0  0  0  0  0  0  0  0  0  0  0  0
    7.1109    2.3699    4.0797 C   0  0  2  0  0  0  0  0  0  0  0  0
    5.7075    2.3269    3.8496 O   0  0  0  0  0  0  0  0  0  0  0  0
    7.4399    3.9649    2.1685 C   0  0  0  0  0  0  0  0  0  0  0  0
    7.1474    3.8163    0.7552 N   0  3  0  0  0  0  0  0  0  0  0  0
   13.5086   -2.6563   -2.2551 C   0  0  1  0  0  0  0  0  0  0  0  0
   12.9733   -3.9943   -2.3274 O   0  0  0  0  0  0  0  0  0  0  0  0
   12.6051   -4.5344   -1.0373 C   0  0  2  0  0  0  0  0  0  0  0  0
   11.5017   -3.8097   -0.4397 O   0  0  0  0  0  0  0  0  0  0  0  0
   13.8177   -4.5672   -0.0991 C   0  0  2  0  0  0  0  0  0  0  0  0
   13.3942   -4.9092    1.2461 N   0  3  0  0  0  0  0  0  0  0  0  0
   14.5460   -3.2281   -0.0699 C   0  0  1  0  0  0  0  0  0  0  0  0
   15.7808   -3.3703    0.6151 O   0  0  0  0  0  0  0  0  0  0  0  0
   14.8008   -2.6531   -1.4548 C   0  0  2  0  0  0  0  0  0  0  0  0
   15.3073   -1.3303   -1.3545 O   0  0  0  0  0  0  0  0  0  0  0  0
   13.8308   -2.1463   -3.6568 C   0  0  0  0  0  0  0  0  0  0  0  0
   12.7499   -2.4519   -4.5761 N   0  3  0  0  0  0  0  0  0  0  0  0
    9.2027   -4.8209   -3.8736 C   0  0  2  0  0  0  0  0  0  0  0  0
    8.8445   -5.4818   -2.5571 C   0  0  0  0  0  0  0  0  0  0  0  0
    9.9792   -5.3314   -1.5608 C   0  0  1  0  0  0  0  0  0  0  0  0
   10.2909   -3.8693   -1.2384 C   0  0  2  0  0  0  0  0  0  0  0  0
   10.4726   -3.0438   -2.5331 C   0  0  1  0  0  0  0  0  0  0  0  0
    9.4881   -3.3388   -3.6725 C   0  0  1  0  0  0  0  0  0  0  0  0
    8.1058   -4.9836   -4.8086 N   0  3  0  0  0  0  0  0  0  0  0  0
    9.6449   -6.0597   -0.3524 N   0  3  0  0  0  0  0  0  0  0  0  0
   10.5000   -1.6218   -2.2573 O   0  0  0  0  0  0  0  0  0  0  0  0
    9.9726   -2.7741   -4.8864 O   0  0  0  0  0  0  0  0  0  0  0  0
  1  2  1  0  0  0  0
  3  2  1  1  0  0  0
  3  4  1  0  0  0  0
  3  5  1  0  0  0  0
  4  8  1  0  0  0  0
  5  6  1  0  0  0  0
  5 12  1  1  0  0  0
  6  7  1  6  0  0  0
  6  8  1  0  0  0  0
  8 41  1  1  0  0  0
  9 10  1  0  0  0  0
  9 17  1  0  0  0  0
  9 19  1  6  0  0  0
 10 11  1  0  0  0  0
 11 12  1  6  0  0  0
 11 13  1  0  0  0  0
 13 14  1  6  0  0  0
 13 15  1  0  0  0  0
 15 16  1  6  0  0  0
 15 17  1  0  0  0  0
 17 18  1  6  0  0  0
 19 20  1  0  0  0  0
 21 22  1  0  0  0  0
 21 29  1  0  0  0  0
 21 31  1  6  0  0  0
 22 23  1  0  0  0  0
 23 24  1  1  0  0  0
 23 25  1  0  0  0  0
 25 26  1  1  0  0  0
 25 27  1  0  0  0  0
 27 28  1  6  0  0  0
 27 29  1  0  0  0  0
 29 30  1  1  0  0  0
 31 32  1  0  0  0  0
 33 34  1  0  0  0  0
 33 38  1  0  0  0  0
 33 39  1  6  0  0  0
 34 35  1  0  0  0  0
 35 36  1  0  0  0  0
 35 40  1  1  0  0  0
 36 24  1  1  0  0  0
 36 37  1  0  0  0  0
 37 38  1  0  0  0  0
 37 41  1  1  0  0  0
 38 42  1  6  0  0  0
M  CHG  6  14   1  20   1  26   1  32   1  39   1  40   1
M  END
>  <CHROM.1>
-173.09766329,-55.91122126,-58.26791857,-170.57729897,178.97020720,-11.20714331
80.04418796,-157.96283767,-147.33301643,-57.61583799,111.07165779,44.71540642
61.44158121,52.06638930,-168.89504212,67.98811860,66.89480313,-44.92644071
49.50320780,73.75738309,-82.06062150,54.75593979,10.05089886,-1.50616349
-0.30108658,-2.16613260,0.26116924,-2.23266658

>  <Name>


>  <RI>
0

>  <Rbt.Current_Directory>
/home/itssahil/PROJECTS/Mol_Feturizer/New_Systems/rnas/1qd3

>  <Rbt.Executable>
rbdock ($Id: //depot/dev/client3/rdock/2013.1/src/exe/rbdock.cxx#4 $)

>  <Rbt.Library>
libRbt.so (2013.1, Build901 2013/11/27)

>  <Rbt.Parameter_File>
/export/apps/rDock/src/rDock_2013.1_src/data/scripts/dock_solv.prm

>  <Rbt.Receptor>
prm/pocket_docking_5.prm

>  <SCORE>
-41.5022

>  <SCORE.INTER>
-28.3136

>  <SCORE.INTER.CONST>
1

>  <SCORE.INTER.POLAR>
-5.02937

>  <SCORE.INTER.ROT>
9

>  <SCORE.INTER.SOLV>
37.9708

>  <SCORE.INTER.VDW>
-24.3681

>  <SCORE.INTER.norm>
-0.674134

>  <SCORE.INTRA>
-13.2037

>  <SCORE.INTRA.DIHEDRAL>
-19.1074

>  <SCORE.INTRA.DIHEDRAL.0>
40.6252

>  <SCORE.INTRA.POLAR>
0.12826

>  <SCORE.INTRA.POLAR.0>
-1.20161

>  <SCORE.INTRA.REPUL>
-0.0989733

>  <SCORE.INTRA.REPUL.0>
0.115675

>  <SCORE.INTRA.SOLV>
-3.75677

>  <SCORE.INTRA.SOLV.lig_0>
-154.895

>  <SCORE.INTRA.VDW>
-1.71284

>  <SCORE.INTRA.VDW.0>
2.2925

>  <SCORE.INTRA.norm>
-0.314374

>  <SCORE.RESTR>
0.0150866

>  <SCORE.RESTR.CAVITY>
0.0150866

>  <SCORE.RESTR.norm>
0.000359205

>  <SCORE.SYSTEM>
0

>  <SCORE.SYSTEM.CONST>
0

>  <SCORE.SYSTEM.DIHEDRAL>
0

>  <SCORE.SYSTEM.SOLV>
0

>  <SCORE.SYSTEM.norm>
0

>  <SCORE.heavy>
42

>  <SCORE.norm>
-0.988148

>  <RMSD>
8.744

$$$$

 OpenBabel11021811413D
libRbt.so/2013.1/901 2013/11/27
 42 45  0  0  0  0  0  0  0  0999 V2000
   11.1193   -0.2907   -2.9725 O   0  0  0  0  0  0  0  0  0  0  0  0
   10.3188    0.6704   -2.2994 C   0  0  0  0  0  0  0  0  0  0  0  0
    8.9156    0.1069   -2.0714 C   0  0  1  0  0  0  0  0  0  0  0  0
    8.7929   -1.2290   -2.6063 O   0  0  0  0  0  0  0  0  0  0  0  0
    8.5396   -0.0000   -0.6028 C   0  0  2  0  0  0  0  0  0  0  0  0
    7.4007   -1.0029   -0.6807 C   0  0  1  0  0  0  0  0  0  0  0  0
    6.2213   -0.3561   -1.1458 O   0  0  0  0  0  0  0  0  0  0  0  0
    7.9101   -1.9940   -1.7470 C   0  0  2  0  0  0  0  0  0  0  0  0
   10.5579    2.2724    2.4589 C   0  0  2  0  0  0  0  0  0  0  0  0
    9.9771    2.0671    1.1620 O   0  0  0  0  0  0  0  0  0  0  0  0
    8.6493    1.5190    1.2483 C   0  0  2  0  0  0  0  0  0  0  0  0
    8.1182    1.2710   -0.0700 O   0  0  0  0  0  0  0  0  0  0  0  0
    7.7210    2.4654    2.0288 C   0  0  2  0  0  0  0  0  0  0  0  0
    7.3282    3.5950    1.2066 N   0  3  0  0  0  0  0  0  0  0  0  0
    8.3308    2.9489    3.3498 C   0  0  1  0  0  0  0  0  0  0  0  0
    8.2301    1.9185    4.3200 O   0  0  0  0  0  0  0  0  0  0  0  0
    9.7914    3.3639    3.1950 C   0  0  2  0  0  0  0  0  0  0  0  0
    9.8744    4.5897    2.4774 O   0  0  0  0  0  0  0  0  0  0  0  0
   12.0351    2.6349    2.3353 C   0  0  0  0  0  0  0  0  0  0  0  0
   12.1927    3.8739    1.5972 N   0  3  0  0  0  0  0  0  0  0  0  0
    9.7922   -6.0599    0.2859 C   0  0  1  0  0  0  0  0  0  0  0  0
    9.3749   -6.8229   -0.8655 O   0  0  0  0  0  0  0  0  0  0  0  0
    7.9441   -7.0216   -0.9331 C   0  0  2  0  0  0  0  0  0  0  0  0
    7.2314   -5.7760   -1.1337 O   0  0  0  0  0  0  0  0  0  0  0  0
    7.4401   -7.7516    0.3178 C   0  0  2  0  0  0  0  0  0  0  0  0
    5.9891   -7.7571    0.3374 N   0  3  0  0  0  0  0  0  0  0  0  0
    7.9560   -7.1025    1.5973 C   0  0  1  0  0  0  0  0  0  0  0  0
    7.6660   -7.9376    2.7075 O   0  0  0  0  0  0  0  0  0  0  0  0
    9.4482   -6.8100    1.5623 C   0  0  2  0  0  0  0  0  0  0  0  0
    9.8272   -6.0418    2.6949 O   0  0  0  0  0  0  0  0  0  0  0  0
   11.3048   -5.8598    0.2597 C   0  0  0  0  0  0  0  0  0  0  0  0
   11.7061   -4.8465    1.2183 N   0  3  0  0  0  0  0  0  0  0  0  0
    9.9951   -4.7859   -4.2128 C   0  0  2  0  0  0  0  0  0  0  0  0
    8.6675   -5.3959   -4.6170 C   0  0  0  0  0  0  0  0  0  0  0  0
    7.9951   -6.0454   -3.4216 C   0  0  1  0  0  0  0  0  0  0  0  0
    7.6887   -5.0480   -2.3035 C   0  0  2  0  0  0  0  0  0  0  0  0
    8.9407   -4.2130   -1.9484 C   0  0  1  0  0  0  0  0  0  0  0  0
    9.7977   -3.7355   -3.1281 C   0  0  1  0  0  0  0  0  0  0  0  0
   10.6190   -4.1777   -5.3725 N   0  3  0  0  0  0  0  0  0  0  0  0
    6.7814   -6.7039   -3.8639 N   0  3  0  0  0  0  0  0  0  0  0  0
    8.6072   -3.0927   -1.0924 O   0  0  0  0  0  0  0  0  0  0  0  0
   11.0645   -3.2905   -2.6545 O   0  0  0  0  0  0  0  0  0  0  0  0
  1  2  1  0  0  0  0
  3  2  1  1  0  0  0
  3  4  1  0  0  0  0
  3  5  1  0  0  0  0
  4  8  1  0  0  0  0
  5  6  1  0  0  0  0
  5 12  1  6  0  0  0
  6  7  1  6  0  0  0
  6  8  1  0  0  0  0
  8 41  1  1  0  0  0
  9 10  1  0  0  0  0
  9 17  1  0  0  0  0
  9 19  1  6  0  0  0
 10 11  1  0  0  0  0
 11 12  1  6  0  0  0
 11 13  1  0  0  0  0
 13 14  1  6  0  0  0
 13 15  1  0  0  0  0
 15 16  1  1  0  0  0
 15 17  1  0  0  0  0
 17 18  1  6  0  0  0
 19 20  1  0  0  0  0
 21 22  1  0  0  0  0
 21 29  1  0  0  0  0
 21 31  1  6  0  0  0
 22 23  1  0  0  0  0
 23 24  1  1  0  0  0
 23 25  1  0  0  0  0
 25 26  1  1  0  0  0
 25 27  1  0  0  0  0
 27 28  1  1  0  0  0
 27 29  1  0  0  0  0
 29 30  1  1  0  0  0
 31 32  1  0  0  0  0
 33 34  1  0  0  0  0
 33 38  1  0  0  0  0
 33 39  1  6  0  0  0
 34 35  1  0  0  0  0
 35 36  1  0  0  0  0
 35 40  1  6  0  0  0
 36 24  1  1  0  0  0
 36 37  1  0  0  0  0
 37 38  1  0  0  0  0
 37 41  1  6  0  0  0
 38 42  1  1  0  0  0
M  CHG  6  14   1  20   1  26   1  32   1  39   1  40   1
M  END
>  <CHROM.1>
-55.99584679,-0.37803907,-138.07391516,-153.96225287,-73.23719412,61.64296496
84.04331572,144.94094143,51.31204187,178.19691112,-82.62280204,166.64022258
55.15160387,38.30824802,-9.98064142,-60.13509039,-175.33999140,-135.26913474
32.67596731,-40.98225810,-73.38749030,49.96886826,9.00288427,-2.30469599
-0.30961965,-0.89255564,-1.40090072,-2.16146688

>  <Name>


>  <RI>
0

>  <Rbt.Current_Directory>
/home/itssahil/PROJECTS/Mol_Feturizer/New_Systems/rnas/1qd3

>  <Rbt.Executable>
rbdock ($Id: //depot/dev/client3/rdock/2013.1/src/exe/rbdock.cxx#4 $)

>  <Rbt.Library>
libRbt.so (2013.1, Build901 2013/11/27)

>  <Rbt.Parameter_File>
/export/apps/rDock/src/rDock_2013.1_src/data/scripts/dock_solv.prm

>  <Rbt.Receptor>
prm/pocket_docking_4.prm

>  <SCORE>
-53.1298

>  <SCORE.INTER>
-40.7054

>  <SCORE.INTER.CONST>
1

>  <SCORE.INTER.POLAR>
-6.77088

>  <SCORE.INTER.ROT>
9

>  <SCORE.INTER.SOLV>
35.4203

>  <SCORE.INTER.VDW>
-25.9741

>  <SCORE.INTER.norm>
-0.969176

>  <SCORE.INTRA>
-12.5595

>  <SCORE.INTRA.DIHEDRAL>
-7.50317

>  <SCORE.INTRA.DIHEDRAL.0>
40.6252

>  <SCORE.INTRA.POLAR>
-0.0972562

>  <SCORE.INTRA.POLAR.0>
-1.20161

>  <SCORE.INTRA.REPUL>
-0.115675

>  <SCORE.INTRA.REPUL.0>
0.115675

>  <SCORE.INTRA.SOLV>
-7.7676

>  <SCORE.INTRA.SOLV.lig_0>
-154.895

>  <SCORE.INTRA.VDW>
-4.01512

>  <SCORE.INTRA.VDW.0>
2.2925

>  <SCORE.INTRA.norm>
-0.299037

>  <SCORE.RESTR>
0.135104

>  <SCORE.RESTR.CAVITY>
0.135104

>  <SCORE.RESTR.norm>
0.00321675

>  <SCORE.SYSTEM>
0

>  <SCORE.SYSTEM.CONST>
0

>  <SCORE.SYSTEM.DIHEDRAL>
0

>  <SCORE.SYSTEM.SOLV>
0

>  <SCORE.SYSTEM.norm>
0

>  <SCORE.heavy>
42

>  <SCORE.norm>
-1.265

>  <RMSD>
8.746

$$$$

 OpenBabel11021811413D
libRbt.so/2013.1/901 2013/11/27
 42 45  0  0  0  0  0  0  0  0999 V2000
    9.0113    2.0217   -1.4687 O   0  0  0  0  0  0  0  0  0  0  0  0
    9.0631    0.7336   -2.0653 C   0  0  0  0  0  0  0  0  0  0  0  0
    8.1677   -0.2328   -1.2889 C   0  0  1  0  0  0  0  0  0  0  0  0
    8.3747   -1.5972   -1.7143 O   0  0  0  0  0  0  0  0  0  0  0  0
    8.4256   -0.2234    0.2087 C   0  0  2  0  0  0  0  0  0  0  0  0
    7.8098   -1.5549    0.6043 C   0  0  1  0  0  0  0  0  0  0  0  0
    6.3918   -1.4368    0.6416 O   0  0  0  0  0  0  0  0  0  0  0  0
    8.2289   -2.4692   -0.5649 C   0  0  2  0  0  0  0  0  0  0  0  0
   10.7182    2.3268    2.4826 C   0  0  2  0  0  0  0  0  0  0  0  0
    9.8798    1.8205    1.4327 O   0  0  0  0  0  0  0  0  0  0  0  0
    8.5757    1.4519    1.9167 C   0  0  2  0  0  0  0  0  0  0  0  0
    7.7799    0.8939    0.8504 O   0  0  0  0  0  0  0  0  0  0  0  0
    7.8630    2.6666    2.5357 C   0  0  2  0  0  0  0  0  0  0  0  0
    7.3584    3.5499    1.5006 N   0  3  0  0  0  0  0  0  0  0  0  0
    8.7459    3.4423    3.5204 C   0  0  1  0  0  0  0  0  0  0  0  0
    8.8014    2.7438    4.7540 O   0  0  0  0  0  0  0  0  0  0  0  0
   10.1608    3.6515    2.9875 C   0  0  2  0  0  0  0  0  0  0  0  0
   10.1468    4.6098    1.9358 O   0  0  0  0  0  0  0  0  0  0  0  0
   12.1535    2.4931    1.9917 C   0  0  0  0  0  0  0  0  0  0  0  0
   12.2777    2.0289    0.6227 N   0  3  0  0  0  0  0  0  0  0  0  0
    6.2110   -4.1629   -3.4282 C   0  0  1  0  0  0  0  0  0  0  0  0
    6.6438   -3.9212   -2.0731 O   0  0  0  0  0  0  0  0  0  0  0  0
    7.3527   -5.0389   -1.4902 C   0  0  2  0  0  0  0  0  0  0  0  0
    8.6130   -5.2915   -2.1592 O   0  0  0  0  0  0  0  0  0  0  0  0
    6.4704   -6.2932   -1.4814 C   0  0  2  0  0  0  0  0  0  0  0  0
    7.2568   -7.4493   -1.0931 N   0  3  0  0  0  0  0  0  0  0  0  0
    5.8408   -6.5508   -2.8458 C   0  0  1  0  0  0  0  0  0  0  0  0
    4.8580   -7.5686   -2.7342 O   0  0  0  0  0  0  0  0  0  0  0  0
    5.2137   -5.3094   -3.4614 C   0  0  2  0  0  0  0  0  0  0  0  0
    4.8159   -5.5693   -4.7997 O   0  0  0  0  0  0  0  0  0  0  0  0
    5.5119   -2.9247   -3.9819 C   0  0  0  0  0  0  0  0  0  0  0  0
    6.1186   -1.7144   -3.4585 N   0  3  0  0  0  0  0  0  0  0  0  0
   12.0510   -2.9437   -3.0356 C   0  0  2  0  0  0  0  0  0  0  0  0
   11.0375   -3.1626   -4.1415 C   0  0  0  0  0  0  0  0  0  0  0  0
   10.1164   -4.3183   -3.7973 C   0  0  1  0  0  0  0  0  0  0  0  0
    9.3134   -4.0719   -2.5193 C   0  0  2  0  0  0  0  0  0  0  0  0
   10.2384   -3.6336   -1.3604 C   0  0  1  0  0  0  0  0  0  0  0  0
   11.3526   -2.6407   -1.7168 C   0  0  1  0  0  0  0  0  0  0  0  0
   12.9213   -1.8392   -3.3912 N   0  3  0  0  0  0  0  0  0  0  0  0
    9.2290   -4.5635   -4.9175 N   0  3  0  0  0  0  0  0  0  0  0  0
    9.4775   -3.1404   -0.2304 O   0  0  0  0  0  0  0  0  0  0  0  0
   12.3114   -2.5944   -0.6653 O   0  0  0  0  0  0  0  0  0  0  0  0
  1  2  1  0  0  0  0
  3  2  1  6  0  0  0
  3  4  1  0  0  0  0
  3  5  1  0  0  0  0
  4  8  1  0  0  0  0
  5  6  1  0  0  0  0
  5 12  1  1  0  0  0
  6  7  1  6  0  0  0
  6  8  1  0  0  0  0
  8 41  1  1  0  0  0
  9 10  1  0  0  0  0
  9 17  1  0  0  0  0
  9 19  1  6  0  0  0
 10 11  1  0  0  0  0
 11 12  1  6  0  0  0
 11 13  1  0  0  0  0
 13 14  1  6  0  0  0
 13 15  1  0  0  0  0
 15 16  1  1  0  0  0
 15 17  1  0  0  0  0
 17 18  1  6  0  0  0
 19 20  1  0  0  0  0
 21 22  1  0  0  0  0
 21 29  1  0  0  0  0
 21 31  1  1  0  0  0
 22 23  1  0  0  0  0
 23 24  1  6  0  0  0
 23 25  1  0  0  0  0
 25 26  1  6  0  0  0
 25 27  1  0  0  0  0
 27 28  1  1  0  0  0
 27 29  1  0  0  0  0
 29 30  1  6  0  0  0
 31 32  1  0  0  0  0
 33 34  1  0  0  0  0
 33 38  1  0  0  0  0
 33 39  1  6  0  0  0
 34 35  1  0  0  0  0
 35 36  1  0  0  0  0
 35 40  1  6  0  0  0
 36 24  1  1  0  0  0
 36 37  1  0  0  0  0
 37 38  1  0  0  0  0
 37 41  1  1  0  0  0
 38 42  1  1  0  0  0
M  CHG  6  14   1  20   1  26   1  32   1  39   1  40   1
M  END
>  <CHROM.1>
172.79967151,-169.76806368,-142.72941081,-177.05238576,-41.72256422,-2.86237044
55.44980958,135.07162962,-63.49670814,179.95958779,23.10929441,34.41036638
39.62982147,-148.65543765,-178.42224102,-63.27434436,-166.06938540,-18.94236994
-72.59468614,-149.87511608,-32.20730340,-173.16359426,8.63238475,-1.59507658
-0.91241489,-1.29654793,-0.24830004,-2.51025617

>  <Name>


>  <RI>
0

>  <Rbt.Current_Directory>
/home/itssahil/PROJECTS/Mol_Feturizer/New_Systems/rnas/1qd3

>  <Rbt.Executable>
rbdock ($Id: //depot/dev/client3/rdock/2013.1/src/exe/rbdock.cxx#4 $)

>  <Rbt.Library>
libRbt.so (2013.1, Build901 2013/11/27)

>  <Rbt.Parameter_File>
/export/apps/rDock/src/rDock_2013.1_src/data/scripts/dock_solv.prm

>  <Rbt.Receptor>
prm/pocket_docking_3.prm

>  <SCORE>
-57.1043

>  <SCORE.INTER>
-44.9079

>  <SCORE.INTER.CONST>
1

>  <SCORE.INTER.POLAR>
-7.28219

>  <SCORE.INTER.ROT>
9

>  <SCORE.INTER.SOLV>
38.6232

>  <SCORE.INTER.VDW>
-28.139

>  <SCORE.INTER.norm>
-1.06923

>  <SCORE.INTRA>
-12.4423

>  <SCORE.INTRA.DIHEDRAL>
-6.45548

>  <SCORE.INTRA.DIHEDRAL.0>
40.6252

>  <SCORE.INTRA.POLAR>
-0.154565

>  <SCORE.INTRA.POLAR.0>
-1.20161

>  <SCORE.INTRA.REPUL>
-0.100986

>  <SCORE.INTRA.REPUL.0>
0.115675

>  <SCORE.INTRA.SOLV>
-2.58719

>  <SCORE.INTRA.SOLV.lig_0>
-154.895

>  <SCORE.INTRA.VDW>
-6.89056

>  <SCORE.INTRA.VDW.0>
2.2925

>  <SCORE.INTRA.norm>
-0.296246

>  <SCORE.RESTR>
0.24595

>  <SCORE.RESTR.CAVITY>
0.24595

>  <SCORE.RESTR.norm>
0.00585594

>  <SCORE.SYSTEM>
0

>  <SCORE.SYSTEM.CONST>
0

>  <SCORE.SYSTEM.DIHEDRAL>
0

>  <SCORE.SYSTEM.SOLV>
0

>  <SCORE.SYSTEM.norm>
0

>  <SCORE.heavy>
42

>  <SCORE.norm>
-1.35963

>  <RMSD>
8.754

$$$$

 OpenBabel11021811413D
libRbt.so/2013.1/901 2013/11/27
 42 45  0  0  0  0  0  0  0  0999 V2000
    8.9866   -0.2130   -2.9791 O   0  0  0  0  0  0  0  0  0  0  0  0
    8.4575    0.4065   -1.8155 C   0  0  0  0  0  0  0  0  0  0  0  0
    7.6874   -0.6219   -0.9862 C   0  0  1  0  0  0  0  0  0  0  0  0
    7.9064   -1.9624   -1.4771 O   0  0  0  0  0  0  0  0  0  0  0  0
    8.0970   -0.6458    0.4770 C   0  0  2  0  0  0  0  0  0  0  0  0
    7.5809   -2.0150    0.8869 C   0  0  1  0  0  0  0  0  0  0  0  0
    6.1706   -1.9618    1.0715 O   0  0  0  0  0  0  0  0  0  0  0  0
    7.9156   -2.8741   -0.3494 C   0  0  2  0  0  0  0  0  0  0  0  0
   10.5759    2.1646    2.0519 C   0  0  2  0  0  0  0  0  0  0  0  0
    9.5900    1.4846    1.2600 O   0  0  0  0  0  0  0  0  0  0  0  0
    8.4186    1.1538    2.0275 C   0  0  2  0  0  0  0  0  0  0  0  0
    7.4745    0.4216    1.2188 O   0  0  0  0  0  0  0  0  0  0  0  0
    7.7637    2.4254    2.5938 C   0  0  2  0  0  0  0  0  0  0  0  0
    7.0302    3.1311    1.5593 N   0  3  0  0  0  0  0  0  0  0  0  0
    8.7662    3.3633    3.2765 C   0  0  1  0  0  0  0  0  0  0  0  0
    9.0845    2.8566    4.5628 O   0  0  0  0  0  0  0  0  0  0  0  0
   10.0463    3.5326    2.4628 C   0  0  2  0  0  0  0  0  0  0  0  0
    9.7873    4.3242    1.3092 O   0  0  0  0  0  0  0  0  0  0  0  0
   11.8862    2.2983    1.2811 C   0  0  0  0  0  0  0  0  0  0  0  0
   11.6392    2.8143   -0.0521 N   0  3  0  0  0  0  0  0  0  0  0  0
    8.1519   -6.3351    0.0652 C   0  0  1  0  0  0  0  0  0  0  0  0
    8.9495   -6.4730   -1.1293 O   0  0  0  0  0  0  0  0  0  0  0  0
    8.2077   -6.2238   -2.3454 C   0  0  2  0  0  0  0  0  0  0  0  0
    7.7710   -4.8455   -2.4428 O   0  0  0  0  0  0  0  0  0  0  0  0
    7.0218   -7.1890   -2.4625 C   0  0  2  0  0  0  0  0  0  0  0  0
    6.1694   -6.7947   -3.5687 N   0  3  0  0  0  0  0  0  0  0  0  0
    6.1953   -7.2267   -1.1819 C   0  0  1  0  0  0  0  0  0  0  0  0
    5.2615   -8.2935   -1.2468 O   0  0  0  0  0  0  0  0  0  0  0  0
    7.0408   -7.3723    0.0740 C   0  0  2  0  0  0  0  0  0  0  0  0
    6.2354   -7.2121    1.2325 O   0  0  0  0  0  0  0  0  0  0  0  0
    9.0160   -6.5716    1.3005 C   0  0  0  0  0  0  0  0  0  0  0  0
   10.1226   -7.4585    0.9916 N   0  3  0  0  0  0  0  0  0  0  0  0
   11.8606   -3.7662   -2.9011 C   0  0  2  0  0  0  0  0  0  0  0  0
   10.9031   -3.4216   -4.0248 C   0  0  0  0  0  0  0  0  0  0  0  0
    9.6157   -4.2132   -3.8877 C   0  0  1  0  0  0  0  0  0  0  0  0
    8.8754   -3.9138   -2.5834 C   0  0  2  0  0  0  0  0  0  0  0  0
    9.8242   -4.0341   -1.3684 C   0  0  1  0  0  0  0  0  0  0  0  0
   11.2354   -3.4589   -1.5471 C   0  0  1  0  0  0  0  0  0  0  0  0
   13.0832   -3.0017   -3.0583 N   0  3  0  0  0  0  0  0  0  0  0  0
    8.7677   -3.9353   -5.0305 N   0  3  0  0  0  0  0  0  0  0  0  0
    9.2189   -3.4982   -0.1662 O   0  0  0  0  0  0  0  0  0  0  0  0
   12.0845   -3.9337   -0.5074 O   0  0  0  0  0  0  0  0  0  0  0  0
  1  2  1  0  0  0  0
  3  2  1  6  0  0  0
  3  4  1  0  0  0  0
  3  5  1  0  0  0  0
  4  8  1  0  0  0  0
  5  6  1  0  0  0  0
  5 12  1  1  0  0  0
  6  7  1  6  0  0  0
  6  8  1  0  0  0  0
  8 41  1  1  0  0  0
  9 10  1  0  0  0  0
  9 17  1  0  0  0  0
  9 19  1  6  0  0  0
 10 11  1  0  0  0  0
 11 12  1  6  0  0  0
 11 13  1  0  0  0  0
 13 14  1  6  0  0  0
 13 15  1  0  0  0  0
 15 16  1  1  0  0  0
 15 17  1  0  0  0  0
 17 18  1  6  0  0  0
 19 20  1  0  0  0  0
 21 22  1  0  0  0  0
 21 29  1  0  0  0  0
 21 31  1  1  0  0  0
 22 23  1  0  0  0  0
 23 24  1  1  0  0  0
 23 25  1  0  0  0  0
 25 26  1  6  0  0  0
 25 27  1  0  0  0  0
 27 28  1  6  0  0  0
 27 29  1  0  0  0  0
 29 30  1  1  0  0  0
 31 32  1  0  0  0  0
 33 34  1  0  0  0  0
 33 38  1  0  0  0  0
 33 39  1  6  0  0  0
 34 35  1  0  0  0  0
 35 36  1  0  0  0  0
 35 40  1  6  0  0  0
 36 24  1  1  0  0  0
 36 37  1  0  0  0  0
 37 38  1  0  0  0  0
 37 41  1  1  0  0  0
 38 42  1  1  0  0  0
M  CHG  6  14   1  20   1  26   1  32   1  39   1  40   1
M  END
>  <CHROM.1>
70.91091530,10.18235278,-131.34562350,56.04525922,-47.21283275,48.73208567
47.07505254,-83.16967402,61.12100008,-165.55534738,-74.22346573,-27.80131113
66.28996322,62.62524317,-48.22842327,-63.22237998,-61.33098804,-176.01037309
178.14943708,-46.84387605,-4.46715175,61.33883386,8.81814495,-2.34900230
-0.42947434,-1.37162720,-0.76409178,-2.64325905

>  <Name>


>  <RI>
0

>  <Rbt.Current_Directory>
/home/itssahil/PROJECTS/Mol_Feturizer/New_Systems/rnas/1qd3

>  <Rbt.Executable>
rbdock ($Id: //depot/dev/client3/rdock/2013.1/src/exe/rbdock.cxx#4 $)

>  <Rbt.Library>
libRbt.so (2013.1, Build901 2013/11/27)

>  <Rbt.Parameter_File>
/export/apps/rDock/src/rDock_2013.1_src/data/scripts/dock_solv.prm

>  <Rbt.Receptor>
prm/pocket_docking_2.prm

>  <SCORE>
-22.5929

>  <SCORE.INTER>
-22.0805

>  <SCORE.INTER.CONST>
1

>  <SCORE.INTER.POLAR>
-3.24716

>  <SCORE.INTER.ROT>
9

>  <SCORE.INTER.SOLV>
34.2403

>  <SCORE.INTER.VDW>
-24.9099

>  <SCORE.INTER.norm>
-0.525727

>  <SCORE.INTRA>
-10.3984

>  <SCORE.INTRA.DIHEDRAL>
-12.0413

>  <SCORE.INTRA.DIHEDRAL.0>
40.6252

>  <SCORE.INTRA.POLAR>
0.224175

>  <SCORE.INTRA.POLAR.0>
-1.20161

>  <SCORE.INTRA.REPUL>
-0.115675

>  <SCORE.INTRA.REPUL.0>
0.115675

>  <SCORE.INTRA.SOLV>
-7.19667

>  <SCORE.INTRA.SOLV.lig_0>
-154.895

>  <SCORE.INTRA.VDW>
-0.963239

>  <SCORE.INTRA.VDW.0>
2.2925

>  <SCORE.INTRA.norm>
-0.247581

>  <SCORE.RESTR>
9.88602

>  <SCORE.RESTR.CAVITY>
9.88602

>  <SCORE.RESTR.norm>
0.235381

>  <SCORE.SYSTEM>
0

>  <SCORE.SYSTEM.CONST>
0

>  <SCORE.SYSTEM.DIHEDRAL>
0

>  <SCORE.SYSTEM.SOLV>
0

>  <SCORE.SYSTEM.norm>
0

>  <SCORE.heavy>
42

>  <SCORE.norm>
-0.537927

>  <RMSD>
8.768

$$$$

 OpenBabel11021811413D
libRbt.so/2013.1/901 2013/11/27
 42 45  0  0  0  0  0  0  0  0999 V2000
    8.0093  -10.7408   -4.5725 O   0  0  0  0  0  0  0  0  0  0  0  0
    8.0979   -9.3414   -4.7994 C   0  0  0  0  0  0  0  0  0  0  0  0
    7.0657   -8.6112   -3.9394 C   0  0  1  0  0  0  0  0  0  0  0  0
    7.5117   -8.4928   -2.5710 O   0  0  0  0  0  0  0  0  0  0  0  0
    6.7859   -7.1925   -4.4069 C   0  0  2  0  0  0  0  0  0  0  0  0
    6.1752   -6.6011   -3.1475 C   0  0  1  0  0  0  0  0  0  0  0  0
    4.8280   -7.0405   -3.0142 O   0  0  0  0  0  0  0  0  0  0  0  0
    7.0432   -7.2283   -2.0376 C   0  0  2  0  0  0  0  0  0  0  0  0
    5.6804   -9.2244   -8.5397 C   0  0  2  0  0  0  0  0  0  0  0  0
    5.2468   -8.3924   -7.4529 O   0  0  0  0  0  0  0  0  0  0  0  0
    6.3489   -7.9568   -6.6365 C   0  0  2  0  0  0  0  0  0  0  0  0
    5.8738   -7.1726   -5.5225 O   0  0  0  0  0  0  0  0  0  0  0  0
    7.3549   -7.1452   -7.4706 C   0  0  2  0  0  0  0  0  0  0  0  0
    6.8558   -5.8050   -7.7181 N   0  3  0  0  0  0  0  0  0  0  0  0
    7.7311   -7.8304   -8.7896 C   0  0  1  0  0  0  0  0  0  0  0  0
    8.6607   -8.8706   -8.5315 O   0  0  0  0  0  0  0  0  0  0  0  0
    6.5139   -8.4006   -9.5128 C   0  0  2  0  0  0  0  0  0  0  0  0
    5.7314   -7.3429  -10.0545 O   0  0  0  0  0  0  0  0  0  0  0  0
    4.4829   -9.8527   -9.2469 C   0  0  0  0  0  0  0  0  0  0  0  0
    4.9109  -10.9597  -10.0813 N   0  3  0  0  0  0  0  0  0  0  0  0
   10.9493   -8.2776   -2.6024 C   0  0  1  0  0  0  0  0  0  0  0  0
   11.5622   -7.9488   -1.3381 O   0  0  0  0  0  0  0  0  0  0  0  0
   12.0955   -6.6053   -1.2922 C   0  0  2  0  0  0  0  0  0  0  0  0
   11.0525   -5.6033   -1.3810 O   0  0  0  0  0  0  0  0  0  0  0  0
   13.1497   -6.4046   -2.3877 C   0  0  2  0  0  0  0  0  0  0  0  0
   13.5208   -5.0040   -2.4674 N   0  3  0  0  0  0  0  0  0  0  0  0
   12.6444   -6.8674   -3.7497 C   0  0  1  0  0  0  0  0  0  0  0  0
   13.7186   -6.8856   -4.6770 O   0  0  0  0  0  0  0  0  0  0  0  0
   11.9875   -8.2387   -3.7119 C   0  0  2  0  0  0  0  0  0  0  0  0
   11.3758   -8.5274   -4.9605 O   0  0  0  0  0  0  0  0  0  0  0  0
   10.3767   -9.6912   -2.5533 C   0  0  0  0  0  0  0  0  0  0  0  0
   11.3627  -10.6279   -2.0462 N   0  3  0  0  0  0  0  0  0  0  0  0
    9.0010   -7.5829    1.7768 C   0  0  2  0  0  0  0  0  0  0  0  0
    9.8567   -6.3815    2.1268 C   0  0  0  0  0  0  0  0  0  0  0  0
   10.8092   -6.0582    0.9906 C   0  0  1  0  0  0  0  0  0  0  0  0
   10.0809   -5.7056   -0.3072 C   0  0  2  0  0  0  0  0  0  0  0  0
    9.0212   -6.7763   -0.6556 C   0  0  1  0  0  0  0  0  0  0  0  0
    8.1905   -7.3183    0.5152 C   0  0  1  0  0  0  0  0  0  0  0  0
    8.1049   -7.8740    2.8797 N   0  3  0  0  0  0  0  0  0  0  0  0
   11.6782   -4.9717    1.3988 N   0  3  0  0  0  0  0  0  0  0  0  0
    8.1456   -6.3308   -1.7204 O   0  0  0  0  0  0  0  0  0  0  0  0
    7.5177   -8.5086    0.1183 O   0  0  0  0  0  0  0  0  0  0  0  0
  1  2  1  0  0  0  0
  3  2  1  6  0  0  0
  3  4  1  0  0  0  0
  3  5  1  0  0  0  0
  4  8  1  0  0  0  0
  5  6  1  0  0  0  0
  5 12  1  6  0  0  0
  6  7  1  1  0  0  0
  6  8  1  0  0  0  0
  8 41  1  6  0  0  0
  9 10  1  0  0  0  0
  9 17  1  0  0  0  0
  9 19  1  6  0  0  0
 10 11  1  0  0  0  0
 11 12  1  1  0  0  0
 11 13  1  0  0  0  0
 13 14  1  6  0  0  0
 13 15  1  0  0  0  0
 15 16  1  1  0  0  0
 15 17  1  0  0  0  0
 17 18  1  1  0  0  0
 19 20  1  0  0  0  0
 21 22  1  0  0  0  0
 21 29  1  0  0  0  0
 21 31  1  1  0  0  0
 22 23  1  0  0  0  0
 23 24  1  6  0  0  0
 23 25  1  0  0  0  0
 25 26  1  6  0  0  0
 25 27  1  0  0  0  0
 27 28  1  6  0  0  0
 27 29  1  0  0  0  0
 29 30  1  6  0  0  0
 31 32  1  0  0  0  0
 33 34  1  0  0  0  0
 33 38  1  0  0  0  0
 33 39  1  1  0  0  0
 34 35  1  0  0  0  0
 35 36  1  0  0  0  0
 35 40  1  1  0  0  0
 36 24  1  6  0  0  0
 36 37  1  0  0  0  0
 37 38  1  0  0  0  0
 37 41  1  6  0  0  0
 38 42  1  6  0  0  0
M  CHG  6  14   1  20   1  26   1  32   1  39   1  40   1
M  END
>  <CHROM.1>
-58.02259905,78.52466442,-56.78750680,-170.98395285,-65.12968571,-164.13888536
155.21598926,39.30941181,-61.10351975,-172.95999008,-59.15606993,-49.66023356
59.46673344,38.69873106,-178.93689254,57.75534011,176.66720511,-62.51112264
-89.09581225,177.73526264,-174.94458447,62.77681846,8.74553465,-7.69191910
-3.69446281,2.07220704,-0.14860002,-1.70333091

>  <Name>


>  <RI>
0

>  <Rbt.Current_Directory>
/home/itssahil/PROJECTS/Mol_Feturizer/New_Systems/rnas/1qd3

>  <Rbt.Executable>
rbdock ($Id: //depot/dev/client3/rdock/2013.1/src/exe/rbdock.cxx#4 $)

>  <Rbt.Library>
libRbt.so (2013.1, Build901 2013/11/27)

>  <Rbt.Parameter_File>
/export/apps/rDock/src/rDock_2013.1_src/data/scripts/dock_solv.prm

>  <Rbt.Receptor>
prm/pocket_docking_6.prm

>  <SCORE>
-32.8931

>  <SCORE.INTER>
-13.6295

>  <SCORE.INTER.CONST>
1

>  <SCORE.INTER.POLAR>
-4.21603

>  <SCORE.INTER.ROT>
9

>  <SCORE.INTER.SOLV>
13.6077

>  <SCORE.INTER.VDW>
-9.16884

>  <SCORE.INTER.norm>
-0.324513

>  <SCORE.INTRA>
-19.2915

>  <SCORE.INTRA.DIHEDRAL>
-27.4214

>  <SCORE.INTRA.DIHEDRAL.0>
40.6252

>  <SCORE.INTRA.POLAR>
1.05929

>  <SCORE.INTRA.POLAR.0>
-1.20161

>  <SCORE.INTRA.REPUL>
-0.115559

>  <SCORE.INTRA.REPUL.0>
0.115675

>  <SCORE.INTRA.SOLV>
-9.87883

>  <SCORE.INTRA.SOLV.lig_0>
-154.895

>  <SCORE.INTRA.VDW>
-3.6652

>  <SCORE.INTRA.VDW.0>
2.2925

>  <SCORE.INTRA.norm>
-0.459322

>  <SCORE.RESTR>
0.0279425

>  <SCORE.RESTR.CAVITY>
0.0279425

>  <SCORE.RESTR.norm>
0.000665298

>  <SCORE.SYSTEM>
0

>  <SCORE.SYSTEM.CONST>
0

>  <SCORE.SYSTEM.DIHEDRAL>
0

>  <SCORE.SYSTEM.SOLV>
0

>  <SCORE.SYSTEM.norm>
0

>  <SCORE.heavy>
42

>  <SCORE.norm>
-0.78317

>  <RMSD>
8.773

$$$$

 OpenBabel11021811413D
libRbt.so/2013.1/901 2013/11/27
 42 45  0  0  0  0  0  0  0  0999 V2000
    7.5230   -5.2865   -5.5058 O   0  0  0  0  0  0  0  0  0  0  0  0
    6.3957   -4.6388   -4.9335 C   0  0  0  0  0  0  0  0  0  0  0  0
    6.5314   -4.6132   -3.4105 C   0  0  1  0  0  0  0  0  0  0  0  0
    6.2084   -5.8968   -2.8329 O   0  0  0  0  0  0  0  0  0  0  0  0
    7.9380   -4.2886   -2.9355 C   0  0  2  0  0  0  0  0  0  0  0  0
    7.8790   -4.8185   -1.5126 C   0  0  1  0  0  0  0  0  0  0  0  0
    7.1691   -3.9017   -0.6870 O   0  0  0  0  0  0  0  0  0  0  0  0
    7.0607   -6.1149   -1.6801 C   0  0  2  0  0  0  0  0  0  0  0  0
   11.7195   -2.6716   -3.9464 C   0  0  2  0  0  0  0  0  0  0  0  0
   10.3083   -2.9095   -4.0625 O   0  0  0  0  0  0  0  0  0  0  0  0
    9.6043   -2.5672   -2.8551 C   0  0  2  0  0  0  0  0  0  0  0  0
    8.2001   -2.8723   -2.9849 O   0  0  0  0  0  0  0  0  0  0  0  0
    9.7985   -1.0792   -2.5166 C   0  0  2  0  0  0  0  0  0  0  0  0
    8.9753   -0.2448   -3.3726 N   0  3  0  0  0  0  0  0  0  0  0  0
   11.2646   -0.6354   -2.5832 C   0  0  1  0  0  0  0  0  0  0  0  0
   11.9425   -1.0729   -1.4162 O   0  0  0  0  0  0  0  0  0  0  0  0
   11.9767   -1.1754   -3.8205 C   0  0  2  0  0  0  0  0  0  0  0  0
   11.5113   -0.4989   -4.9826 O   0  0  0  0  0  0  0  0  0  0  0  0
   12.4632   -3.2516   -5.1461 C   0  0  0  0  0  0  0  0  0  0  0  0
   12.2683   -4.6876   -5.2170 N   0  3  0  0  0  0  0  0  0  0  0  0
    9.2267   -9.4559    0.6931 C   0  0  1  0  0  0  0  0  0  0  0  0
    7.9548  -10.1345    0.7546 O   0  0  0  0  0  0  0  0  0  0  0  0
    6.9193   -9.3537    1.3946 C   0  0  2  0  0  0  0  0  0  0  0  0
    6.5821   -8.1689    0.6315 O   0  0  0  0  0  0  0  0  0  0  0  0
    7.3242   -8.9911    2.8286 C   0  0  2  0  0  0  0  0  0  0  0  0
    6.3811   -8.0382    3.3837 N   0  3  0  0  0  0  0  0  0  0  0  0
    8.7279   -8.3987    2.8867 C   0  0  1  0  0  0  0  0  0  0  0  0
    9.1493   -8.2997    4.2383 O   0  0  0  0  0  0  0  0  0  0  0  0
    9.7509   -9.2005    2.0968 C   0  0  2  0  0  0  0  0  0  0  0  0
   10.9852   -8.5011    2.0351 O   0  0  0  0  0  0  0  0  0  0  0  0
   10.2489  -10.3269   -0.0316 C   0  0  0  0  0  0  0  0  0  0  0  0
    9.6885  -10.8652   -1.2575 N   0  3  0  0  0  0  0  0  0  0  0  0
    6.3688  -10.5466   -2.8900 C   0  0  2  0  0  0  0  0  0  0  0  0
    5.0869  -10.2989   -2.1194 C   0  0  0  0  0  0  0  0  0  0  0  0
    5.3959   -9.7984   -0.7206 C   0  0  1  0  0  0  0  0  0  0  0  0
    6.1599   -8.4736   -0.7236 C   0  0  2  0  0  0  0  0  0  0  0  0
    7.3917   -8.5473   -1.6553 C   0  0  1  0  0  0  0  0  0  0  0  0
    7.1903   -9.2687   -2.9945 C   0  0  1  0  0  0  0  0  0  0  0  0
    6.0463  -11.0289   -4.2194 N   0  3  0  0  0  0  0  0  0  0  0  0
    4.1552   -9.6695    0.0185 N   0  3  0  0  0  0  0  0  0  0  0  0
    7.9676   -7.2370   -1.8797 O   0  0  0  0  0  0  0  0  0  0  0  0
    8.4549   -9.5576   -3.5813 O   0  0  0  0  0  0  0  0  0  0  0  0
  1  2  1  0  0  0  0
  3  2  1  6  0  0  0
  3  4  1  0  0  0  0
  3  5  1  0  0  0  0
  4  8  1  0  0  0  0
  5  6  1  0  0  0  0
  5 12  1  1  0  0  0
  6  7  1  1  0  0  0
  6  8  1  0  0  0  0
  8 41  1  6  0  0  0
  9 10  1  0  0  0  0
  9 17  1  0  0  0  0
  9 19  1  6  0  0  0
 10 11  1  0  0  0  0
 11 12  1  6  0  0  0
 11 13  1  0  0  0  0
 13 14  1  6  0  0  0
 13 15  1  0  0  0  0
 15 16  1  1  0  0  0
 15 17  1  0  0  0  0
 17 18  1  6  0  0  0
 19 20  1  0  0  0  0
 21 22  1  0  0  0  0
 21 29  1  0  0  0  0
 21 31  1  6  0  0  0
 22 23  1  0  0  0  0
 23 24  1  6  0  0  0
 23 25  1  0  0  0  0
 25 26  1  6  0  0  0
 25 27  1  0  0  0  0
 27 28  1  1  0  0  0
 27 29  1  0  0  0  0
 29 30  1  6  0  0  0
 31 32  1  0  0  0  0
 33 34  1  0  0  0  0
 33 38  1  0  0  0  0
 33 39  1  6  0  0  0
 34 35  1  0  0  0  0
 35 36  1  0  0  0  0
 35 40  1  1  0  0  0
 36 24  1  1  0  0  0
 36 37  1  0  0  0  0
 37 38  1  0  0  0  0
 37 41  1  6  0  0  0
 38 42  1  1  0  0  0
M  CHG  6  14   1  20   1  26   1  32   1  39   1  40   1
M  END
>  <CHROM.1>
-106.62702815,-77.50336836,-165.92602490,177.43466310,-80.80407956,-61.16142748
73.23414157,60.82554038,-50.21430690,-170.01402115,-80.56798196,46.93882592
57.14834809,34.40922875,-21.20799496,81.90991596,62.81397791,59.09302658
-172.12749068,-166.11458336,-23.26350395,69.67331481,8.43624341,-6.35778503
-1.62096945,0.95322166,-0.93225692,-1.01425097

>  <Name>


>  <RI>
0

>  <Rbt.Current_Directory>
/home/itssahil/PROJECTS/Mol_Feturizer/New_Systems/rnas/1qd3

>  <Rbt.Executable>
rbdock ($Id: //depot/dev/client3/rdock/2013.1/src/exe/rbdock.cxx#4 $)

>  <Rbt.Library>
libRbt.so (2013.1, Build901 2013/11/27)

>  <Rbt.Parameter_File>
/export/apps/rDock/src/rDock_2013.1_src/data/scripts/dock_solv.prm

>  <Rbt.Receptor>
prm/pocket_docking_7.prm

>  <SCORE>
-56.4606

>  <SCORE.INTER>
-40.3187

>  <SCORE.INTER.CONST>
1

>  <SCORE.INTER.POLAR>
-8.028

>  <SCORE.INTER.ROT>
9

>  <SCORE.INTER.SOLV>
36.8446

>  <SCORE.INTER.VDW>
-22.0007

>  <SCORE.INTER.norm>
-0.959969

>  <SCORE.INTRA>
-16.1419

>  <SCORE.INTRA.DIHEDRAL>
-12.8669

>  <SCORE.INTRA.DIHEDRAL.0>
40.6252

>  <SCORE.INTRA.POLAR>
-0.158791

>  <SCORE.INTRA.POLAR.0>
-1.20161

>  <SCORE.INTRA.REPUL>
-0.115675

>  <SCORE.INTRA.REPUL.0>
0.115675

>  <SCORE.INTRA.SOLV>
-7.66808

>  <SCORE.INTRA.SOLV.lig_0>
-154.895

>  <SCORE.INTRA.VDW>
-4.75612

>  <SCORE.INTRA.VDW.0>
2.2925

>  <SCORE.INTRA.norm>
-0.38433

>  <SCORE.RESTR>
0

>  <SCORE.RESTR.CAVITY>
0

>  <SCORE.RESTR.norm>
0

>  <SCORE.SYSTEM>
0

>  <SCORE.SYSTEM.CONST>
0

>  <SCORE.SYSTEM.DIHEDRAL>
0

>  <SCORE.SYSTEM.SOLV>
0

>  <SCORE.SYSTEM.norm>
0

>  <SCORE.heavy>
42

>  <SCORE.norm>
-1.3443

>  <RMSD>
8.774

$$$$

 OpenBabel11021811413D
libRbt.so/2013.1/901 2013/11/27
 42 45  0  0  0  0  0  0  0  0999 V2000
    8.6968   -0.9340   -2.9818 O   0  0  0  0  0  0  0  0  0  0  0  0
    7.4033   -0.5059   -2.5800 C   0  0  0  0  0  0  0  0  0  0  0  0
    7.1103   -1.0028   -1.1638 C   0  0  1  0  0  0  0  0  0  0  0  0
    7.1832   -2.4431   -1.0871 O   0  0  0  0  0  0  0  0  0  0  0  0
    8.0926   -0.4837   -0.1269 C   0  0  2  0  0  0  0  0  0  0  0  0
    7.8754   -1.4913    0.9895 C   0  0  1  0  0  0  0  0  0  0  0  0
    6.6695   -1.1886    1.6825 O   0  0  0  0  0  0  0  0  0  0  0  0
    7.7146   -2.8127    0.2106 C   0  0  2  0  0  0  0  0  0  0  0  0
   10.9531    2.6638    0.2563 C   0  0  2  0  0  0  0  0  0  0  0  0
    9.7759    2.0138   -0.2469 O   0  0  0  0  0  0  0  0  0  0  0  0
    8.9164    1.5611    0.8147 C   0  0  2  0  0  0  0  0  0  0  0  0
    7.7742    0.8626    0.2771 O   0  0  0  0  0  0  0  0  0  0  0  0
    8.4582    2.7444    1.6843 C   0  0  2  0  0  0  0  0  0  0  0  0
    7.4222    3.5066    1.0119 N   0  3  0  0  0  0  0  0  0  0  0  0
    9.6124    3.6617    2.1051 C   0  0  1  0  0  0  0  0  0  0  0  0
   10.3327    3.0555    3.1665 O   0  0  0  0  0  0  0  0  0  0  0  0
   10.5626    3.9630    0.9493 C   0  0  2  0  0  0  0  0  0  0  0  0
    9.9368    4.8433    0.0231 O   0  0  0  0  0  0  0  0  0  0  0  0
   11.9461    2.9272   -0.8722 C   0  0  0  0  0  0  0  0  0  0  0  0
   12.2042    1.7078   -1.6147 N   0  3  0  0  0  0  0  0  0  0  0  0
    7.6229   -8.1693    2.6900 C   0  0  1  0  0  0  0  0  0  0  0  0
    7.4009   -6.7517    2.5382 O   0  0  0  0  0  0  0  0  0  0  0  0
    8.6048   -6.0136    2.2260 C   0  0  2  0  0  0  0  0  0  0  0  0
    9.1373   -6.3673    0.9256 O   0  0  0  0  0  0  0  0  0  0  0  0
    9.6568   -6.2059    3.3251 C   0  0  2  0  0  0  0  0  0  0  0  0
   10.9239   -5.6386    2.9027 N   0  3  0  0  0  0  0  0  0  0  0  0
    9.8558   -7.6787    3.6654 C   0  0  1  0  0  0  0  0  0  0  0  0
   10.6511   -7.7957    4.8351 O   0  0  0  0  0  0  0  0  0  0  0  0
    8.5488   -8.4300    3.8669 C   0  0  2  0  0  0  0  0  0  0  0  0
    8.7946   -9.8229    3.9930 O   0  0  0  0  0  0  0  0  0  0  0  0
    6.3014   -8.8773    2.9748 C   0  0  0  0  0  0  0  0  0  0  0  0
    6.4815  -10.3175    2.9849 N   0  3  0  0  0  0  0  0  0  0  0  0
    8.3680   -5.3740   -3.1390 C   0  0  2  0  0  0  0  0  0  0  0  0
    7.4950   -6.4274   -2.4861 C   0  0  0  0  0  0  0  0  0  0  0  0
    8.1425   -6.9398   -1.2129 C   0  0  1  0  0  0  0  0  0  0  0  0
    8.3440   -5.8397   -0.1698 C   0  0  2  0  0  0  0  0  0  0  0  0
    9.0516   -4.6124   -0.7895 C   0  0  1  0  0  0  0  0  0  0  0  0
    8.5943   -4.2008   -2.1951 C   0  0  1  0  0  0  0  0  0  0  0  0
    7.7303   -4.9056   -4.3547 N   0  3  0  0  0  0  0  0  0  0  0  0
    7.3323   -8.0134   -0.6713 N   0  3  0  0  0  0  0  0  0  0  0  0
    9.0099   -3.4696    0.1000 O   0  0  0  0  0  0  0  0  0  0  0  0
    9.5394   -3.3014   -2.7652 O   0  0  0  0  0  0  0  0  0  0  0  0
  1  2  1  0  0  0  0
  3  2  1  6  0  0  0
  3  4  1  0  0  0  0
  3  5  1  0  0  0  0
  4  8  1  0  0  0  0
  5  6  1  0  0  0  0
  5 12  1  1  0  0  0
  6  7  1  6  0  0  0
  6  8  1  0  0  0  0
  8 41  1  6  0  0  0
  9 10  1  0  0  0  0
  9 17  1  0  0  0  0
  9 19  1  6  0  0  0
 10 11  1  0  0  0  0
 11 12  1  6  0  0  0
 11 13  1  0  0  0  0
 13 14  1  6  0  0  0
 13 15  1  0  0  0  0
 15 16  1  1  0  0  0
 15 17  1  0  0  0  0
 17 18  1  6  0  0  0
 19 20  1  0  0  0  0
 21 22  1  0  0  0  0
 21 29  1  0  0  0  0
 21 31  1  1  0  0  0
 22 23  1  0  0  0  0
 23 24  1  6  0  0  0
 23 25  1  0  0  0  0
 25 26  1  6  0  0  0
 25 27  1  0  0  0  0
 27 28  1  1  0  0  0
 27 29  1  0  0  0  0
 29 30  1  6  0  0  0
 31 32  1  0  0  0  0
 33 34  1  0  0  0  0
 33 38  1  0  0  0  0
 33 39  1  6  0  0  0
 34 35  1  0  0  0  0
 35 36  1  0  0  0  0
 35 40  1  1  0  0  0
 36 24  1  1  0  0  0
 36 37  1  0  0  0  0
 37 38  1  0  0  0  0
 37 41  1  1  0  0  0
 38 42  1  6  0  0  0
M  CHG  6  14   1  20   1  26   1  32   1  39   1  40   1
M  END
>  <CHROM.1>
174.69189611,-58.76283412,-156.96182328,74.85296590,-53.62332914,-52.23403951
78.09188265,-157.62035339,-59.78327603,-179.00524521,-160.94176151,173.74052996
72.85342963,-134.70395665,-63.07143873,-173.88414428,68.42307547,165.10416355
-70.13009712,-171.09593480,-73.66843944,87.06215889,8.72618241,-2.92060627
0.50978809,1.06089889,-1.31721698,-0.66924117

>  <Name>


>  <RI>
0

>  <Rbt.Current_Directory>
/home/itssahil/PROJECTS/Mol_Feturizer/New_Systems/rnas/1qd3

>  <Rbt.Executable>
rbdock ($Id: //depot/dev/client3/rdock/2013.1/src/exe/rbdock.cxx#4 $)

>  <Rbt.Library>
libRbt.so (2013.1, Build901 2013/11/27)

>  <Rbt.Parameter_File>
/export/apps/rDock/src/rDock_2013.1_src/data/scripts/dock_solv.prm

>  <Rbt.Receptor>
prm/pocket_docking_7.prm

>  <SCORE>
-65.0322

>  <SCORE.INTER>
-44.8888

>  <SCORE.INTER.CONST>
1

>  <SCORE.INTER.POLAR>
-6.58976

>  <SCORE.INTER.ROT>
9

>  <SCORE.INTER.SOLV>
30.1139

>  <SCORE.INTER.VDW>
-27.598

>  <SCORE.INTER.norm>
-1.06878

>  <SCORE.INTRA>
-20.1434

>  <SCORE.INTRA.DIHEDRAL>
-19.0181

>  <SCORE.INTRA.DIHEDRAL.0>
40.6252

>  <SCORE.INTRA.POLAR>
0.16717

>  <SCORE.INTRA.POLAR.0>
-1.20161

>  <SCORE.INTRA.REPUL>
-0.115675

>  <SCORE.INTRA.REPUL.0>
0.115675

>  <SCORE.INTRA.SOLV>
-8.10832

>  <SCORE.INTRA.SOLV.lig_0>
-154.895

>  <SCORE.INTRA.VDW>
-6.57022

>  <SCORE.INTRA.VDW.0>
2.2925

>  <SCORE.INTRA.norm>
-0.479605

>  <SCORE.RESTR>
0

>  <SCORE.RESTR.CAVITY>
0

>  <SCORE.RESTR.norm>
0

>  <SCORE.SYSTEM>
0

>  <SCORE.SYSTEM.CONST>
0

>  <SCORE.SYSTEM.DIHEDRAL>
0

>  <SCORE.SYSTEM.SOLV>
0

>  <SCORE.SYSTEM.norm>
0

>  <SCORE.heavy>
42

>  <SCORE.norm>
-1.54838

>  <RMSD>
8.783

$$$$

 OpenBabel11021811413D
libRbt.so/2013.1/901 2013/11/27
 42 45  0  0  0  0  0  0  0  0999 V2000
    9.7217   -5.0980   -5.9190 O   0  0  0  0  0  0  0  0  0  0  0  0
    9.4521   -4.6152   -4.6106 C   0  0  0  0  0  0  0  0  0  0  0  0
    7.9470   -4.4097   -4.4346 C   0  0  1  0  0  0  0  0  0  0  0  0
    7.2320   -5.6610   -4.5267 O   0  0  0  0  0  0  0  0  0  0  0  0
    7.5725   -3.8181   -3.0858 C   0  0  2  0  0  0  0  0  0  0  0  0
    6.1033   -4.1994   -3.0144 C   0  0  1  0  0  0  0  0  0  0  0  0
    5.3392   -3.3261   -3.8385 O   0  0  0  0  0  0  0  0  0  0  0  0
    6.1045   -5.6197   -3.6156 C   0  0  2  0  0  0  0  0  0  0  0  0
   10.9389   -2.2831   -1.2389 C   0  0  2  0  0  0  0  0  0  0  0  0
    9.9910   -2.6202   -2.2633 O   0  0  0  0  0  0  0  0  0  0  0  0
    8.7174   -1.9862   -2.0468 C   0  0  2  0  0  0  0  0  0  0  0  0
    7.7727   -2.3912   -3.0593 O   0  0  0  0  0  0  0  0  0  0  0  0
    8.8675   -0.4553   -2.0380 C   0  0  2  0  0  0  0  0  0  0  0  0
    9.0240    0.0544   -3.3879 N   0  3  0  0  0  0  0  0  0  0  0  0
   10.0151    0.0297   -1.1444 C   0  0  1  0  0  0  0  0  0  0  0  0
    9.6074   -0.0194    0.2137 O   0  0  0  0  0  0  0  0  0  0  0  0
   11.2820   -0.8016   -1.3279 C   0  0  2  0  0  0  0  0  0  0  0  0
   11.8751   -0.5109   -2.5881 O   0  0  0  0  0  0  0  0  0  0  0  0
   12.1952   -3.1402   -1.3656 C   0  0  0  0  0  0  0  0  0  0  0  0
   12.9792   -3.0732   -0.1466 N   0  3  0  0  0  0  0  0  0  0  0  0
    9.0555   -8.1432    0.9949 C   0  0  1  0  0  0  0  0  0  0  0  0
    8.2707   -7.2782    0.1475 O   0  0  0  0  0  0  0  0  0  0  0  0
    8.5813   -7.4178   -1.2580 C   0  0  2  0  0  0  0  0  0  0  0  0
    8.2244   -8.7272   -1.7660 O   0  0  0  0  0  0  0  0  0  0  0  0
   10.0606   -7.1083   -1.5179 C   0  0  2  0  0  0  0  0  0  0  0  0
   10.4065   -7.4541   -2.8841 N   0  3  0  0  0  0  0  0  0  0  0  0
   10.9734   -7.8686   -0.5622 C   0  0  1  0  0  0  0  0  0  0  0  0
   12.3004   -7.3788   -0.6775 O   0  0  0  0  0  0  0  0  0  0  0  0
   10.5280   -7.7818    0.8895 C   0  0  2  0  0  0  0  0  0  0  0  0
   11.3024   -8.6569    1.6965 O   0  0  0  0  0  0  0  0  0  0  0  0
    8.6381   -7.9658    2.4519 C   0  0  0  0  0  0  0  0  0  0  0  0
    8.6335   -6.5612    2.8179 N   0  3  0  0  0  0  0  0  0  0  0  0
    4.6277   -9.8379   -3.7483 C   0  0  2  0  0  0  0  0  0  0  0  0
    5.0449  -10.6371   -2.5295 C   0  0  0  0  0  0  0  0  0  0  0  0
    6.5047  -10.3834   -2.2017 C   0  0  1  0  0  0  0  0  0  0  0  0
    6.7892   -8.9170   -1.8738 C   0  0  2  0  0  0  0  0  0  0  0  0
    6.2148   -7.9844   -2.9652 C   0  0  1  0  0  0  0  0  0  0  0  0
    4.8269   -8.3473   -3.5094 C   0  0  1  0  0  0  0  0  0  0  0  0
    3.2324  -10.1022   -4.0433 N   0  3  0  0  0  0  0  0  0  0  0  0
    6.8950  -11.2377   -1.0971 N   0  3  0  0  0  0  0  0  0  0  0  0
    6.2356   -6.5981   -2.5446 O   0  0  0  0  0  0  0  0  0  0  0  0
    4.5793   -7.6306   -4.7145 O   0  0  0  0  0  0  0  0  0  0  0  0
  1  2  1  0  0  0  0
  3  2  1  1  0  0  0
  3  4  1  0  0  0  0
  3  5  1  0  0  0  0
  4  8  1  0  0  0  0
  5  6  1  0  0  0  0
  5 12  1  6  0  0  0
  6  7  1  6  0  0  0
  6  8  1  0  0  0  0
  8 41  1  1  0  0  0
  9 10  1  0  0  0  0
  9 17  1  0  0  0  0
  9 19  1  6  0  0  0
 10 11  1  0  0  0  0
 11 12  1  6  0  0  0
 11 13  1  0  0  0  0
 13 14  1  6  0  0  0
 13 15  1  0  0  0  0
 15 16  1  1  0  0  0
 15 17  1  0  0  0  0
 17 18  1  6  0  0  0
 19 20  1  0  0  0  0
 21 22  1  0  0  0  0
 21 29  1  0  0  0  0
 21 31  1  1  0  0  0
 22 23  1  0  0  0  0
 23 24  1  1  0  0  0
 23 25  1  0  0  0  0
 25 26  1  6  0  0  0
 25 27  1  0  0  0  0
 27 28  1  1  0  0  0
 27 29  1  0  0  0  0
 29 30  1  1  0  0  0
 31 32  1  0  0  0  0
 33 34  1  0  0  0  0
 33 38  1  0  0  0  0
 33 39  1  1  0  0  0
 34 35  1  0  0  0  0
 35 36  1  0  0  0  0
 35 40  1  1  0  0  0
 36 24  1  6  0  0  0
 36 37  1  0  0  0  0
 37 38  1  0  0  0  0
 37 41  1  1  0  0  0
 38 42  1  6  0  0  0
M  CHG  6  14   1  20   1  26   1  32   1  39   1  40   1
M  END
>  <CHROM.1>
-56.78720508,64.14090764,-120.04662311,-171.67852066,-64.71885311,-164.23253964
58.69633562,53.81117299,-172.72023602,48.01297261,174.78879632,-50.83021061
71.37478418,-171.15041273,175.88279854,-63.37455363,-176.73365815,66.76560367
-48.17067489,-48.91322776,162.21252137,-59.96137534,8.47270648,-5.65350522
-1.96588633,0.90200824,-0.69617675,-0.39833950

>  <Name>


>  <RI>
0

>  <Rbt.Current_Directory>
/home/itssahil/PROJECTS/Mol_Feturizer/New_Systems/rnas/1qd3

>  <Rbt.Executable>
rbdock ($Id: //depot/dev/client3/rdock/2013.1/src/exe/rbdock.cxx#4 $)

>  <Rbt.Library>
libRbt.so (2013.1, Build901 2013/11/27)

>  <Rbt.Parameter_File>
/export/apps/rDock/src/rDock_2013.1_src/data/scripts/dock_solv.prm

>  <Rbt.Receptor>
prm/pocket_docking_5.prm

>  <SCORE>
-45.6077

>  <SCORE.INTER>
-23.2602

>  <SCORE.INTER.CONST>
1

>  <SCORE.INTER.POLAR>
-5.26753

>  <SCORE.INTER.ROT>
9

>  <SCORE.INTER.SOLV>
31.9309

>  <SCORE.INTER.VDW>
-18.192

>  <SCORE.INTER.norm>
-0.553814

>  <SCORE.INTRA>
-23.0343

>  <SCORE.INTRA.DIHEDRAL>
-25.2772

>  <SCORE.INTRA.DIHEDRAL.0>
40.6252

>  <SCORE.INTRA.POLAR>
1.16044

>  <SCORE.INTRA.POLAR.0>
-1.20161

>  <SCORE.INTRA.REPUL>
-0.0942102

>  <SCORE.INTRA.REPUL.0>
0.115675

>  <SCORE.INTRA.SOLV>
-11.9048

>  <SCORE.INTRA.SOLV.lig_0>
-154.895

>  <SCORE.INTRA.VDW>
-7.91777

>  <SCORE.INTRA.VDW.0>
2.2925

>  <SCORE.INTRA.norm>
-0.548436

>  <SCORE.RESTR>
0.686758

>  <SCORE.RESTR.CAVITY>
0.686758

>  <SCORE.RESTR.norm>
0.0163514

>  <SCORE.SYSTEM>
0

>  <SCORE.SYSTEM.CONST>
0

>  <SCORE.SYSTEM.DIHEDRAL>
0

>  <SCORE.SYSTEM.SOLV>
0

>  <SCORE.SYSTEM.norm>
0

>  <SCORE.heavy>
42

>  <SCORE.norm>
-1.0859

>  <RMSD>
8.797

$$$$

 OpenBabel11021811413D
libRbt.so/2013.1/901 2013/11/27
 42 45  0  0  0  0  0  0  0  0999 V2000
    4.0148  -10.3832   -0.3957 O   0  0  0  0  0  0  0  0  0  0  0  0
    4.7057   -9.8858   -1.5328 C   0  0  0  0  0  0  0  0  0  0  0  0
    5.3032   -8.5142   -1.2165 C   0  0  1  0  0  0  0  0  0  0  0  0
    6.2130   -8.5833   -0.0970 O   0  0  0  0  0  0  0  0  0  0  0  0
    6.1057   -7.9262   -2.3653 C   0  0  2  0  0  0  0  0  0  0  0  0
    6.9408   -6.8973   -1.6217 C   0  0  1  0  0  0  0  0  0  0  0  0
    6.1446   -5.7555   -1.3246 O   0  0  0  0  0  0  0  0  0  0  0  0
    7.2944   -7.6430   -0.3188 C   0  0  2  0  0  0  0  0  0  0  0  0
    5.6389   -7.8602   -6.9510 C   0  0  2  0  0  0  0  0  0  0  0  0
    5.0227   -7.8563   -5.6542 O   0  0  0  0  0  0  0  0  0  0  0  0
    5.8730   -7.2621   -4.6568 C   0  0  2  0  0  0  0  0  0  0  0  0
    5.2493   -7.3268   -3.3574 O   0  0  0  0  0  0  0  0  0  0  0  0
    6.1993   -5.8035   -5.0207 C   0  0  2  0  0  0  0  0  0  0  0  0
    5.0684   -4.9378   -4.7412 N   0  3  0  0  0  0  0  0  0  0  0  0
    6.6576   -5.6362   -6.4742 C   0  0  1  0  0  0  0  0  0  0  0  0
    8.0084   -6.0533   -6.5930 O   0  0  0  0  0  0  0  0  0  0  0  0
    5.7905   -6.4285   -7.4489 C   0  0  2  0  0  0  0  0  0  0  0  0
    4.5127   -5.8147   -7.5715 O   0  0  0  0  0  0  0  0  0  0  0  0
    4.8200   -8.6930   -7.9331 C   0  0  0  0  0  0  0  0  0  0  0  0
    3.4245   -8.2982   -7.8916 N   0  3  0  0  0  0  0  0  0  0  0  0
   11.7807   -8.1639   -0.6280 C   0  0  1  0  0  0  0  0  0  0  0  0
   11.7265   -8.8336    0.6490 O   0  0  0  0  0  0  0  0  0  0  0  0
   11.5798   -7.9265    1.7657 C   0  0  2  0  0  0  0  0  0  0  0  0
   10.3053   -7.2375    1.7424 O   0  0  0  0  0  0  0  0  0  0  0  0
   12.7456   -6.9311    1.8102 C   0  0  2  0  0  0  0  0  0  0  0  0
   12.4809   -5.9020    2.7984 N   0  3  0  0  0  0  0  0  0  0  0  0
   12.9805   -6.2750    0.4541 C   0  0  1  0  0  0  0  0  0  0  0  0
   14.2005   -5.5503    0.4786 O   0  0  0  0  0  0  0  0  0  0  0  0
   13.0073   -7.2690   -0.6968 C   0  0  2  0  0  0  0  0  0  0  0  0
   13.0400   -6.5836   -1.9402 O   0  0  0  0  0  0  0  0  0  0  0  0
   11.8926   -9.1903   -1.7517 C   0  0  0  0  0  0  0  0  0  0  0  0
   11.6991   -8.5601   -3.0448 N   0  3  0  0  0  0  0  0  0  0  0  0
    8.4430  -11.0366    2.1878 C   0  0  2  0  0  0  0  0  0  0  0  0
    8.3589  -10.0623    3.3462 C   0  0  0  0  0  0  0  0  0  0  0  0
    9.3873   -8.9578    3.1875 C   0  0  1  0  0  0  0  0  0  0  0  0
    9.1773   -8.1348    1.9158 C   0  0  2  0  0  0  0  0  0  0  0  0
    9.0391   -9.0526    0.6791 C   0  0  1  0  0  0  0  0  0  0  0  0
    8.1993  -10.3233    0.8648 C   0  0  1  0  0  0  0  0  0  0  0  0
    7.4553  -12.0838    2.3662 N   0  3  0  0  0  0  0  0  0  0  0  0
    9.3471   -8.1046    4.3592 N   0  3  0  0  0  0  0  0  0  0  0  0
    8.5756   -8.3169   -0.4797 O   0  0  0  0  0  0  0  0  0  0  0  0
    8.4371  -11.2201   -0.2151 O   0  0  0  0  0  0  0  0  0  0  0  0
  1  2  1  0  0  0  0
  3  2  1  6  0  0  0
  3  4  1  0  0  0  0
  3  5  1  0  0  0  0
  4  8  1  0  0  0  0
  5  6  1  0  0  0  0
  5 12  1  6  0  0  0
  6  7  1  1  0  0  0
  6  8  1  0  0  0  0
  8 41  1  6  0  0  0
  9 10  1  0  0  0  0
  9 17  1  0  0  0  0
  9 19  1  6  0  0  0
 10 11  1  0  0  0  0
 11 12  1  1  0  0  0
 11 13  1  0  0  0  0
 13 14  1  6  0  0  0
 13 15  1  0  0  0  0
 15 16  1  1  0  0  0
 15 17  1  0  0  0  0
 17 18  1  1  0  0  0
 19 20  1  0  0  0  0
 21 22  1  0  0  0  0
 21 29  1  0  0  0  0
 21 31  1  6  0  0  0
 22 23  1  0  0  0  0
 23 24  1  6  0  0  0
 23 25  1  0  0  0  0
 25 26  1  1  0  0  0
 25 27  1  0  0  0  0
 27 28  1  1  0  0  0
 27 29  1  0  0  0  0
 29 30  1  6  0  0  0
 31 32  1  0  0  0  0
 33 34  1  0  0  0  0
 33 38  1  0  0  0  0
 33 39  1  1  0  0  0
 34 35  1  0  0  0  0
 35 36  1  0  0  0  0
 35 40  1  1  0  0  0
 36 24  1  6  0  0  0
 36 37  1  0  0  0  0
 37 38  1  0  0  0  0
 37 41  1  6  0  0  0
 38 42  1  6  0  0  0
M  CHG  6  14   1  20   1  26   1  32   1  39   1  40   1
M  END
>  <CHROM.1>
-59.49434396,58.81107630,-156.13873448,147.69858100,-63.61842374,50.10518058
127.14836566,-33.54963494,57.65623766,-160.83359462,155.05222441,169.40620264
64.93408862,53.69286473,-49.01849982,-163.93768466,-171.91279560,49.94687017
-64.82948510,62.34210592,-58.33270553,-59.31728746,8.24299751,-7.91790909
-1.52539386,2.27453886,-0.38072303,-1.12968524

>  <Name>


>  <RI>
0

>  <Rbt.Current_Directory>
/home/itssahil/PROJECTS/Mol_Feturizer/New_Systems/rnas/1qd3

>  <Rbt.Executable>
rbdock ($Id: //depot/dev/client3/rdock/2013.1/src/exe/rbdock.cxx#4 $)

>  <Rbt.Library>
libRbt.so (2013.1, Build901 2013/11/27)

>  <Rbt.Parameter_File>
/export/apps/rDock/src/rDock_2013.1_src/data/scripts/dock_solv.prm

>  <Rbt.Receptor>
prm/pocket_docking_8.prm

>  <SCORE>
-51.8477

>  <SCORE.INTER>
-30.4168

>  <SCORE.INTER.CONST>
1

>  <SCORE.INTER.POLAR>
-6.09308

>  <SCORE.INTER.ROT>
9

>  <SCORE.INTER.SOLV>
18.7555

>  <SCORE.INTER.VDW>
-15.8194

>  <SCORE.INTER.norm>
-0.724209

>  <SCORE.INTRA>
-21.4309

>  <SCORE.INTRA.DIHEDRAL>
-18.994

>  <SCORE.INTRA.DIHEDRAL.0>
40.6252

>  <SCORE.INTRA.POLAR>
-0.167898

>  <SCORE.INTRA.POLAR.0>
-1.20161

>  <SCORE.INTRA.REPUL>
-0.115385

>  <SCORE.INTRA.REPUL.0>
0.115675

>  <SCORE.INTRA.SOLV>
-7.69637

>  <SCORE.INTRA.SOLV.lig_0>
-154.895

>  <SCORE.INTRA.VDW>
-6.9379

>  <SCORE.INTRA.VDW.0>
2.2925

>  <SCORE.INTRA.norm>
-0.510259

>  <SCORE.RESTR>
0

>  <SCORE.RESTR.CAVITY>
0

>  <SCORE.RESTR.norm>
0

>  <SCORE.SYSTEM>
0

>  <SCORE.SYSTEM.CONST>
0

>  <SCORE.SYSTEM.DIHEDRAL>
0

>  <SCORE.SYSTEM.SOLV>
0

>  <SCORE.SYSTEM.norm>
0

>  <SCORE.heavy>
42

>  <SCORE.norm>
-1.23447

>  <RMSD>
8.801

$$$$

 OpenBabel11021811413D
libRbt.so/2013.1/901 2013/11/27
 42 45  0  0  0  0  0  0  0  0999 V2000
    9.7650   -9.0412   -5.7658 O   0  0  0  0  0  0  0  0  0  0  0  0
    8.9325   -8.1432   -6.4857 C   0  0  0  0  0  0  0  0  0  0  0  0
    8.0670   -7.3446   -5.5102 C   0  0  1  0  0  0  0  0  0  0  0  0
    7.2869   -8.2176   -4.6647 O   0  0  0  0  0  0  0  0  0  0  0  0
    8.8734   -6.4680   -4.5665 C   0  0  2  0  0  0  0  0  0  0  0  0
    7.8520   -6.2322   -3.4665 C   0  0  1  0  0  0  0  0  0  0  0  0
    6.9053   -5.2574   -3.8902 O   0  0  0  0  0  0  0  0  0  0  0  0
    7.1698   -7.6107   -3.3529 C   0  0  2  0  0  0  0  0  0  0  0  0
   10.7213   -5.6693   -8.5384 C   0  0  2  0  0  0  0  0  0  0  0  0
    9.7421   -5.4008   -7.5232 O   0  0  0  0  0  0  0  0  0  0  0  0
   10.3079   -5.4602   -6.2014 C   0  0  2  0  0  0  0  0  0  0  0  0
    9.2875   -5.2439   -5.2046 O   0  0  0  0  0  0  0  0  0  0  0  0
   11.4345   -4.4243   -6.0461 C   0  0  2  0  0  0  0  0  0  0  0  0
   10.8878   -3.0902   -5.8796 N   0  3  0  0  0  0  0  0  0  0  0  0
   12.4389   -4.4524   -7.2041 C   0  0  1  0  0  0  0  0  0  0  0  0
   13.3181   -5.5535   -7.0382 O   0  0  0  0  0  0  0  0  0  0  0  0
   11.7517   -4.5476   -8.5636 C   0  0  2  0  0  0  0  0  0  0  0  0
   11.1219   -3.3108   -8.8770 O   0  0  0  0  0  0  0  0  0  0  0  0
   10.0537   -5.8246   -9.9018 C   0  0  0  0  0  0  0  0  0  0  0  0
   10.9806   -6.4025  -10.8568 N   0  3  0  0  0  0  0  0  0  0  0  0
    8.9784   -7.9241    0.8454 C   0  0  1  0  0  0  0  0  0  0  0  0
    8.7140   -9.2399    0.3156 O   0  0  0  0  0  0  0  0  0  0  0  0
    7.4403   -9.7811    0.7356 C   0  0  2  0  0  0  0  0  0  0  0  0
    6.3258   -9.0225    0.2045 O   0  0  0  0  0  0  0  0  0  0  0  0
    7.3692   -9.8711    2.2648 C   0  0  2  0  0  0  0  0  0  0  0  0
    6.0211  -10.2130    2.6788 N   0  3  0  0  0  0  0  0  0  0  0  0
    7.7798   -8.5609    2.9277 C   0  0  1  0  0  0  0  0  0  0  0  0
    7.9273   -8.7581    4.3254 O   0  0  0  0  0  0  0  0  0  0  0  0
    9.0663   -7.9794    2.3618 C   0  0  2  0  0  0  0  0  0  0  0  0
    9.2910   -6.6780    2.8837 O   0  0  0  0  0  0  0  0  0  0  0  0
   10.3166   -7.4097    0.3225 C   0  0  0  0  0  0  0  0  0  0  0  0
   10.2185   -7.0572   -1.0821 N   0  3  0  0  0  0  0  0  0  0  0  0
    6.1460  -11.7320   -3.0705 C   0  0  2  0  0  0  0  0  0  0  0  0
    4.8477  -11.3612   -2.3813 C   0  0  0  0  0  0  0  0  0  0  0  0
    5.1249  -10.7346   -1.0272 C   0  0  1  0  0  0  0  0  0  0  0  0
    5.9419   -9.4459   -1.1300 C   0  0  2  0  0  0  0  0  0  0  0  0
    7.2033   -9.6581   -1.9988 C   0  0  1  0  0  0  0  0  0  0  0  0
    7.0222  -10.5023   -3.2672 C   0  0  1  0  0  0  0  0  0  0  0  0
    5.8536  -12.3331   -4.3578 N   0  3  0  0  0  0  0  0  0  0  0  0
    3.8640  -10.4865   -0.3558 N   0  3  0  0  0  0  0  0  0  0  0  0
    7.8400   -8.3990   -2.3278 O   0  0  0  0  0  0  0  0  0  0  0  0
    8.2949  -10.8950   -3.7704 O   0  0  0  0  0  0  0  0  0  0  0  0
  1  2  1  0  0  0  0
  3  2  1  6  0  0  0
  3  4  1  0  0  0  0
  3  5  1  0  0  0  0
  4  8  1  0  0  0  0
  5  6  1  0  0  0  0
  5 12  1  6  0  0  0
  6  7  1  6  0  0  0
  6  8  1  0  0  0  0
  8 41  1  1  0  0  0
  9 10  1  0  0  0  0
  9 17  1  0  0  0  0
  9 19  1  6  0  0  0
 10 11  1  0  0  0  0
 11 12  1  1  0  0  0
 11 13  1  0  0  0  0
 13 14  1  6  0  0  0
 13 15  1  0  0  0  0
 15 16  1  1  0  0  0
 15 17  1  0  0  0  0
 17 18  1  1  0  0  0
 19 20  1  0  0  0  0
 21 22  1  0  0  0  0
 21 29  1  0  0  0  0
 21 31  1  6  0  0  0
 22 23  1  0  0  0  0
 23 24  1  1  0  0  0
 23 25  1  0  0  0  0
 25 26  1  6  0  0  0
 25 27  1  0  0  0  0
 27 28  1  1  0  0  0
 27 29  1  0  0  0  0
 29 30  1  1  0  0  0
 31 32  1  0  0  0  0
 33 34  1  0  0  0  0
 33 38  1  0  0  0  0
 33 39  1  6  0  0  0
 34 35  1  0  0  0  0
 35 36  1  0  0  0  0
 35 40  1  6  0  0  0
 36 24  1  1  0  0  0
 36 37  1  0  0  0  0
 37 38  1  0  0  0  0
 37 41  1  6  0  0  0
 38 42  1  1  0  0  0
M  CHG  6  14   1  20   1  26   1  32   1  39   1  40   1
M  END
>  <CHROM.1>
55.66972707,-56.37930477,-70.95255751,-69.34943877,-70.32185403,-166.44035892
103.01709565,99.53923769,-65.07472031,-72.09042344,56.56862694,72.28279125
85.27881985,78.01915551,-158.99816350,-171.03703235,64.90472851,82.63298882
63.73867516,12.11879217,-75.44510668,45.10132122,8.54313408,-7.73938884,-3.21497051
0.97674692,-0.86116855,-1.59332174

>  <Name>


>  <RI>
0

>  <Rbt.Current_Directory>
/home/itssahil/PROJECTS/Mol_Feturizer/New_Systems/rnas/1qd3

>  <Rbt.Executable>
rbdock ($Id: //depot/dev/client3/rdock/2013.1/src/exe/rbdock.cxx#4 $)

>  <Rbt.Library>
libRbt.so (2013.1, Build901 2013/11/27)

>  <Rbt.Parameter_File>
/export/apps/rDock/src/rDock_2013.1_src/data/scripts/dock_solv.prm

>  <Rbt.Receptor>
prm/pocket_docking_6.prm

>  <SCORE>
-41.5548

>  <SCORE.INTER>
-20.7306

>  <SCORE.INTER.CONST>
1

>  <SCORE.INTER.POLAR>
-4.93103

>  <SCORE.INTER.ROT>
9

>  <SCORE.INTER.SOLV>
17.9575

>  <SCORE.INTER.VDW>
-12.9695

>  <SCORE.INTER.norm>
-0.493586

>  <SCORE.INTRA>
-21.4163

>  <SCORE.INTRA.DIHEDRAL>
-15.9965

>  <SCORE.INTRA.DIHEDRAL.0>
40.6252

>  <SCORE.INTRA.POLAR>
-0.859059

>  <SCORE.INTRA.POLAR.0>
-1.20161

>  <SCORE.INTRA.REPUL>
-0.115675

>  <SCORE.INTRA.REPUL.0>
0.115675

>  <SCORE.INTRA.SOLV>
-7.96198

>  <SCORE.INTRA.SOLV.lig_0>
-154.895

>  <SCORE.INTRA.VDW>
-5.93787

>  <SCORE.INTRA.VDW.0>
2.2925

>  <SCORE.INTRA.norm>
-0.509912

>  <SCORE.RESTR>
0.592111

>  <SCORE.RESTR.CAVITY>
0.592111

>  <SCORE.RESTR.norm>
0.0140979

>  <SCORE.SYSTEM>
0

>  <SCORE.SYSTEM.CONST>
0

>  <SCORE.SYSTEM.DIHEDRAL>
0

>  <SCORE.SYSTEM.SOLV>
0

>  <SCORE.SYSTEM.norm>
0

>  <SCORE.heavy>
42

>  <SCORE.norm>
-0.9894

>  <RMSD>
8.810

$$$$

 OpenBabel11021811413D
libRbt.so/2013.1/901 2013/11/27
 42 45  0  0  0  0  0  0  0  0999 V2000
   12.3164   -9.1297    3.0338 O   0  0  0  0  0  0  0  0  0  0  0  0
   10.9235   -9.0025    2.7862 C   0  0  0  0  0  0  0  0  0  0  0  0
   10.6755   -8.8627    1.2838 C   0  0  1  0  0  0  0  0  0  0  0  0
    9.2703   -8.9770    0.9707 O   0  0  0  0  0  0  0  0  0  0  0  0
   11.1162   -7.5214    0.7216 C   0  0  2  0  0  0  0  0  0  0  0  0
   10.3190   -7.4875   -0.5715 C   0  0  1  0  0  0  0  0  0  0  0  0
   10.9380   -8.3270   -1.5401 O   0  0  0  0  0  0  0  0  0  0  0  0
    8.9685   -8.0937   -0.1391 C   0  0  2  0  0  0  0  0  0  0  0  0
   13.6646   -4.0200    0.7736 C   0  0  2  0  0  0  0  0  0  0  0  0
   13.2657   -5.3383    1.1792 O   0  0  0  0  0  0  0  0  0  0  0  0
   12.9920   -6.1882    0.0507 C   0  0  2  0  0  0  0  0  0  0  0  0
   12.5386   -7.4846    0.4925 O   0  0  0  0  0  0  0  0  0  0  0  0
   14.2409   -6.3326   -0.8357 C   0  0  2  0  0  0  0  0  0  0  0  0
   15.1975   -7.2427   -0.2330 N   0  3  0  0  0  0  0  0  0  0  0  0
   14.9066   -4.9894   -1.1574 C   0  0  1  0  0  0  0  0  0  0  0  0
   14.1653   -4.3270   -2.1696 O   0  0  0  0  0  0  0  0  0  0  0  0
   15.0139   -4.0885    0.0699 C   0  0  2  0  0  0  0  0  0  0  0  0
   16.0044   -4.5934    0.9578 O   0  0  0  0  0  0  0  0  0  0  0  0
   13.7261   -3.0828    1.9764 C   0  0  0  0  0  0  0  0  0  0  0  0
   14.5431   -3.6600    3.0272 N   0  3  0  0  0  0  0  0  0  0  0  0
    9.2353   -5.0729   -3.8531 C   0  0  1  0  0  0  0  0  0  0  0  0
    9.2827   -5.5811   -2.5034 O   0  0  0  0  0  0  0  0  0  0  0  0
    8.2293   -5.0629   -1.6589 C   0  0  2  0  0  0  0  0  0  0  0  0
    6.9189   -5.5045   -2.0919 O   0  0  0  0  0  0  0  0  0  0  0  0
    8.3002   -3.5329   -1.5839 C   0  0  2  0  0  0  0  0  0  0  0  0
    7.1228   -3.0147   -0.9124 N   0  3  0  0  0  0  0  0  0  0  0  0
    8.4051   -2.9034   -2.9686 C   0  0  1  0  0  0  0  0  0  0  0  0
    8.7043   -1.5217   -2.8441 O   0  0  0  0  0  0  0  0  0  0  0  0
    9.4493   -3.5681   -3.8524 C   0  0  2  0  0  0  0  0  0  0  0  0
    9.3669   -3.0646   -5.1777 O   0  0  0  0  0  0  0  0  0  0  0  0
   10.3501   -5.6988   -4.6863 C   0  0  0  0  0  0  0  0  0  0  0  0
   10.1648   -5.4059   -6.0958 N   0  3  0  0  0  0  0  0  0  0  0  0
    4.7369   -8.7597   -0.4360 C   0  0  2  0  0  0  0  0  0  0  0  0
    4.8755   -8.6893   -1.9440 C   0  0  0  0  0  0  0  0  0  0  0  0
    5.3109   -7.3005   -2.3735 C   0  0  1  0  0  0  0  0  0  0  0  0
    6.6706   -6.9040   -1.7965 C   0  0  2  0  0  0  0  0  0  0  0  0
    6.7120   -7.1354   -0.2682 C   0  0  1  0  0  0  0  0  0  0  0  0
    6.0584   -8.4261    0.2429 C   0  0  1  0  0  0  0  0  0  0  0  0
    4.3150  -10.0935   -0.0526 N   0  3  0  0  0  0  0  0  0  0  0  0
    5.3350   -7.2411   -3.8220 N   0  3  0  0  0  0  0  0  0  0  0  0
    8.0603   -7.0235    0.2499 O   0  0  0  0  0  0  0  0  0  0  0  0
    5.8674   -8.3444    1.6514 O   0  0  0  0  0  0  0  0  0  0  0  0
  1  2  1  0  0  0  0
  3  2  1  1  0  0  0
  3  4  1  0  0  0  0
  3  5  1  0  0  0  0
  4  8  1  0  0  0  0
  5  6  1  0  0  0  0
  5 12  1  6  0  0  0
  6  7  1  6  0  0  0
  6  8  1  0  0  0  0
  8 41  1  1  0  0  0
  9 10  1  0  0  0  0
  9 17  1  0  0  0  0
  9 19  1  1  0  0  0
 10 11  1  0  0  0  0
 11 12  1  1  0  0  0
 11 13  1  0  0  0  0
 13 14  1  1  0  0  0
 13 15  1  0  0  0  0
 15 16  1  6  0  0  0
 15 17  1  0  0  0  0
 17 18  1  1  0  0  0
 19 20  1  0  0  0  0
 21 22  1  0  0  0  0
 21 29  1  0  0  0  0
 21 31  1  6  0  0  0
 22 23  1  0  0  0  0
 23 24  1  6  0  0  0
 23 25  1  0  0  0  0
 25 26  1  6  0  0  0
 25 27  1  0  0  0  0
 27 28  1  1  0  0  0
 27 29  1  0  0  0  0
 29 30  1  6  0  0  0
 31 32  1  0  0  0  0
 33 34  1  0  0  0  0
 33 38  1  0  0  0  0
 33 39  1  6  0  0  0
 34 35  1  0  0  0  0
 35 36  1  0  0  0  0
 35 40  1  6  0  0  0
 36 24  1  1  0  0  0
 36 37  1  0  0  0  0
 37 38  1  0  0  0  0
 37 41  1  6  0  0  0
 38 42  1  1  0  0  0
M  CHG  6  14   1  20   1  26   1  32   1  39   1  40   1
M  END
>  <CHROM.1>
-165.83732847,169.45680717,-175.78024275,65.31385818,-108.11903785,52.28140101
86.31322366,-79.37660159,-178.47286623,-171.86043834,41.93690598,168.92351777
73.17070332,-176.12337570,49.79673664,-174.51445065,-176.14778242,148.47737253
-53.96353974,-23.71328726,-69.50519949,178.54653131,9.99052051,-6.14971965
-0.85956435,0.01551255,0.34818955,2.33813307

>  <Name>


>  <RI>
0

>  <Rbt.Current_Directory>
/home/itssahil/PROJECTS/Mol_Feturizer/New_Systems/rnas/1qd3

>  <Rbt.Executable>
rbdock ($Id: //depot/dev/client3/rdock/2013.1/src/exe/rbdock.cxx#4 $)

>  <Rbt.Library>
libRbt.so (2013.1, Build901 2013/11/27)

>  <Rbt.Parameter_File>
/export/apps/rDock/src/rDock_2013.1_src/data/scripts/dock_solv.prm

>  <Rbt.Receptor>
prm/pocket_docking_8.prm

>  <SCORE>
-46.4044

>  <SCORE.INTER>
-23.4695

>  <SCORE.INTER.CONST>
1

>  <SCORE.INTER.POLAR>
-5.21003

>  <SCORE.INTER.ROT>
9

>  <SCORE.INTER.SOLV>
22.7776

>  <SCORE.INTER.VDW>
-15.4721

>  <SCORE.INTER.norm>
-0.558798

>  <SCORE.INTRA>
-22.9349

>  <SCORE.INTRA.DIHEDRAL>
-18.7302

>  <SCORE.INTRA.DIHEDRAL.0>
40.6252

>  <SCORE.INTRA.POLAR>
-0.576818

>  <SCORE.INTRA.POLAR.0>
-1.20161

>  <SCORE.INTRA.REPUL>
-0.115675

>  <SCORE.INTRA.REPUL.0>
0.115675

>  <SCORE.INTRA.SOLV>
-9.27458

>  <SCORE.INTRA.SOLV.lig_0>
-154.895

>  <SCORE.INTRA.VDW>
-6.39296

>  <SCORE.INTRA.VDW.0>
2.2925

>  <SCORE.INTRA.norm>
-0.546069

>  <SCORE.RESTR>
0

>  <SCORE.RESTR.CAVITY>
0

>  <SCORE.RESTR.norm>
0

>  <SCORE.SYSTEM>
0

>  <SCORE.SYSTEM.CONST>
0

>  <SCORE.SYSTEM.DIHEDRAL>
0

>  <SCORE.SYSTEM.SOLV>
0

>  <SCORE.SYSTEM.norm>
0

>  <SCORE.heavy>
42

>  <SCORE.norm>
-1.10487

>  <RMSD>
8.816

$$$$

 OpenBabel11021811413D
libRbt.so/2013.1/901 2013/11/27
 42 45  0  0  0  0  0  0  0  0999 V2000
   11.0785    0.2269   -1.6773 O   0  0  0  0  0  0  0  0  0  0  0  0
   10.2852    0.1671   -0.5005 C   0  0  0  0  0  0  0  0  0  0  0  0
    8.8214   -0.0692   -0.8744 C   0  0  1  0  0  0  0  0  0  0  0  0
    8.6903   -1.1460   -1.8278 O   0  0  0  0  0  0  0  0  0  0  0  0
    7.9513   -0.4575    0.3095 C   0  0  2  0  0  0  0  0  0  0  0  0
    6.7714   -1.0899   -0.4094 C   0  0  1  0  0  0  0  0  0  0  0  0
    5.9362   -0.0722   -0.9503 O   0  0  0  0  0  0  0  0  0  0  0  0
    7.4610   -1.8639   -1.5514 C   0  0  2  0  0  0  0  0  0  0  0  0
   10.2358    3.1923    1.1179 C   0  0  2  0  0  0  0  0  0  0  0  0
    9.0684    2.4814    0.6782 O   0  0  0  0  0  0  0  0  0  0  0  0
    8.7088    1.4245    1.5863 C   0  0  2  0  0  0  0  0  0  0  0  0
    7.5691    0.6946    1.0864 O   0  0  0  0  0  0  0  0  0  0  0  0
    8.4095    1.9894    2.9855 C   0  0  2  0  0  0  0  0  0  0  0  0
    7.1030    2.6206    3.0172 N   0  3  0  0  0  0  0  0  0  0  0  0
    9.4871    2.9597    3.4836 C   0  0  1  0  0  0  0  0  0  0  0  0
   10.6130    2.2227    3.9331 O   0  0  0  0  0  0  0  0  0  0  0  0
    9.9206    3.9468    2.4032 C   0  0  2  0  0  0  0  0  0  0  0  0
    8.8881    4.8981    2.1720 O   0  0  0  0  0  0  0  0  0  0  0  0
   10.7241    4.1478    0.0328 C   0  0  0  0  0  0  0  0  0  0  0  0
   11.1234    3.4091   -1.1504 N   0  3  0  0  0  0  0  0  0  0  0  0
   10.4853   -3.5308   -2.4891 C   0  0  1  0  0  0  0  0  0  0  0  0
   10.1542   -4.7986   -3.0933 O   0  0  0  0  0  0  0  0  0  0  0  0
   10.2438   -5.9119   -2.1746 C   0  0  2  0  0  0  0  0  0  0  0  0
    9.2566   -5.8249   -1.1175 O   0  0  0  0  0  0  0  0  0  0  0  0
   11.6609   -6.0253   -1.5996 C   0  0  2  0  0  0  0  0  0  0  0  0
   11.6843   -7.0047   -0.5291 N   0  3  0  0  0  0  0  0  0  0  0  0
   12.1631   -4.6881   -1.0664 C   0  0  1  0  0  0  0  0  0  0  0  0
   13.5468   -4.7827   -0.7654 O   0  0  0  0  0  0  0  0  0  0  0  0
   11.9342   -3.5337   -2.0298 C   0  0  2  0  0  0  0  0  0  0  0  0
   12.2482   -2.2985   -1.4035 O   0  0  0  0  0  0  0  0  0  0  0  0
   10.3253   -2.4080   -3.5100 C   0  0  0  0  0  0  0  0  0  0  0  0
   11.1816   -2.6331   -4.6602 N   0  3  0  0  0  0  0  0  0  0  0  0
    6.3328   -5.1268   -4.1281 C   0  0  2  0  0  0  0  0  0  0  0  0
    6.3266   -6.4713   -3.4279 C   0  0  0  0  0  0  0  0  0  0  0  0
    7.6402   -6.6991   -2.7029 C   0  0  1  0  0  0  0  0  0  0  0  0
    7.9063   -5.6510   -1.6215 C   0  0  2  0  0  0  0  0  0  0  0  0
    7.7334   -4.2206   -2.1826 C   0  0  1  0  0  0  0  0  0  0  0  0
    6.5448   -3.9989   -3.1273 C   0  0  1  0  0  0  0  0  0  0  0  0
    5.0705   -4.9364   -4.8169 N   0  3  0  0  0  0  0  0  0  0  0  0
    7.6382   -8.0317   -2.1317 N   0  3  0  0  0  0  0  0  0  0  0  0
    7.7158   -3.2325   -1.1232 O   0  0  0  0  0  0  0  0  0  0  0  0
    6.7037   -2.7655   -3.8205 O   0  0  0  0  0  0  0  0  0  0  0  0
  1  2  1  0  0  0  0
  3  2  1  1  0  0  0
  3  4  1  0  0  0  0
  3  5  1  0  0  0  0
  4  8  1  0  0  0  0
  5  6  1  0  0  0  0
  5 12  1  6  0  0  0
  6  7  1  6  0  0  0
  6  8  1  0  0  0  0
  8 41  1  1  0  0  0
  9 10  1  0  0  0  0
  9 17  1  0  0  0  0
  9 19  1  6  0  0  0
 10 11  1  0  0  0  0
 11 12  1  6  0  0  0
 11 13  1  0  0  0  0
 13 14  1  6  0  0  0
 13 15  1  0  0  0  0
 15 16  1  6  0  0  0
 15 17  1  0  0  0  0
 17 18  1  6  0  0  0
 19 20  1  0  0  0  0
 21 22  1  0  0  0  0
 21 29  1  0  0  0  0
 21 31  1  6  0  0  0
 22 23  1  0  0  0  0
 23 24  1  1  0  0  0
 23 25  1  0  0  0  0
 25 26  1  1  0  0  0
 25 27  1  0  0  0  0
 27 28  1  6  0  0  0
 27 29  1  0  0  0  0
 29 30  1  1  0  0  0
 31 32  1  0  0  0  0
 33 34  1  0  0  0  0
 33 38  1  0  0  0  0
 33 39  1  1  0  0  0
 34 35  1  0  0  0  0
 35 36  1  0  0  0  0
 35 40  1  1  0  0  0
 36 24  1  6  0  0  0
 36 37  1  0  0  0  0
 37 38  1  0  0  0  0
 37 41  1  1  0  0  0
 38 42  1  6  0  0  0
M  CHG  6  14   1  20   1  26   1  32   1  39   1  40   1
M  END
>  <CHROM.1>
171.41727000,47.88050238,-58.28108750,68.72732335,-91.93419364,-62.77828325
93.10735666,-81.55064057,-167.49449565,-68.13160934,-178.34107572,-58.89684930
52.87114745,49.63723916,61.69117497,64.51246952,-56.03120128,-56.93779304
40.38585345,-162.84815659,-175.80007679,124.97195067,9.14669493,-1.75658819
-0.95705335,-1.51241726,0.17156630,-2.67983004

>  <Name>


>  <RI>
0

>  <Rbt.Current_Directory>
/home/itssahil/PROJECTS/Mol_Feturizer/New_Systems/rnas/1qd3

>  <Rbt.Executable>
rbdock ($Id: //depot/dev/client3/rdock/2013.1/src/exe/rbdock.cxx#4 $)

>  <Rbt.Library>
libRbt.so (2013.1, Build901 2013/11/27)

>  <Rbt.Parameter_File>
/export/apps/rDock/src/rDock_2013.1_src/data/scripts/dock_solv.prm

>  <Rbt.Receptor>
prm/pocket_docking_3.prm

>  <SCORE>
-32.9728

>  <SCORE.INTER>
-22.159

>  <SCORE.INTER.CONST>
1

>  <SCORE.INTER.POLAR>
-4.36665

>  <SCORE.INTER.ROT>
9

>  <SCORE.INTER.SOLV>
30.8825

>  <SCORE.INTER.VDW>
-20.1114

>  <SCORE.INTER.norm>
-0.527596

>  <SCORE.INTRA>
-13.3184

>  <SCORE.INTRA.DIHEDRAL>
-17.7427

>  <SCORE.INTRA.DIHEDRAL.0>
40.6252

>  <SCORE.INTRA.POLAR>
0.215083

>  <SCORE.INTRA.POLAR.0>
-1.20161

>  <SCORE.INTRA.REPUL>
-0.115675

>  <SCORE.INTRA.REPUL.0>
0.115675

>  <SCORE.INTRA.SOLV>
-6.75343

>  <SCORE.INTRA.SOLV.lig_0>
-154.895

>  <SCORE.INTRA.VDW>
-1.2233

>  <SCORE.INTRA.VDW.0>
2.2925

>  <SCORE.INTRA.norm>
-0.317106

>  <SCORE.RESTR>
2.50466

>  <SCORE.RESTR.CAVITY>
2.50466

>  <SCORE.RESTR.norm>
0.0596349

>  <SCORE.SYSTEM>
0

>  <SCORE.SYSTEM.CONST>
0

>  <SCORE.SYSTEM.DIHEDRAL>
0

>  <SCORE.SYSTEM.SOLV>
0

>  <SCORE.SYSTEM.norm>
0

>  <SCORE.heavy>
42

>  <SCORE.norm>
-0.785067

>  <RMSD>
8.820

$$$$

 OpenBabel11021811413D
libRbt.so/2013.1/901 2013/11/27
 42 45  0  0  0  0  0  0  0  0999 V2000
    5.0790   -4.9608   -4.7882 O   0  0  0  0  0  0  0  0  0  0  0  0
    6.0037   -6.0390   -4.7966 C   0  0  0  0  0  0  0  0  0  0  0  0
    6.2609   -6.5115   -3.3651 C   0  0  1  0  0  0  0  0  0  0  0  0
    6.8717   -7.8201   -3.3460 O   0  0  0  0  0  0  0  0  0  0  0  0
    7.2027   -5.6047   -2.5904 C   0  0  2  0  0  0  0  0  0  0  0  0
    7.6431   -6.5453   -1.4813 C   0  0  1  0  0  0  0  0  0  0  0  0
    6.6137   -6.6518   -0.5040 O   0  0  0  0  0  0  0  0  0  0  0  0
    7.7954   -7.8851   -2.2300 C   0  0  2  0  0  0  0  0  0  0  0  0
    9.3064   -2.1005   -2.4279 C   0  0  2  0  0  0  0  0  0  0  0  0
    8.3469   -3.1062   -2.7877 O   0  0  0  0  0  0  0  0  0  0  0  0
    7.4326   -3.3861   -1.7123 C   0  0  2  0  0  0  0  0  0  0  0  0
    6.5205   -4.4398   -2.0857 O   0  0  0  0  0  0  0  0  0  0  0  0
    6.6531   -2.1195   -1.3189 C   0  0  2  0  0  0  0  0  0  0  0  0
    5.6107   -1.8348   -2.2877 N   0  3  0  0  0  0  0  0  0  0  0  0
    7.5560   -0.8954   -1.1260 C   0  0  1  0  0  0  0  0  0  0  0  0
    8.2067   -0.9838    0.1316 O   0  0  0  0  0  0  0  0  0  0  0  0
    8.5987   -0.7657   -2.2329 C   0  0  2  0  0  0  0  0  0  0  0  0
    7.9725   -0.3617   -3.4450 O   0  0  0  0  0  0  0  0  0  0  0  0
   10.3934   -1.9887   -3.4931 C   0  0  0  0  0  0  0  0  0  0  0  0
   10.5355   -0.6123   -3.9294 N   0  3  0  0  0  0  0  0  0  0  0  0
   11.9446   -6.3393   -3.1397 C   0  0  1  0  0  0  0  0  0  0  0  0
   12.2973   -7.5622   -2.4598 O   0  0  0  0  0  0  0  0  0  0  0  0
   12.3359   -7.4267   -1.0205 C   0  0  2  0  0  0  0  0  0  0  0  0
   11.0261   -7.1506   -0.4654 O   0  0  0  0  0  0  0  0  0  0  0  0
   13.3496   -6.3533   -0.6057 C   0  0  2  0  0  0  0  0  0  0  0  0
   13.2278   -6.0792    0.8141 N   0  3  0  0  0  0  0  0  0  0  0  0
   13.1517   -5.0579   -1.3849 C   0  0  1  0  0  0  0  0  0  0  0  0
   14.2440   -4.1841   -1.1450 O   0  0  0  0  0  0  0  0  0  0  0  0
   12.9995   -5.2757   -2.8825 C   0  0  2  0  0  0  0  0  0  0  0  0
   12.6329   -4.0624   -3.5229 O   0  0  0  0  0  0  0  0  0  0  0  0
   11.8848   -6.5776   -4.6458 C   0  0  0  0  0  0  0  0  0  0  0  0
   12.9899   -7.4134   -5.0783 N   0  3  0  0  0  0  0  0  0  0  0  0
   10.1465  -11.2864   -0.9353 C   0  0  2  0  0  0  0  0  0  0  0  0
   10.0796  -10.6985    0.4604 C   0  0  0  0  0  0  0  0  0  0  0  0
   10.7960   -9.3616    0.5089 C   0  0  1  0  0  0  0  0  0  0  0  0
   10.1727   -8.3244   -0.4263 C   0  0  2  0  0  0  0  0  0  0  0  0
    9.9995   -8.8977   -1.8518 C   0  0  1  0  0  0  0  0  0  0  0  0
    9.5047  -10.3469   -1.9473 C   0  0  1  0  0  0  0  0  0  0  0  0
    9.4606  -12.5644   -0.9532 N   0  3  0  0  0  0  0  0  0  0  0  0
   10.7998   -8.8783    1.8759 N   0  3  0  0  0  0  0  0  0  0  0  0
    9.1742   -8.0368   -2.6743 O   0  0  0  0  0  0  0  0  0  0  0  0
    9.7171  -10.8429   -3.2649 O   0  0  0  0  0  0  0  0  0  0  0  0
  1  2  1  0  0  0  0
  3  2  1  6  0  0  0
  3  4  1  0  0  0  0
  3  5  1  0  0  0  0
  4  8  1  0  0  0  0
  5  6  1  0  0  0  0
  5 12  1  1  0  0  0
  6  7  1  1  0  0  0
  6  8  1  0  0  0  0
  8 41  1  6  0  0  0
  9 10  1  0  0  0  0
  9 17  1  0  0  0  0
  9 19  1  6  0  0  0
 10 11  1  0  0  0  0
 11 12  1  6  0  0  0
 11 13  1  0  0  0  0
 13 14  1  6  0  0  0
 13 15  1  0  0  0  0
 15 16  1  1  0  0  0
 15 17  1  0  0  0  0
 17 18  1  6  0  0  0
 19 20  1  0  0  0  0
 21 22  1  0  0  0  0
 21 29  1  0  0  0  0
 21 31  1  6  0  0  0
 22 23  1  0  0  0  0
 23 24  1  6  0  0  0
 23 25  1  0  0  0  0
 25 26  1  1  0  0  0
 25 27  1  0  0  0  0
 27 28  1  6  0  0  0
 27 29  1  0  0  0  0
 29 30  1  6  0  0  0
 31 32  1  0  0  0  0
 33 34  1  0  0  0  0
 33 38  1  0  0  0  0
 33 39  1  1  0  0  0
 34 35  1  0  0  0  0
 35 36  1  0  0  0  0
 35 40  1  1  0  0  0
 36 24  1  6  0  0  0
 36 37  1  0  0  0  0
 37 38  1  0  0  0  0
 37 41  1  6  0  0  0
 38 42  1  6  0  0  0
M  CHG  6  14   1  20   1  26   1  32   1  39   1  40   1
M  END
>  <CHROM.1>
-55.15168187,163.37102501,-162.36357719,-61.96372600,-142.67279322,127.30674091
51.49162320,-31.25629202,-176.34163578,-122.06566992,167.88057528,-41.80925377
75.77426701,63.46697285,173.31422672,-178.23815156,-167.57513299,-177.45422138
59.52794379,-163.07680552,-63.82542775,175.07074077,9.58470877,-5.85130881
-2.02876394,1.91923181,-0.14020691,-0.13093786

>  <Name>


>  <RI>
0

>  <Rbt.Current_Directory>
/home/itssahil/PROJECTS/Mol_Feturizer/New_Systems/rnas/1qd3

>  <Rbt.Executable>
rbdock ($Id: //depot/dev/client3/rdock/2013.1/src/exe/rbdock.cxx#4 $)

>  <Rbt.Library>
libRbt.so (2013.1, Build901 2013/11/27)

>  <Rbt.Parameter_File>
/export/apps/rDock/src/rDock_2013.1_src/data/scripts/dock_solv.prm

>  <Rbt.Receptor>
prm/pocket_docking_8.prm

>  <SCORE>
-38.7973

>  <SCORE.INTER>
-25.46

>  <SCORE.INTER.CONST>
1

>  <SCORE.INTER.POLAR>
-5.66683

>  <SCORE.INTER.ROT>
9

>  <SCORE.INTER.SOLV>
24.6065

>  <SCORE.INTER.VDW>
-15.8861

>  <SCORE.INTER.norm>
-0.606191

>  <SCORE.INTRA>
-13.3373

>  <SCORE.INTRA.DIHEDRAL>
-13.5192

>  <SCORE.INTRA.DIHEDRAL.0>
40.6252

>  <SCORE.INTRA.POLAR>
1.19664

>  <SCORE.INTRA.POLAR.0>
-1.20161

>  <SCORE.INTRA.REPUL>
-0.115675

>  <SCORE.INTRA.REPUL.0>
0.115675

>  <SCORE.INTRA.SOLV>
-8.20583

>  <SCORE.INTRA.SOLV.lig_0>
-154.895

>  <SCORE.INTRA.VDW>
-5.96499

>  <SCORE.INTRA.VDW.0>
2.2925

>  <SCORE.INTRA.norm>
-0.317555

>  <SCORE.RESTR>
0

>  <SCORE.RESTR.CAVITY>
0

>  <SCORE.RESTR.norm>
0

>  <SCORE.SYSTEM>
0

>  <SCORE.SYSTEM.CONST>
0

>  <SCORE.SYSTEM.DIHEDRAL>
0

>  <SCORE.SYSTEM.SOLV>
0

>  <SCORE.SYSTEM.norm>
0

>  <SCORE.heavy>
42

>  <SCORE.norm>
-0.923746

>  <RMSD>
8.839

$$$$

 OpenBabel11021811413D
libRbt.so/2013.1/901 2013/11/27
 42 45  0  0  0  0  0  0  0  0999 V2000
   12.4835   -0.4061   -5.4635 O   0  0  0  0  0  0  0  0  0  0  0  0
   11.8583   -1.6803   -5.4072 C   0  0  0  0  0  0  0  0  0  0  0  0
   10.5554   -1.5830   -4.6126 C   0  0  1  0  0  0  0  0  0  0  0  0
    9.7281   -2.7492   -4.8160 O   0  0  0  0  0  0  0  0  0  0  0  0
   10.7700   -1.4856   -3.1113 C   0  0  2  0  0  0  0  0  0  0  0  0
    9.3993   -1.9053   -2.6076 C   0  0  1  0  0  0  0  0  0  0  0  0
    8.4826   -0.8261   -2.7523 O   0  0  0  0  0  0  0  0  0  0  0  0
    9.0276   -3.0427   -3.5807 C   0  0  2  0  0  0  0  0  0  0  0  0
   14.3487   -0.3887   -1.0254 C   0  0  2  0  0  0  0  0  0  0  0  0
   13.3942   -0.3482   -2.0972 O   0  0  0  0  0  0  0  0  0  0  0  0
   12.0565   -0.1219   -1.6175 C   0  0  2  0  0  0  0  0  0  0  0  0
   11.1164   -0.1449   -2.7117 O   0  0  0  0  0  0  0  0  0  0  0  0
   11.9685    1.2175   -0.8659 C   0  0  2  0  0  0  0  0  0  0  0  0
   11.9486    2.3302   -1.7975 N   0  3  0  0  0  0  0  0  0  0  0  0
   13.0877    1.4008    0.1659 C   0  0  1  0  0  0  0  0  0  0  0  0
   12.7895    0.6382    1.3245 O   0  0  0  0  0  0  0  0  0  0  0  0
   14.4516    0.9877   -0.3806 C   0  0  2  0  0  0  0  0  0  0  0  0
   14.9021    1.9428   -1.3342 O   0  0  0  0  0  0  0  0  0  0  0  0
   15.7101   -0.8531   -1.5349 C   0  0  0  0  0  0  0  0  0  0  0  0
   15.6460   -2.2387   -1.9604 N   0  3  0  0  0  0  0  0  0  0  0  0
   10.3135   -6.9539   -1.5798 C   0  0  1  0  0  0  0  0  0  0  0  0
    9.2579   -7.7086   -2.2111 O   0  0  0  0  0  0  0  0  0  0  0  0
    7.9726   -7.5427   -1.5693 C   0  0  2  0  0  0  0  0  0  0  0  0
    7.4756   -6.1869   -1.6904 O   0  0  0  0  0  0  0  0  0  0  0  0
    8.0419   -7.9769   -0.1002 C   0  0  2  0  0  0  0  0  0  0  0  0
    6.8153   -7.6107    0.5831 N   0  3  0  0  0  0  0  0  0  0  0  0
    9.2259   -7.3426    0.6212 C   0  0  1  0  0  0  0  0  0  0  0  0
    9.3899   -7.9479    1.8944 O   0  0  0  0  0  0  0  0  0  0  0  0
   10.5283   -7.4453   -0.1576 C   0  0  2  0  0  0  0  0  0  0  0  0
   11.5428   -6.6781    0.4739 O   0  0  0  0  0  0  0  0  0  0  0  0
   11.6221   -7.1497   -2.3400 C   0  0  0  0  0  0  0  0  0  0  0  0
   11.8986   -8.5615   -2.5325 N   0  3  0  0  0  0  0  0  0  0  0  0
    8.1630   -6.4844   -5.8783 C   0  0  2  0  0  0  0  0  0  0  0  0
    6.7279   -6.4930   -5.3901 C   0  0  0  0  0  0  0  0  0  0  0  0
    6.6744   -6.7851   -3.9020 C   0  0  1  0  0  0  0  0  0  0  0  0
    7.4074   -5.7335   -3.0679 C   0  0  2  0  0  0  0  0  0  0  0  0
    8.8334   -5.4897   -3.6136 C   0  0  1  0  0  0  0  0  0  0  0  0
    8.9772   -5.4305   -5.1401 C   0  0  1  0  0  0  0  0  0  0  0  0
    8.1860   -6.2090   -7.3023 N   0  3  0  0  0  0  0  0  0  0  0  0
    5.2876   -6.8857   -3.4910 N   0  3  0  0  0  0  0  0  0  0  0  0
    9.4396   -4.3191   -3.0127 O   0  0  0  0  0  0  0  0  0  0  0  0
   10.3501   -5.5456   -5.4996 O   0  0  0  0  0  0  0  0  0  0  0  0
  1  2  1  0  0  0  0
  3  2  1  6  0  0  0
  3  4  1  0  0  0  0
  3  5  1  0  0  0  0
  4  8  1  0  0  0  0
  5  6  1  0  0  0  0
  5 12  1  6  0  0  0
  6  7  1  6  0  0  0
  6  8  1  0  0  0  0
  8 41  1  1  0  0  0
  9 10  1  0  0  0  0
  9 17  1  0  0  0  0
  9 19  1  6  0  0  0
 10 11  1  0  0  0  0
 11 12  1  6  0  0  0
 11 13  1  0  0  0  0
 13 14  1  6  0  0  0
 13 15  1  0  0  0  0
 15 16  1  1  0  0  0
 15 17  1  0  0  0  0
 17 18  1  6  0  0  0
 19 20  1  0  0  0  0
 21 22  1  0  0  0  0
 21 29  1  0  0  0  0
 21 31  1  6  0  0  0
 22 23  1  0  0  0  0
 23 24  1  1  0  0  0
 23 25  1  0  0  0  0
 25 26  1  1  0  0  0
 25 27  1  0  0  0  0
 27 28  1  1  0  0  0
 27 29  1  0  0  0  0
 29 30  1  1  0  0  0
 31 32  1  0  0  0  0
 33 34  1  0  0  0  0
 33 38  1  0  0  0  0
 33 39  1  6  0  0  0
 34 35  1  0  0  0  0
 35 36  1  0  0  0  0
 35 40  1  1  0  0  0
 36 24  1  1  0  0  0
 36 37  1  0  0  0  0
 37 38  1  0  0  0  0
 37 41  1  1  0  0  0
 38 42  1  1  0  0  0
M  CHG  6  14   1  20   1  26   1  32   1  39   1  40   1
M  END
>  <CHROM.1>
33.70152852,165.28738830,-144.75633202,52.33967606,-79.88754549,-66.87179585
80.08686820,-6.89547058,57.53119907,-60.28069194,50.17593314,-51.36922857
55.11034480,50.06881113,-171.90807564,-65.19487756,57.74106296,-168.93540021
75.97262775,-145.40488878,-80.26871585,68.20477967,10.44466287,-3.74678476
-2.40756100,0.49958350,-0.88840097,-0.84225933

>  <Name>


>  <RI>
0

>  <Rbt.Current_Directory>
/home/itssahil/PROJECTS/Mol_Feturizer/New_Systems/rnas/1qd3

>  <Rbt.Executable>
rbdock ($Id: //depot/dev/client3/rdock/2013.1/src/exe/rbdock.cxx#4 $)

>  <Rbt.Library>
libRbt.so (2013.1, Build901 2013/11/27)

>  <Rbt.Parameter_File>
/export/apps/rDock/src/rDock_2013.1_src/data/scripts/dock_solv.prm

>  <Rbt.Receptor>
prm/pocket_docking_5.prm

>  <SCORE>
-43.8758

>  <SCORE.INTER>
-27.7898

>  <SCORE.INTER.CONST>
1

>  <SCORE.INTER.POLAR>
-6.22445

>  <SCORE.INTER.ROT>
9

>  <SCORE.INTER.SOLV>
25.0678

>  <SCORE.INTER.VDW>
-15.7343

>  <SCORE.INTER.norm>
-0.661663

>  <SCORE.INTRA>
-16.6416

>  <SCORE.INTRA.DIHEDRAL>
-18.1034

>  <SCORE.INTRA.DIHEDRAL.0>
40.6252

>  <SCORE.INTRA.POLAR>
0.836726

>  <SCORE.INTRA.POLAR.0>
-1.20161

>  <SCORE.INTRA.REPUL>
-0.115675

>  <SCORE.INTRA.REPUL.0>
0.115675

>  <SCORE.INTRA.SOLV>
-11.7943

>  <SCORE.INTRA.SOLV.lig_0>
-154.895

>  <SCORE.INTRA.VDW>
-3.95931

>  <SCORE.INTRA.VDW.0>
2.2925

>  <SCORE.INTRA.norm>
-0.39623

>  <SCORE.RESTR>
0.555664

>  <SCORE.RESTR.CAVITY>
0.555664

>  <SCORE.RESTR.norm>
0.0132301

>  <SCORE.SYSTEM>
0

>  <SCORE.SYSTEM.CONST>
0

>  <SCORE.SYSTEM.DIHEDRAL>
0

>  <SCORE.SYSTEM.SOLV>
0

>  <SCORE.SYSTEM.norm>
0

>  <SCORE.heavy>
42

>  <SCORE.norm>
-1.04466

>  <RMSD>
8.845

$$$$

 OpenBabel11021811413D
libRbt.so/2013.1/901 2013/11/27
 42 45  0  0  0  0  0  0  0  0999 V2000
   11.0737   -0.1537   -1.4688 O   0  0  0  0  0  0  0  0  0  0  0  0
   10.0517    0.6396   -2.0553 C   0  0  0  0  0  0  0  0  0  0  0  0
    8.7064   -0.0775   -1.9349 C   0  0  1  0  0  0  0  0  0  0  0  0
    8.7465   -1.3777   -2.5623 O   0  0  0  0  0  0  0  0  0  0  0  0
    8.2815   -0.3257   -0.4971 C   0  0  2  0  0  0  0  0  0  0  0  0
    7.2578   -1.4305   -0.6974 C   0  0  1  0  0  0  0  0  0  0  0  0
    6.0382   -0.8748   -1.1767 O   0  0  0  0  0  0  0  0  0  0  0  0
    7.9126   -2.2869   -1.8003 C   0  0  2  0  0  0  0  0  0  0  0  0
   10.6533    2.4772    1.5263 C   0  0  2  0  0  0  0  0  0  0  0  0
    9.7609    1.9518    0.5319 O   0  0  0  0  0  0  0  0  0  0  0  0
    8.5548    1.4268    1.1155 C   0  0  2  0  0  0  0  0  0  0  0  0
    7.7076    0.8553    0.0970 O   0  0  0  0  0  0  0  0  0  0  0  0
    7.8001    2.5258    1.8831 C   0  0  2  0  0  0  0  0  0  0  0  0
    7.1096    3.4132    0.9655 N   0  3  0  0  0  0  0  0  0  0  0  0
    8.7046    3.3270    2.8269 C   0  0  1  0  0  0  0  0  0  0  0  0
    8.9539    2.5667    3.9985 O   0  0  0  0  0  0  0  0  0  0  0  0
   10.0302    3.7077    2.1731 C   0  0  2  0  0  0  0  0  0  0  0  0
    9.8167    4.7195    1.1958 O   0  0  0  0  0  0  0  0  0  0  0  0
   12.0075    2.8148    0.9092 C   0  0  0  0  0  0  0  0  0  0  0  0
   11.9739    2.6136   -0.5273 N   0  3  0  0  0  0  0  0  0  0  0  0
    8.2760   -6.4320   -0.0371 C   0  0  1  0  0  0  0  0  0  0  0  0
    8.8827   -6.8306   -1.2842 O   0  0  0  0  0  0  0  0  0  0  0  0
    7.9426   -6.9052   -2.3805 C   0  0  2  0  0  0  0  0  0  0  0  0
    7.4009   -5.6051   -2.7212 O   0  0  0  0  0  0  0  0  0  0  0  0
    6.8234   -7.9051   -2.0657 C   0  0  2  0  0  0  0  0  0  0  0  0
    5.7816   -7.8157   -3.0719 N   0  3  0  0  0  0  0  0  0  0  0  0
    6.2141   -7.6568   -0.6903 C   0  0  1  0  0  0  0  0  0  0  0  0
    5.3586   -8.7352   -0.3447 O   0  0  0  0  0  0  0  0  0  0  0  0
    7.2554   -7.4691    0.4023 C   0  0  2  0  0  0  0  0  0  0  0  0
    6.6338   -7.0578    1.6110 O   0  0  0  0  0  0  0  0  0  0  0  0
    9.3388   -6.3368    1.0538 C   0  0  0  0  0  0  0  0  0  0  0  0
   10.2371   -7.4754    0.9971 N   0  3  0  0  0  0  0  0  0  0  0  0
   11.3605   -4.3957   -3.7003 C   0  0  2  0  0  0  0  0  0  0  0  0
   10.3783   -4.6037   -4.8361 C   0  0  0  0  0  0  0  0  0  0  0  0
    9.1782   -5.4021   -4.3615 C   0  0  1  0  0  0  0  0  0  0  0  0
    8.4047   -4.6972   -3.2463 C   0  0  2  0  0  0  0  0  0  0  0  0
    9.3548   -4.2490   -2.1117 C   0  0  1  0  0  0  0  0  0  0  0  0
   10.7005   -3.6534   -2.5461 C   0  0  1  0  0  0  0  0  0  0  0  0
   12.4991   -3.6363   -4.1808 N   0  3  0  0  0  0  0  0  0  0  0  0
    8.3117   -5.6681   -5.4933 N   0  3  0  0  0  0  0  0  0  0  0  0
    8.6919   -3.3532   -1.1860 O   0  0  0  0  0  0  0  0  0  0  0  0
   11.5887   -3.6076   -1.4343 O   0  0  0  0  0  0  0  0  0  0  0  0
  1  2  1  0  0  0  0
  3  2  1  1  0  0  0
  3  4  1  0  0  0  0
  3  5  1  0  0  0  0
  4  8  1  0  0  0  0
  5  6  1  0  0  0  0
  5 12  1  6  0  0  0
  6  7  1  6  0  0  0
  6  8  1  0  0  0  0
  8 41  1  1  0  0  0
  9 10  1  0  0  0  0
  9 17  1  0  0  0  0
  9 19  1  6  0  0  0
 10 11  1  0  0  0  0
 11 12  1  6  0  0  0
 11 13  1  0  0  0  0
 13 14  1  6  0  0  0
 13 15  1  0  0  0  0
 15 16  1  1  0  0  0
 15 17  1  0  0  0  0
 17 18  1  6  0  0  0
 19 20  1  0  0  0  0
 21 22  1  0  0  0  0
 21 29  1  0  0  0  0
 21 31  1  1  0  0  0
 22 23  1  0  0  0  0
 23 24  1  1  0  0  0
 23 25  1  0  0  0  0
 25 26  1  6  0  0  0
 25 27  1  0  0  0  0
 27 28  1  1  0  0  0
 27 29  1  0  0  0  0
 29 30  1  1  0  0  0
 31 32  1  0  0  0  0
 33 34  1  0  0  0  0
 33 38  1  0  0  0  0
 33 39  1  6  0  0  0
 34 35  1  0  0  0  0
 35 36  1  0  0  0  0
 35 40  1  6  0  0  0
 36 24  1  1  0  0  0
 36 37  1  0  0  0  0
 37 38  1  0  0  0  0
 37 41  1  6  0  0  0
 38 42  1  1  0  0  0
M  CHG  6  14   1  20   1  26   1  32   1  39   1  40   1
M  END
>  <CHROM.1>
51.73023467,-57.85213670,-110.33792990,-143.42124988,-63.75611955,4.72620743
67.18055576,53.34226799,-67.90568060,43.93790910,29.44984150,-44.00819114
65.60644185,50.26748671,73.93132406,61.25387647,-66.64241188,66.10647900
63.76169407,-45.62008200,-46.09463497,67.88717132,8.85274917,-2.44857033
-0.88695509,-1.32613243,-0.86416945,-2.65562402

>  <Name>


>  <RI>
0

>  <Rbt.Current_Directory>
/home/itssahil/PROJECTS/Mol_Feturizer/New_Systems/rnas/1qd3

>  <Rbt.Executable>
rbdock ($Id: //depot/dev/client3/rdock/2013.1/src/exe/rbdock.cxx#4 $)

>  <Rbt.Library>
libRbt.so (2013.1, Build901 2013/11/27)

>  <Rbt.Parameter_File>
/export/apps/rDock/src/rDock_2013.1_src/data/scripts/dock_solv.prm

>  <Rbt.Receptor>
prm/pocket_docking_4.prm

>  <SCORE>
-48.7378

>  <SCORE.INTER>
-31.1255

>  <SCORE.INTER.CONST>
1

>  <SCORE.INTER.POLAR>
-4.69759

>  <SCORE.INTER.ROT>
9

>  <SCORE.INTER.SOLV>
27.9619

>  <SCORE.INTER.VDW>
-24.0123

>  <SCORE.INTER.norm>
-0.741083

>  <SCORE.INTRA>
-17.6124

>  <SCORE.INTRA.DIHEDRAL>
-15.27

>  <SCORE.INTRA.DIHEDRAL.0>
40.6252

>  <SCORE.INTRA.POLAR>
-0.184514

>  <SCORE.INTRA.POLAR.0>
-1.20161

>  <SCORE.INTRA.REPUL>
-0.115675

>  <SCORE.INTRA.REPUL.0>
0.115675

>  <SCORE.INTRA.SOLV>
-5.39446

>  <SCORE.INTRA.SOLV.lig_0>
-154.895

>  <SCORE.INTRA.VDW>
-6.07441

>  <SCORE.INTRA.VDW.0>
2.2925

>  <SCORE.INTRA.norm>
-0.419342

>  <SCORE.RESTR>
0

>  <SCORE.RESTR.CAVITY>
0

>  <SCORE.RESTR.norm>
0

>  <SCORE.SYSTEM>
0

>  <SCORE.SYSTEM.CONST>
0

>  <SCORE.SYSTEM.DIHEDRAL>
0

>  <SCORE.SYSTEM.SOLV>
0

>  <SCORE.SYSTEM.norm>
0

>  <SCORE.heavy>
42

>  <SCORE.norm>
-1.16042

>  <RMSD>
8.859

$$$$

 OpenBabel11021811413D
libRbt.so/2013.1/901 2013/11/27
 42 45  0  0  0  0  0  0  0  0999 V2000
    5.7287   -1.2271   -2.2593 O   0  0  0  0  0  0  0  0  0  0  0  0
    5.6323   -2.5165   -2.8474 C   0  0  0  0  0  0  0  0  0  0  0  0
    6.4103   -3.5288   -2.0058 C   0  0  1  0  0  0  0  0  0  0  0  0
    6.2707   -4.8665   -2.5317 O   0  0  0  0  0  0  0  0  0  0  0  0
    7.9047   -3.2558   -1.9626 C   0  0  2  0  0  0  0  0  0  0  0  0
    8.4226   -4.6171   -1.5296 C   0  0  1  0  0  0  0  0  0  0  0  0
    8.2075   -4.7917   -0.1335 O   0  0  0  0  0  0  0  0  0  0  0  0
    7.5162   -5.5795   -2.3239 C   0  0  2  0  0  0  0  0  0  0  0  0
   11.7059   -2.2151   -2.1309 C   0  0  2  0  0  0  0  0  0  0  0  0
   10.3331   -2.6204   -2.0193 O   0  0  0  0  0  0  0  0  0  0  0  0
    9.5843   -1.7500   -1.1518 C   0  0  2  0  0  0  0  0  0  0  0  0
    8.2264   -2.2180   -1.0158 O   0  0  0  0  0  0  0  0  0  0  0  0
    9.6011   -0.3070   -1.6848 C   0  0  2  0  0  0  0  0  0  0  0  0
    8.6931   -0.1624   -2.8078 N   0  3  0  0  0  0  0  0  0  0  0  0
   11.0059    0.1759   -2.0643 C   0  0  1  0  0  0  0  0  0  0  0  0
   11.7209    0.5162   -0.8870 O   0  0  0  0  0  0  0  0  0  0  0  0
   11.7860   -0.8746   -2.8501 C   0  0  2  0  0  0  0  0  0  0  0  0
   11.2543   -0.9916   -4.1647 O   0  0  0  0  0  0  0  0  0  0  0  0
   12.5217   -3.2753   -2.8652 C   0  0  0  0  0  0  0  0  0  0  0  0
   11.8895   -3.6182   -4.1252 N   0  3  0  0  0  0  0  0  0  0  0  0
    8.2253   -8.8559   -0.0861 C   0  0  1  0  0  0  0  0  0  0  0  0
    8.5338   -7.7214   -0.9226 O   0  0  0  0  0  0  0  0  0  0  0  0
    9.2271   -8.0793   -2.1403 C   0  0  2  0  0  0  0  0  0  0  0  0
    8.3993   -8.8769   -3.0226 O   0  0  0  0  0  0  0  0  0  0  0  0
   10.5450   -8.7957   -1.8213 C   0  0  2  0  0  0  0  0  0  0  0  0
   11.1239   -9.3332   -3.0385 N   0  3  0  0  0  0  0  0  0  0  0  0
   10.3448   -9.9273   -0.8194 C   0  0  1  0  0  0  0  0  0  0  0  0
   11.6068  -10.4025   -0.3767 O   0  0  0  0  0  0  0  0  0  0  0  0
    9.5079   -9.5222    0.3843 C   0  0  2  0  0  0  0  0  0  0  0  0
    9.2022  -10.6594    1.1781 O   0  0  0  0  0  0  0  0  0  0  0  0
    7.4599   -8.3987    1.1524 C   0  0  0  0  0  0  0  0  0  0  0  0
    6.3461   -7.5448    0.7823 N   0  3  0  0  0  0  0  0  0  0  0  0
    5.5049   -7.4965   -5.8185 C   0  0  2  0  0  0  0  0  0  0  0  0
    5.0664   -8.5135   -4.7833 C   0  0  0  0  0  0  0  0  0  0  0  0
    6.2728   -9.1831   -4.1517 C   0  0  1  0  0  0  0  0  0  0  0  0
    7.1835   -8.1928   -3.4244 C   0  0  2  0  0  0  0  0  0  0  0  0
    7.5308   -6.9907   -4.3327 C   0  0  1  0  0  0  0  0  0  0  0  0
    6.3857   -6.4280   -5.1850 C   0  0  1  0  0  0  0  0  0  0  0  0
    4.3350   -6.8760   -6.4102 N   0  3  0  0  0  0  0  0  0  0  0  0
    5.8162  -10.2172   -3.2436 N   0  3  0  0  0  0  0  0  0  0  0  0
    8.1619   -5.9233   -3.5834 O   0  0  0  0  0  0  0  0  0  0  0  0
    6.9119   -5.5771   -6.1979 O   0  0  0  0  0  0  0  0  0  0  0  0
  1  2  1  0  0  0  0
  3  2  1  6  0  0  0
  3  4  1  0  0  0  0
  3  5  1  0  0  0  0
  4  8  1  0  0  0  0
  5  6  1  0  0  0  0
  5 12  1  1  0  0  0
  6  7  1  1  0  0  0
  6  8  1  0  0  0  0
  8 41  1  6  0  0  0
  9 10  1  0  0  0  0
  9 17  1  0  0  0  0
  9 19  1  6  0  0  0
 10 11  1  0  0  0  0
 11 12  1  6  0  0  0
 11 13  1  0  0  0  0
 13 14  1  6  0  0  0
 13 15  1  0  0  0  0
 15 16  1  1  0  0  0
 15 17  1  0  0  0  0
 17 18  1  6  0  0  0
 19 20  1  0  0  0  0
 21 22  1  0  0  0  0
 21 29  1  0  0  0  0
 21 31  1  1  0  0  0
 22 23  1  0  0  0  0
 23 24  1  6  0  0  0
 23 25  1  0  0  0  0
 25 26  1  6  0  0  0
 25 27  1  0  0  0  0
 27 28  1  1  0  0  0
 27 29  1  0  0  0  0
 29 30  1  6  0  0  0
 31 32  1  0  0  0  0
 33 34  1  0  0  0  0
 33 38  1  0  0  0  0
 33 39  1  1  0  0  0
 34 35  1  0  0  0  0
 35 36  1  0  0  0  0
 35 40  1  1  0  0  0
 36 24  1  6  0  0  0
 36 37  1  0  0  0  0
 37 38  1  0  0  0  0
 37 41  1  1  0  0  0
 38 42  1  6  0  0  0
M  CHG  6  14   1  20   1  26   1  32   1  39   1  40   1
M  END
>  <CHROM.1>
-59.06924348,176.67995598,-167.99959950,58.82146422,-72.97222205,52.07477433
-11.19809298,60.93862054,60.85560011,-174.95213025,-33.80617447,49.76623112
59.75736717,-170.61457033,-166.54069598,55.14092640,178.50450715,49.75522649
-74.98925553,-54.63367248,-46.28130181,-48.62044130,8.52149440,-5.50026201
-2.36662801,1.25580929,-0.61962318,-0.21689132

>  <Name>


>  <RI>
0

>  <Rbt.Current_Directory>
/home/itssahil/PROJECTS/Mol_Feturizer/New_Systems/rnas/1qd3

>  <Rbt.Executable>
rbdock ($Id: //depot/dev/client3/rdock/2013.1/src/exe/rbdock.cxx#4 $)

>  <Rbt.Library>
libRbt.so (2013.1, Build901 2013/11/27)

>  <Rbt.Parameter_File>
/export/apps/rDock/src/rDock_2013.1_src/data/scripts/dock_solv.prm

>  <Rbt.Receptor>
prm/pocket_docking_7.prm

>  <SCORE>
-57.7451

>  <SCORE.INTER>
-36.158

>  <SCORE.INTER.CONST>
1

>  <SCORE.INTER.POLAR>
-7.20053

>  <SCORE.INTER.ROT>
9

>  <SCORE.INTER.SOLV>
28.7434

>  <SCORE.INTER.VDW>
-19.2847

>  <SCORE.INTER.norm>
-0.860905

>  <SCORE.INTRA>
-21.5871

>  <SCORE.INTRA.DIHEDRAL>
-24.8174

>  <SCORE.INTRA.DIHEDRAL.0>
40.6252

>  <SCORE.INTRA.POLAR>
0.0827595

>  <SCORE.INTRA.POLAR.0>
-1.20161

>  <SCORE.INTRA.REPUL>
-0.0492355

>  <SCORE.INTRA.REPUL.0>
0.115675

>  <SCORE.INTRA.SOLV>
-5.26808

>  <SCORE.INTRA.SOLV.lig_0>
-154.895

>  <SCORE.INTRA.VDW>
-6.57962

>  <SCORE.INTRA.VDW.0>
2.2925

>  <SCORE.INTRA.norm>
-0.51398

>  <SCORE.RESTR>
0

>  <SCORE.RESTR.CAVITY>
0

>  <SCORE.RESTR.norm>
0

>  <SCORE.SYSTEM>
0

>  <SCORE.SYSTEM.CONST>
0

>  <SCORE.SYSTEM.DIHEDRAL>
0

>  <SCORE.SYSTEM.SOLV>
0

>  <SCORE.SYSTEM.norm>
0

>  <SCORE.heavy>
42

>  <SCORE.norm>
-1.37488

>  <RMSD>
8.862

$$$$

 OpenBabel11021811413D
libRbt.so/2013.1/901 2013/11/27
 42 45  0  0  0  0  0  0  0  0999 V2000
    7.3784   -2.1335    1.9208 O   0  0  0  0  0  0  0  0  0  0  0  0
    7.1260   -1.4120    0.7235 C   0  0  0  0  0  0  0  0  0  0  0  0
    8.4487   -0.9624    0.1016 C   0  0  1  0  0  0  0  0  0  0  0  0
    9.2152   -2.0901   -0.3745 O   0  0  0  0  0  0  0  0  0  0  0  0
    8.2709   -0.0475   -1.0987 C   0  0  2  0  0  0  0  0  0  0  0  0
    9.6306   -0.1924   -1.7614 C   0  0  1  0  0  0  0  0  0  0  0  0
   10.5942    0.5823   -1.0563 O   0  0  0  0  0  0  0  0  0  0  0  0
    9.9271   -1.6943   -1.5743 C   0  0  2  0  0  0  0  0  0  0  0  0
   10.6594    2.9039    1.2333 C   0  0  2  0  0  0  0  0  0  0  0  0
    9.8542    2.5439    0.1003 O   0  0  0  0  0  0  0  0  0  0  0  0
    8.7505    1.6987    0.4720 C   0  0  2  0  0  0  0  0  0  0  0  0
    7.9972    1.3087   -0.6950 O   0  0  0  0  0  0  0  0  0  0  0  0
    7.8371    2.4120    1.4836 C   0  0  2  0  0  0  0  0  0  0  0  0
    7.0083    3.4017    0.8203 N   0  3  0  0  0  0  0  0  0  0  0  0
    8.6101    3.0494    2.6442 C   0  0  1  0  0  0  0  0  0  0  0  0
    8.9849    2.0418    3.5700 O   0  0  0  0  0  0  0  0  0  0  0  0
    9.8541    3.7956    2.1697 C   0  0  2  0  0  0  0  0  0  0  0  0
    9.4763    4.9934    1.5010 O   0  0  0  0  0  0  0  0  0  0  0  0
   11.9388    3.6036    0.7833 C   0  0  0  0  0  0  0  0  0  0  0  0
   11.6240    4.7442   -0.0563 N   0  3  0  0  0  0  0  0  0  0  0  0
    6.7099   -4.9169   -3.1160 C   0  0  1  0  0  0  0  0  0  0  0  0
    7.5318   -4.0275   -2.3314 O   0  0  0  0  0  0  0  0  0  0  0  0
    8.4994   -4.7186   -1.5082 C   0  0  2  0  0  0  0  0  0  0  0  0
    9.4937   -5.4107   -2.3033 O   0  0  0  0  0  0  0  0  0  0  0  0
    7.7978   -5.6800   -0.5412 C   0  0  2  0  0  0  0  0  0  0  0  0
    8.7791   -6.5153    0.1259 N   0  3  0  0  0  0  0  0  0  0  0  0
    6.7893   -6.5688   -1.2605 C   0  0  1  0  0  0  0  0  0  0  0  0
    6.0027   -7.2673   -0.3077 O   0  0  0  0  0  0  0  0  0  0  0  0
    5.8756   -5.7995   -2.2021 C   0  0  2  0  0  0  0  0  0  0  0  0
    5.0940   -6.6984   -2.9752 O   0  0  0  0  0  0  0  0  0  0  0  0
    5.7489   -4.1100   -3.9843 C   0  0  0  0  0  0  0  0  0  0  0  0
    5.1250   -4.9570   -4.9844 N   0  3  0  0  0  0  0  0  0  0  0  0
   12.0002   -3.7084   -5.2898 C   0  0  2  0  0  0  0  0  0  0  0  0
   11.1902   -4.9366   -5.6555 C   0  0  0  0  0  0  0  0  0  0  0  0
   10.6873   -5.6334   -4.4048 C   0  0  1  0  0  0  0  0  0  0  0  0
    9.7686   -4.7456   -3.5641 C   0  0  2  0  0  0  0  0  0  0  0  0
   10.4190   -3.3675   -3.3021 C   0  0  1  0  0  0  0  0  0  0  0  0
   11.1585   -2.7278   -4.4845 C   0  0  1  0  0  0  0  0  0  0  0  0
   12.4732   -3.0650   -6.5007 N   0  3  0  0  0  0  0  0  0  0  0  0
   10.0055   -6.8545   -4.7875 N   0  3  0  0  0  0  0  0  0  0  0  0
    9.4671   -2.4277   -2.7456 O   0  0  0  0  0  0  0  0  0  0  0  0
   11.9782   -1.6604   -4.0198 O   0  0  0  0  0  0  0  0  0  0  0  0
  1  2  1  0  0  0  0
  3  2  1  6  0  0  0
  3  4  1  0  0  0  0
  3  5  1  0  0  0  0
  4  8  1  0  0  0  0
  5  6  1  0  0  0  0
  5 12  1  1  0  0  0
  6  7  1  1  0  0  0
  6  8  1  0  0  0  0
  8 41  1  6  0  0  0
  9 10  1  0  0  0  0
  9 17  1  0  0  0  0
  9 19  1  6  0  0  0
 10 11  1  0  0  0  0
 11 12  1  6  0  0  0
 11 13  1  0  0  0  0
 13 14  1  6  0  0  0
 13 15  1  0  0  0  0
 15 16  1  1  0  0  0
 15 17  1  0  0  0  0
 17 18  1  6  0  0  0
 19 20  1  0  0  0  0
 21 22  1  0  0  0  0
 21 29  1  0  0  0  0
 21 31  1  6  0  0  0
 22 23  1  0  0  0  0
 23 24  1  6  0  0  0
 23 25  1  0  0  0  0
 25 26  1  6  0  0  0
 25 27  1  0  0  0  0
 27 28  1  1  0  0  0
 27 29  1  0  0  0  0
 29 30  1  6  0  0  0
 31 32  1  0  0  0  0
 33 34  1  0  0  0  0
 33 38  1  0  0  0  0
 33 39  1  6  0  0  0
 34 35  1  0  0  0  0
 35 36  1  0  0  0  0
 35 40  1  6  0  0  0
 36 24  1  1  0  0  0
 36 37  1  0  0  0  0
 37 38  1  0  0  0  0
 37 41  1  6  0  0  0
 38 42  1  1  0  0  0
M  CHG  6  14   1  20   1  26   1  32   1  39   1  40   1
M  END
>  <CHROM.1>
-176.13826520,67.45585800,37.98008351,-175.44863168,-111.23419707,54.89685677
103.42335048,71.84447886,-56.20608622,163.80810758,47.64486433,167.51724117
31.06863003,-172.88419235,-38.42841720,-173.00012494,62.92133264,-163.05142961
69.57121569,-65.54592425,131.84462628,-177.35389990,8.92921735,-1.83197112
-1.40960447,1.40615491,0.69453453,0.58616787

>  <Name>


>  <RI>
0

>  <Rbt.Current_Directory>
/home/itssahil/PROJECTS/Mol_Feturizer/New_Systems/rnas/1qd3

>  <Rbt.Executable>
rbdock ($Id: //depot/dev/client3/rdock/2013.1/src/exe/rbdock.cxx#4 $)

>  <Rbt.Library>
libRbt.so (2013.1, Build901 2013/11/27)

>  <Rbt.Parameter_File>
/export/apps/rDock/src/rDock_2013.1_src/data/scripts/dock_solv.prm

>  <Rbt.Receptor>
prm/pocket_docking_4.prm

>  <SCORE>
-44.0406

>  <SCORE.INTER>
-31.2828

>  <SCORE.INTER.CONST>
1

>  <SCORE.INTER.POLAR>
-4.74476

>  <SCORE.INTER.ROT>
9

>  <SCORE.INTER.SOLV>
33.6003

>  <SCORE.INTER.VDW>
-25.8395

>  <SCORE.INTER.norm>
-0.744829

>  <SCORE.INTRA>
-13.6702

>  <SCORE.INTRA.DIHEDRAL>
-9.85458

>  <SCORE.INTRA.DIHEDRAL.0>
40.6252

>  <SCORE.INTRA.POLAR>
0.0468105

>  <SCORE.INTRA.POLAR.0>
-1.20161

>  <SCORE.INTRA.REPUL>
-0.102624

>  <SCORE.INTRA.REPUL.0>
0.115675

>  <SCORE.INTRA.SOLV>
-8.92177

>  <SCORE.INTRA.SOLV.lig_0>
-154.895

>  <SCORE.INTRA.VDW>
-3.92804

>  <SCORE.INTRA.VDW.0>
2.2925

>  <SCORE.INTRA.norm>
-0.32548

>  <SCORE.RESTR>
0.912344

>  <SCORE.RESTR.CAVITY>
0.912344

>  <SCORE.RESTR.norm>
0.0217225

>  <SCORE.SYSTEM>
0

>  <SCORE.SYSTEM.CONST>
0

>  <SCORE.SYSTEM.DIHEDRAL>
0

>  <SCORE.SYSTEM.SOLV>
0

>  <SCORE.SYSTEM.norm>
0

>  <SCORE.heavy>
42

>  <SCORE.norm>
-1.04859

>  <RMSD>
8.875

$$$$

 OpenBabel11021811413D
libRbt.so/2013.1/901 2013/11/27
 42 45  0  0  0  0  0  0  0  0999 V2000
    6.2749   -1.1337   -1.7965 O   0  0  0  0  0  0  0  0  0  0  0  0
    7.1727   -1.1022   -0.6962 C   0  0  0  0  0  0  0  0  0  0  0  0
    8.2103   -2.2160   -0.8428 C   0  0  1  0  0  0  0  0  0  0  0  0
    7.6611   -3.3571   -1.5370 O   0  0  0  0  0  0  0  0  0  0  0  0
    9.4354   -1.7983   -1.6392 C   0  0  2  0  0  0  0  0  0  0  0  0
    9.9877   -3.1584   -2.0315 C   0  0  1  0  0  0  0  0  0  0  0  0
   10.6575   -3.7442   -0.9206 O   0  0  0  0  0  0  0  0  0  0  0  0
    8.7046   -3.9534   -2.3485 C   0  0  2  0  0  0  0  0  0  0  0  0
    8.7091    1.7105    0.9162 C   0  0  2  0  0  0  0  0  0  0  0  0
    9.2254    0.3930    0.6728 O   0  0  0  0  0  0  0  0  0  0  0  0
    9.9041    0.3070   -0.5931 C   0  0  2  0  0  0  0  0  0  0  0  0
   10.3588   -1.0412   -0.8323 O   0  0  0  0  0  0  0  0  0  0  0  0
   11.0891    1.2868   -0.6415 C   0  0  2  0  0  0  0  0  0  0  0  0
   12.2100    0.7775    0.1270 N   0  3  0  0  0  0  0  0  0  0  0  0
   10.7178    2.7002   -0.1778 C   0  0  1  0  0  0  0  0  0  0  0  0
   10.0183    3.3679   -1.2160 O   0  0  0  0  0  0  0  0  0  0  0  0
    9.8646    2.6883    1.0876 C   0  0  2  0  0  0  0  0  0  0  0  0
   10.6605    2.3148    2.2064 O   0  0  0  0  0  0  0  0  0  0  0  0
    7.8061    1.7155    2.1464 C   0  0  0  0  0  0  0  0  0  0  0  0
    8.5113    1.1779    3.2947 N   0  3  0  0  0  0  0  0  0  0  0  0
    8.4480   -6.4127   -1.1631 C   0  0  1  0  0  0  0  0  0  0  0  0
    8.2599   -7.1788   -2.3713 O   0  0  0  0  0  0  0  0  0  0  0  0
    6.8776   -7.2612   -2.7880 C   0  0  2  0  0  0  0  0  0  0  0  0
    6.3489   -5.9690   -3.1759 O   0  0  0  0  0  0  0  0  0  0  0  0
    6.0196   -7.9028   -1.6907 C   0  0  2  0  0  0  0  0  0  0  0  0
    4.6136   -7.7880   -2.0306 N   0  3  0  0  0  0  0  0  0  0  0  0
    6.2614   -7.2537   -0.3325 C   0  0  1  0  0  0  0  0  0  0  0  0
    5.6352   -8.0225    0.6829 O   0  0  0  0  0  0  0  0  0  0  0  0
    7.7364   -7.0865   -0.0013 C   0  0  2  0  0  0  0  0  0  0  0  0
    7.8925   -6.3128    1.1792 O   0  0  0  0  0  0  0  0  0  0  0  0
    9.9324   -6.3390   -0.8171 C   0  0  0  0  0  0  0  0  0  0  0  0
   10.4655   -7.6633   -0.5550 N   0  3  0  0  0  0  0  0  0  0  0  0
    8.6812   -6.2480   -6.7230 C   0  0  2  0  0  0  0  0  0  0  0  0
    7.1852   -6.4660   -6.8356 C   0  0  0  0  0  0  0  0  0  0  0  0
    6.5822   -6.7307   -5.4684 C   0  0  1  0  0  0  0  0  0  0  0  0
    6.7760   -5.5613   -4.5021 C   0  0  2  0  0  0  0  0  0  0  0  0
    8.2555   -5.1134   -4.4648 C   0  0  1  0  0  0  0  0  0  0  0  0
    8.9865   -5.0659   -5.8130 C   0  0  1  0  0  0  0  0  0  0  0  0
    9.2330   -6.0032   -8.0419 N   0  3  0  0  0  0  0  0  0  0  0  0
    5.1731   -7.0340   -5.6255 N   0  3  0  0  0  0  0  0  0  0  0  0
    8.4114   -3.8510   -3.7715 O   0  0  0  0  0  0  0  0  0  0  0  0
   10.3910   -4.9768   -5.5968 O   0  0  0  0  0  0  0  0  0  0  0  0
  1  2  1  0  0  0  0
  3  2  1  6  0  0  0
  3  4  1  0  0  0  0
  3  5  1  0  0  0  0
  4  8  1  0  0  0  0
  5  6  1  0  0  0  0
  5 12  1  1  0  0  0
  6  7  1  1  0  0  0
  6  8  1  0  0  0  0
  8 41  1  6  0  0  0
  9 10  1  0  0  0  0
  9 17  1  0  0  0  0
  9 19  1  1  0  0  0
 10 11  1  0  0  0  0
 11 12  1  1  0  0  0
 11 13  1  0  0  0  0
 13 14  1  1  0  0  0
 13 15  1  0  0  0  0
 15 16  1  6  0  0  0
 15 17  1  0  0  0  0
 17 18  1  1  0  0  0
 19 20  1  0  0  0  0
 21 22  1  0  0  0  0
 21 29  1  0  0  0  0
 21 31  1  1  0  0  0
 22 23  1  0  0  0  0
 23 24  1  1  0  0  0
 23 25  1  0  0  0  0
 25 26  1  6  0  0  0
 25 27  1  0  0  0  0
 27 28  1  1  0  0  0
 27 29  1  0  0  0  0
 29 30  1  1  0  0  0
 31 32  1  0  0  0  0
 33 34  1  0  0  0  0
 33 38  1  0  0  0  0
 33 39  1  6  0  0  0
 34 35  1  0  0  0  0
 35 36  1  0  0  0  0
 35 40  1  6  0  0  0
 36 24  1  1  0  0  0
 36 37  1  0  0  0  0
 37 38  1  0  0  0  0
 37 41  1  6  0  0  0
 38 42  1  1  0  0  0
M  CHG  6  14   1  20   1  26   1  32   1  39   1  40   1
M  END
>  <CHROM.1>
-57.67833023,-30.76142252,-74.86682129,-32.99274798,-117.64186882,54.94437388
95.83426025,-124.24379271,54.98570009,66.03785393,155.24956280,-62.43640098
77.88643302,47.16384219,-175.87198954,78.66283417,55.26038229,-72.22958897
80.49287483,-33.16349871,92.64642498,174.43003824,8.46742923,-3.46020795
-1.74670362,-0.89487736,-1.13841432,-2.01846600

>  <Name>


>  <RI>
0

>  <Rbt.Current_Directory>
/home/itssahil/PROJECTS/Mol_Feturizer/New_Systems/rnas/1qd3

>  <Rbt.Executable>
rbdock ($Id: //depot/dev/client3/rdock/2013.1/src/exe/rbdock.cxx#4 $)

>  <Rbt.Library>
libRbt.so (2013.1, Build901 2013/11/27)

>  <Rbt.Parameter_File>
/export/apps/rDock/src/rDock_2013.1_src/data/scripts/dock_solv.prm

>  <Rbt.Receptor>
prm/pocket_docking_2.prm

>  <SCORE>
-14.6272

>  <SCORE.INTER>
-17.5417

>  <SCORE.INTER.CONST>
1

>  <SCORE.INTER.POLAR>
-4.91553

>  <SCORE.INTER.ROT>
9

>  <SCORE.INTER.SOLV>
38.2789

>  <SCORE.INTER.VDW>
-17.669

>  <SCORE.INTER.norm>
-0.41766

>  <SCORE.INTRA>
-7.28234

>  <SCORE.INTRA.DIHEDRAL>
-5.74984

>  <SCORE.INTRA.DIHEDRAL.0>
40.6252

>  <SCORE.INTRA.POLAR>
0.650345

>  <SCORE.INTRA.POLAR.0>
-1.20161

>  <SCORE.INTRA.REPUL>
-0.115675

>  <SCORE.INTRA.REPUL.0>
0.115675

>  <SCORE.INTRA.SOLV>
-6.05283

>  <SCORE.INTRA.SOLV.lig_0>
-154.895

>  <SCORE.INTRA.VDW>
-3.0138

>  <SCORE.INTRA.VDW.0>
2.2925

>  <SCORE.INTRA.norm>
-0.173389

>  <SCORE.RESTR>
10.1968

>  <SCORE.RESTR.CAVITY>
10.1968

>  <SCORE.RESTR.norm>
0.242781

>  <SCORE.SYSTEM>
0

>  <SCORE.SYSTEM.CONST>
0

>  <SCORE.SYSTEM.DIHEDRAL>
0

>  <SCORE.SYSTEM.SOLV>
0

>  <SCORE.SYSTEM.norm>
0

>  <SCORE.heavy>
42

>  <SCORE.norm>
-0.348268

>  <RMSD>
8.878

$$$$

 OpenBabel11021811413D
libRbt.so/2013.1/901 2013/11/27
 42 45  0  0  0  0  0  0  0  0999 V2000
   11.2500   -0.0831   -1.0756 O   0  0  0  0  0  0  0  0  0  0  0  0
   10.2282    0.7395   -1.6206 C   0  0  0  0  0  0  0  0  0  0  0  0
    8.8993   -0.0171   -1.6201 C   0  0  1  0  0  0  0  0  0  0  0  0
    9.0252   -1.3000   -2.2711 O   0  0  0  0  0  0  0  0  0  0  0  0
    8.3732   -0.3116   -0.2251 C   0  0  2  0  0  0  0  0  0  0  0  0
    7.4005   -1.4390   -0.5281 C   0  0  1  0  0  0  0  0  0  0  0  0
    6.2054   -0.9056   -1.0875 O   0  0  0  0  0  0  0  0  0  0  0  0
    8.1624   -2.2501   -1.5959 C   0  0  2  0  0  0  0  0  0  0  0  0
   10.6049    2.5263    1.8275 C   0  0  2  0  0  0  0  0  0  0  0  0
    9.7616    1.9428    0.8226 O   0  0  0  0  0  0  0  0  0  0  0  0
    8.5186    1.4700    1.3722 C   0  0  2  0  0  0  0  0  0  0  0  0
    7.7213    0.8384    0.3489 O   0  0  0  0  0  0  0  0  0  0  0  0
    7.7374    2.6256    2.0208 C   0  0  2  0  0  0  0  0  0  0  0  0
    7.1098    3.4549    1.0085 N   0  3  0  0  0  0  0  0  0  0  0  0
    8.5990    3.4807    2.9573 C   0  0  1  0  0  0  0  0  0  0  0  0
    8.7736    2.7995    4.1896 O   0  0  0  0  0  0  0  0  0  0  0  0
    9.9633    3.8036    2.3541 C   0  0  2  0  0  0  0  0  0  0  0  0
    9.8170    4.7487    1.3006 O   0  0  0  0  0  0  0  0  0  0  0  0
   11.9953    2.8085    1.2653 C   0  0  0  0  0  0  0  0  0  0  0  0
   12.8316    3.4339    2.2725 N   0  3  0  0  0  0  0  0  0  0  0  0
    8.4311   -6.3186    0.0842 C   0  0  1  0  0  0  0  0  0  0  0  0
    9.1528   -6.7144   -1.1009 O   0  0  0  0  0  0  0  0  0  0  0  0
    8.3169   -6.8030   -2.2777 C   0  0  2  0  0  0  0  0  0  0  0  0
    7.7942   -5.5102   -2.6716 O   0  0  0  0  0  0  0  0  0  0  0  0
    7.1847   -7.8145   -2.0615 C   0  0  2  0  0  0  0  0  0  0  0  0
    6.2376   -7.7400   -3.1584 N   0  3  0  0  0  0  0  0  0  0  0  0
    6.4505   -7.5687   -0.7481 C   0  0  1  0  0  0  0  0  0  0  0  0
    5.5789   -8.6554   -0.4770 O   0  0  0  0  0  0  0  0  0  0  0  0
    7.3862   -7.3657    0.4336 C   0  0  2  0  0  0  0  0  0  0  0  0
    6.6531   -6.9576    1.5793 O   0  0  0  0  0  0  0  0  0  0  0  0
    9.3894   -6.2080    1.2667 C   0  0  0  0  0  0  0  0  0  0  0  0
   10.3171   -5.1082    1.0754 N   0  3  0  0  0  0  0  0  0  0  0  0
   11.8177   -4.2508   -3.2418 C   0  0  2  0  0  0  0  0  0  0  0  0
   10.9447   -4.4223   -4.4692 C   0  0  0  0  0  0  0  0  0  0  0  0
    9.7121   -5.2419   -4.1345 C   0  0  1  0  0  0  0  0  0  0  0  0
    8.8351   -4.5802   -3.0707 C   0  0  2  0  0  0  0  0  0  0  0  0
    9.6745   -4.1687   -1.8390 C   0  0  1  0  0  0  0  0  0  0  0  0
   11.0499   -3.5526   -2.1275 C   0  0  1  0  0  0  0  0  0  0  0  0
   12.9898   -3.4702   -3.5894 N   0  3  0  0  0  0  0  0  0  0  0  0
    8.9544   -5.4710   -5.3493 N   0  3  0  0  0  0  0  0  0  0  0  0
    8.9234   -3.3091   -0.9470 O   0  0  0  0  0  0  0  0  0  0  0  0
   11.8326   -3.5428   -0.9382 O   0  0  0  0  0  0  0  0  0  0  0  0
  1  2  1  0  0  0  0
  3  2  1  1  0  0  0
  3  4  1  0  0  0  0
  3  5  1  0  0  0  0
  4  8  1  0  0  0  0
  5  6  1  0  0  0  0
  5 12  1  6  0  0  0
  6  7  1  6  0  0  0
  6  8  1  0  0  0  0
  8 41  1  1  0  0  0
  9 10  1  0  0  0  0
  9 17  1  0  0  0  0
  9 19  1  6  0  0  0
 10 11  1  0  0  0  0
 11 12  1  6  0  0  0
 11 13  1  0  0  0  0
 13 14  1  6  0  0  0
 13 15  1  0  0  0  0
 15 16  1  1  0  0  0
 15 17  1  0  0  0  0
 17 18  1  6  0  0  0
 19 20  1  0  0  0  0
 21 22  1  0  0  0  0
 21 29  1  0  0  0  0
 21 31  1  1  0  0  0
 22 23  1  0  0  0  0
 23 24  1  1  0  0  0
 23 25  1  0  0  0  0
 25 26  1  6  0  0  0
 25 27  1  0  0  0  0
 27 28  1  1  0  0  0
 27 29  1  0  0  0  0
 29 30  1  1  0  0  0
 31 32  1  0  0  0  0
 33 34  1  0  0  0  0
 33 38  1  0  0  0  0
 33 39  1  6  0  0  0
 34 35  1  0  0  0  0
 35 36  1  0  0  0  0
 35 40  1  6  0  0  0
 36 24  1  1  0  0  0
 36 37  1  0  0  0  0
 37 38  1  0  0  0  0
 37 41  1  6  0  0  0
 38 42  1  1  0  0  0
M  CHG  6  14   1  20   1  26   1  32   1  39   1  40   1
M  END
>  <CHROM.1>
60.35413066,-53.01885727,-105.83827214,66.58873867,-64.12217626,178.33132170
61.39851233,50.02556958,67.89519412,-65.17359807,-66.00282208,67.14579787
63.94076679,52.56818908,-41.97381325,63.47387153,163.02992610,-67.59499778
173.21210499,69.21502311,-44.27278041,169.80205596,9.07005149,-2.27628801
-0.61391131,-1.37553509,-0.70740696,-2.66425731

>  <Name>


>  <RI>
0

>  <Rbt.Current_Directory>
/home/itssahil/PROJECTS/Mol_Feturizer/New_Systems/rnas/1qd3

>  <Rbt.Executable>
rbdock ($Id: //depot/dev/client3/rdock/2013.1/src/exe/rbdock.cxx#4 $)

>  <Rbt.Library>
libRbt.so (2013.1, Build901 2013/11/27)

>  <Rbt.Parameter_File>
/export/apps/rDock/src/rDock_2013.1_src/data/scripts/dock_solv.prm

>  <Rbt.Receptor>
prm/pocket_docking_4.prm

>  <SCORE>
-55.8599

>  <SCORE.INTER>
-31.0213

>  <SCORE.INTER.CONST>
1

>  <SCORE.INTER.POLAR>
-4.72699

>  <SCORE.INTER.ROT>
9

>  <SCORE.INTER.SOLV>
28.6425

>  <SCORE.INTER.VDW>
-24.0717

>  <SCORE.INTER.norm>
-0.738603

>  <SCORE.INTRA>
-24.9134

>  <SCORE.INTRA.DIHEDRAL>
-26.7088

>  <SCORE.INTRA.DIHEDRAL.0>
40.6252

>  <SCORE.INTRA.POLAR>
-0.327966

>  <SCORE.INTRA.POLAR.0>
-1.20161

>  <SCORE.INTRA.REPUL>
-0.115675

>  <SCORE.INTRA.REPUL.0>
0.115675

>  <SCORE.INTRA.SOLV>
-5.15705

>  <SCORE.INTRA.SOLV.lig_0>
-154.895

>  <SCORE.INTRA.VDW>
-7.287

>  <SCORE.INTRA.VDW.0>
2.2925

>  <SCORE.INTRA.norm>
-0.593175

>  <SCORE.RESTR>
0.0747853

>  <SCORE.RESTR.CAVITY>
0.0747853

>  <SCORE.RESTR.norm>
0.0017806

>  <SCORE.SYSTEM>
0

>  <SCORE.SYSTEM.CONST>
0

>  <SCORE.SYSTEM.DIHEDRAL>
0

>  <SCORE.SYSTEM.SOLV>
0

>  <SCORE.SYSTEM.norm>
0

>  <SCORE.heavy>
42

>  <SCORE.norm>
-1.33

>  <RMSD>
8.881

$$$$

 OpenBabel11021811413D
libRbt.so/2013.1/901 2013/11/27
 42 45  0  0  0  0  0  0  0  0999 V2000
   12.8601    0.3034   -2.7830 O   0  0  0  0  0  0  0  0  0  0  0  0
   12.0386    0.5554   -1.6519 C   0  0  0  0  0  0  0  0  0  0  0  0
   10.7010   -0.1682   -1.8121 C   0  0  1  0  0  0  0  0  0  0  0  0
   10.8922   -1.5824   -2.0332 O   0  0  0  0  0  0  0  0  0  0  0  0
    9.8054   -0.0586   -0.5892 C   0  0  2  0  0  0  0  0  0  0  0  0
    8.8609   -1.2238   -0.8322 C   0  0  1  0  0  0  0  0  0  0  0  0
    7.9005   -0.8665   -1.8200 O   0  0  0  0  0  0  0  0  0  0  0  0
    9.8104   -2.3033   -1.3907 C   0  0  2  0  0  0  0  0  0  0  0  0
   10.9991    4.3063   -0.0893 C   0  0  2  0  0  0  0  0  0  0  0  0
   10.1985    3.3060   -0.7374 O   0  0  0  0  0  0  0  0  0  0  0  0
    9.8721    2.2209    0.1495 C   0  0  2  0  0  0  0  0  0  0  0  0
    9.1182    1.2075   -0.5477 O   0  0  0  0  0  0  0  0  0  0  0  0
    9.0814    2.7329    1.3657 C   0  0  2  0  0  0  0  0  0  0  0  0
    7.7028    3.0078    1.0048 N   0  3  0  0  0  0  0  0  0  0  0  0
    9.7203    3.9624    2.0220 C   0  0  1  0  0  0  0  0  0  0  0  0
   10.8264    3.5538    2.8110 O   0  0  0  0  0  0  0  0  0  0  0  0
   10.1787    4.9938    0.9946 C   0  0  2  0  0  0  0  0  0  0  0  0
    9.0497    5.6403    0.4185 O   0  0  0  0  0  0  0  0  0  0  0  0
   11.5174    5.3212   -1.1043 C   0  0  0  0  0  0  0  0  0  0  0  0
   11.8228    4.6679   -2.3632 N   0  3  0  0  0  0  0  0  0  0  0  0
    7.2175   -6.7178   -0.9201 C   0  0  1  0  0  0  0  0  0  0  0  0
    7.7017   -5.4143   -0.5348 O   0  0  0  0  0  0  0  0  0  0  0  0
    8.6959   -5.4596    0.5144 C   0  0  2  0  0  0  0  0  0  0  0  0
    9.9164   -6.1081    0.0790 O   0  0  0  0  0  0  0  0  0  0  0  0
    8.1279   -6.1355    1.7683 C   0  0  2  0  0  0  0  0  0  0  0  0
    9.1887   -6.3639    2.7317 N   0  3  0  0  0  0  0  0  0  0  0  0
    7.4556   -7.4636    1.4390 C   0  0  1  0  0  0  0  0  0  0  0  0
    6.7451   -7.9341    2.5739 O   0  0  0  0  0  0  0  0  0  0  0  0
    6.5095   -7.3791    0.2511 C   0  0  2  0  0  0  0  0  0  0  0  0
    6.0649   -8.6761   -0.1190 O   0  0  0  0  0  0  0  0  0  0  0  0
    6.2078   -6.5850   -2.0565 C   0  0  0  0  0  0  0  0  0  0  0  0
    6.7931   -5.8847   -3.1851 N   0  3  0  0  0  0  0  0  0  0  0  0
   13.1288   -4.6821   -2.3183 C   0  0  2  0  0  0  0  0  0  0  0  0
   12.2842   -5.8175   -2.8620 C   0  0  0  0  0  0  0  0  0  0  0  0
   11.4734   -6.4567   -1.7499 C   0  0  1  0  0  0  0  0  0  0  0  0
   10.5036   -5.4763   -1.0887 C   0  0  2  0  0  0  0  0  0  0  0  0
   11.2288   -4.1748   -0.6749 C   0  0  1  0  0  0  0  0  0  0  0  0
   12.2506   -3.6175   -1.6747 C   0  0  1  0  0  0  0  0  0  0  0  0
   13.8969   -4.0928   -3.3984 N   0  3  0  0  0  0  0  0  0  0  0  0
   10.7579   -7.5987   -2.2848 N   0  3  0  0  0  0  0  0  0  0  0  0
   10.2884   -3.1393   -0.2979 O   0  0  0  0  0  0  0  0  0  0  0  0
   13.0683   -2.6429   -1.0353 O   0  0  0  0  0  0  0  0  0  0  0  0
  1  2  1  0  0  0  0
  3  2  1  1  0  0  0
  3  4  1  0  0  0  0
  3  5  1  0  0  0  0
  4  8  1  0  0  0  0
  5  6  1  0  0  0  0
  5 12  1  6  0  0  0
  6  7  1  6  0  0  0
  6  8  1  0  0  0  0
  8 41  1  1  0  0  0
  9 10  1  0  0  0  0
  9 17  1  0  0  0  0
  9 19  1  6  0  0  0
 10 11  1  0  0  0  0
 11 12  1  6  0  0  0
 11 13  1  0  0  0  0
 13 14  1  6  0  0  0
 13 15  1  0  0  0  0
 15 16  1  6  0  0  0
 15 17  1  0  0  0  0
 17 18  1  6  0  0  0
 19 20  1  0  0  0  0
 21 22  1  0  0  0  0
 21 29  1  0  0  0  0
 21 31  1  6  0  0  0
 22 23  1  0  0  0  0
 23 24  1  6  0  0  0
 23 25  1  0  0  0  0
 25 26  1  1  0  0  0
 25 27  1  0  0  0  0
 27 28  1  1  0  0  0
 27 29  1  0  0  0  0
 29 30  1  6  0  0  0
 31 32  1  0  0  0  0
 33 34  1  0  0  0  0
 33 38  1  0  0  0  0
 33 39  1  6  0  0  0
 34 35  1  0  0  0  0
 35 36  1  0  0  0  0
 35 40  1  6  0  0  0
 36 24  1  1  0  0  0
 36 37  1  0  0  0  0
 37 38  1  0  0  0  0
 37 41  1  6  0  0  0
 38 42  1  1  0  0  0
M  CHG  6  14   1  20   1  26   1  32   1  39   1  40   1
M  END
>  <CHROM.1>
63.61220790,55.59837976,-89.41907133,-54.20215052,-61.21370368,-35.81594465
117.72965815,69.99325200,68.86417762,58.90271778,35.34097846,56.51157845
57.06991763,-161.12994533,164.51878639,69.67277388,-71.24107691,-158.90957911
-71.55928752,179.34519883,-88.04706795,172.83732086,9.80989282,-2.09078557
-0.58684307,-1.35677621,-0.61187600,-2.98777942

>  <Name>


>  <RI>
0

>  <Rbt.Current_Directory>
/home/itssahil/PROJECTS/Mol_Feturizer/New_Systems/rnas/1qd3

>  <Rbt.Executable>
rbdock ($Id: //depot/dev/client3/rdock/2013.1/src/exe/rbdock.cxx#4 $)

>  <Rbt.Library>
libRbt.so (2013.1, Build901 2013/11/27)

>  <Rbt.Parameter_File>
/export/apps/rDock/src/rDock_2013.1_src/data/scripts/dock_solv.prm

>  <Rbt.Receptor>
prm/pocket_docking_8.prm

>  <SCORE>
-50.0975

>  <SCORE.INTER>
-32.6691

>  <SCORE.INTER.CONST>
1

>  <SCORE.INTER.POLAR>
-5.65121

>  <SCORE.INTER.ROT>
9

>  <SCORE.INTER.SOLV>
27.7929

>  <SCORE.INTER.VDW>
-21.8063

>  <SCORE.INTER.norm>
-0.777837

>  <SCORE.INTRA>
-17.498

>  <SCORE.INTRA.DIHEDRAL>
-17.3126

>  <SCORE.INTRA.DIHEDRAL.0>
40.6252

>  <SCORE.INTRA.POLAR>
0.769776

>  <SCORE.INTRA.POLAR.0>
-1.20161

>  <SCORE.INTRA.REPUL>
-0.115675

>  <SCORE.INTRA.REPUL.0>
0.115675

>  <SCORE.INTRA.SOLV>
-12.8388

>  <SCORE.INTRA.SOLV.lig_0>
-154.895

>  <SCORE.INTRA.VDW>
-4.46118

>  <SCORE.INTRA.VDW.0>
2.2925

>  <SCORE.INTRA.norm>
-0.416619

>  <SCORE.RESTR>
0.0696711

>  <SCORE.RESTR.CAVITY>
0.0696711

>  <SCORE.RESTR.norm>
0.00165884

>  <SCORE.SYSTEM>
0

>  <SCORE.SYSTEM.CONST>
0

>  <SCORE.SYSTEM.DIHEDRAL>
0

>  <SCORE.SYSTEM.SOLV>
0

>  <SCORE.SYSTEM.norm>
0

>  <SCORE.heavy>
42

>  <SCORE.norm>
-1.1928

>  <RMSD>
8.888

$$$$

 OpenBabel11021811413D
libRbt.so/2013.1/901 2013/11/27
 42 45  0  0  0  0  0  0  0  0999 V2000
   13.4838    1.2919   -2.6029 O   0  0  0  0  0  0  0  0  0  0  0  0
   12.6677    1.2283   -1.4420 C   0  0  0  0  0  0  0  0  0  0  0  0
   11.2974    0.6540   -1.8034 C   0  0  1  0  0  0  0  0  0  0  0  0
   11.4200   -0.6381   -2.4368 O   0  0  0  0  0  0  0  0  0  0  0  0
   10.3962    0.4396   -0.5986 C   0  0  2  0  0  0  0  0  0  0  0  0
    9.3972   -0.5511   -1.1727 C   0  0  1  0  0  0  0  0  0  0  0  0
    8.4658    0.1323   -2.0041 O   0  0  0  0  0  0  0  0  0  0  0  0
   10.2972   -1.4619   -2.0325 C   0  0  2  0  0  0  0  0  0  0  0  0
   11.2455    4.8568    0.8310 C   0  0  2  0  0  0  0  0  0  0  0  0
   10.3092    3.9346    0.2528 O   0  0  0  0  0  0  0  0  0  0  0  0
   10.7019    2.5664    0.4640 C   0  0  2  0  0  0  0  0  0  0  0  0
    9.7726    1.6689   -0.1782 O   0  0  0  0  0  0  0  0  0  0  0  0
   10.7939    2.2540    1.9675 C   0  0  2  0  0  0  0  0  0  0  0  0
    9.4710    2.0858    2.5403 N   0  3  0  0  0  0  0  0  0  0  0  0
   11.5888    3.3052    2.7509 C   0  0  1  0  0  0  0  0  0  0  0  0
   12.9767    3.0994    2.5405 O   0  0  0  0  0  0  0  0  0  0  0  0
   11.2167    4.7298    2.3488 C   0  0  2  0  0  0  0  0  0  0  0  0
    9.9216    5.0512    2.8427 O   0  0  0  0  0  0  0  0  0  0  0  0
   10.9293    6.2859    0.3993 C   0  0  0  0  0  0  0  0  0  0  0  0
   11.3948    6.5209   -0.9546 N   0  3  0  0  0  0  0  0  0  0  0  0
   11.9704   -4.8181    0.8455 C   0  0  1  0  0  0  0  0  0  0  0  0
   11.1922   -5.7497    0.0653 O   0  0  0  0  0  0  0  0  0  0  0  0
    9.8177   -5.8550    0.5026 C   0  0  2  0  0  0  0  0  0  0  0  0
    9.0866   -4.6206    0.2989 O   0  0  0  0  0  0  0  0  0  0  0  0
    9.7495   -6.3027    1.9677 C   0  0  2  0  0  0  0  0  0  0  0  0
    8.3860   -6.2011    2.4538 N   0  3  0  0  0  0  0  0  0  0  0  0
   10.6623   -5.4661    2.8573 C   0  0  1  0  0  0  0  0  0  0  0  0
   10.7490   -6.0581    4.1442 O   0  0  0  0  0  0  0  0  0  0  0  0
   12.0614   -5.2922    2.2868 C   0  0  2  0  0  0  0  0  0  0  0  0
   12.7973   -4.3563    3.0609 O   0  0  0  0  0  0  0  0  0  0  0  0
   13.3911   -4.7347    0.2948 C   0  0  0  0  0  0  0  0  0  0  0  0
   13.9816   -6.0567    0.1934 N   0  3  0  0  0  0  0  0  0  0  0  0
    9.6845   -5.1568   -3.8789 C   0  0  2  0  0  0  0  0  0  0  0  0
    8.2806   -5.3276   -3.3330 C   0  0  0  0  0  0  0  0  0  0  0  0
    8.3140   -5.5028   -1.8260 C   0  0  1  0  0  0  0  0  0  0  0  0
    8.9130   -4.2944   -1.1050 C   0  0  2  0  0  0  0  0  0  0  0  0
   10.2724   -3.8975   -1.7257 C   0  0  1  0  0  0  0  0  0  0  0  0
   10.3607   -3.9425   -3.2569 C   0  0  1  0  0  0  0  0  0  0  0  0
    9.6252   -4.9972   -5.3194 N   0  3  0  0  0  0  0  0  0  0  0  0
    6.9688   -5.7638   -1.3520 N   0  3  0  0  0  0  0  0  0  0  0  0
   10.7220   -2.6084   -1.2409 O   0  0  0  0  0  0  0  0  0  0  0  0
   11.7245   -3.8921   -3.6627 O   0  0  0  0  0  0  0  0  0  0  0  0
  1  2  1  0  0  0  0
  3  2  1  1  0  0  0
  3  4  1  0  0  0  0
  3  5  1  0  0  0  0
  4  8  1  0  0  0  0
  5  6  1  0  0  0  0
  5 12  1  6  0  0  0
  6  7  1  6  0  0  0
  6  8  1  0  0  0  0
  8 41  1  1  0  0  0
  9 10  1  0  0  0  0
  9 17  1  0  0  0  0
  9 19  1  1  0  0  0
 10 11  1  0  0  0  0
 11 12  1  1  0  0  0
 11 13  1  0  0  0  0
 13 14  1  1  0  0  0
 13 15  1  0  0  0  0
 15 16  1  6  0  0  0
 15 17  1  0  0  0  0
 17 18  1  6  0  0  0
 19 20  1  0  0  0  0
 21 22  1  0  0  0  0
 21 29  1  0  0  0  0
 21 31  1  6  0  0  0
 22 23  1  0  0  0  0
 23 24  1  1  0  0  0
 23 25  1  0  0  0  0
 25 26  1  1  0  0  0
 25 27  1  0  0  0  0
 27 28  1  1  0  0  0
 27 29  1  0  0  0  0
 29 30  1  1  0  0  0
 31 32  1  0  0  0  0
 33 34  1  0  0  0  0
 33 38  1  0  0  0  0
 33 39  1  6  0  0  0
 34 35  1  0  0  0  0
 35 36  1  0  0  0  0
 35 40  1  1  0  0  0
 36 24  1  1  0  0  0
 36 37  1  0  0  0  0
 37 38  1  0  0  0  0
 37 41  1  6  0  0  0
 38 42  1  1  0  0  0
M  CHG  6  14   1  20   1  26   1  32   1  39   1  40   1
M  END
>  <CHROM.1>
54.78811030,55.99405016,-72.59209499,-178.79328311,-125.99565330,-77.78170772
150.37709698,-179.11204979,-169.85158746,-163.54374907,-179.66584810,-53.09483605
66.51908048,52.11532380,-174.86635517,-174.12230807,-175.19148784,67.46778723
-62.80219915,-40.88086376,-90.46624781,63.69502284,10.63475638,-1.49680776
-0.13664301,1.08805710,-1.37469104,-0.35103399

>  <Name>


>  <RI>
0

>  <Rbt.Current_Directory>
/home/itssahil/PROJECTS/Mol_Feturizer/New_Systems/rnas/1qd3

>  <Rbt.Executable>
rbdock ($Id: //depot/dev/client3/rdock/2013.1/src/exe/rbdock.cxx#4 $)

>  <Rbt.Library>
libRbt.so (2013.1, Build901 2013/11/27)

>  <Rbt.Parameter_File>
/export/apps/rDock/src/rDock_2013.1_src/data/scripts/dock_solv.prm

>  <Rbt.Receptor>
prm/pocket_docking_7.prm

>  <SCORE>
-44.7955

>  <SCORE.INTER>
-26.0606

>  <SCORE.INTER.CONST>
1

>  <SCORE.INTER.POLAR>
-4.43989

>  <SCORE.INTER.ROT>
9

>  <SCORE.INTER.SOLV>
25.7983

>  <SCORE.INTER.VDW>
-20.7736

>  <SCORE.INTER.norm>
-0.620491

>  <SCORE.INTRA>
-18.7349

>  <SCORE.INTRA.DIHEDRAL>
-19.1914

>  <SCORE.INTRA.DIHEDRAL.0>
40.6252

>  <SCORE.INTRA.POLAR>
1.11996

>  <SCORE.INTRA.POLAR.0>
-1.20161

>  <SCORE.INTRA.REPUL>
-0.115675

>  <SCORE.INTRA.REPUL.0>
0.115675

>  <SCORE.INTRA.SOLV>
-13.4993

>  <SCORE.INTRA.SOLV.lig_0>
-154.895

>  <SCORE.INTRA.VDW>
-5.61903

>  <SCORE.INTRA.VDW.0>
2.2925

>  <SCORE.INTRA.norm>
-0.446068

>  <SCORE.RESTR>
0

>  <SCORE.RESTR.CAVITY>
0

>  <SCORE.RESTR.norm>
0

>  <SCORE.SYSTEM>
0

>  <SCORE.SYSTEM.CONST>
0

>  <SCORE.SYSTEM.DIHEDRAL>
0

>  <SCORE.SYSTEM.SOLV>
0

>  <SCORE.SYSTEM.norm>
0

>  <SCORE.heavy>
42

>  <SCORE.norm>
-1.06656

>  <RMSD>
8.943

$$$$

 OpenBabel11021811413D
libRbt.so/2013.1/901 2013/11/27
 42 45  0  0  0  0  0  0  0  0999 V2000
   11.1448    0.8147   -1.9919 O   0  0  0  0  0  0  0  0  0  0  0  0
   10.5152    0.6103   -0.7352 C   0  0  0  0  0  0  0  0  0  0  0  0
    9.0971    0.0787   -0.9470 C   0  0  1  0  0  0  0  0  0  0  0  0
    9.0867   -1.0401   -1.8601 O   0  0  0  0  0  0  0  0  0  0  0  0
    8.4442   -0.4241    0.3298 C   0  0  2  0  0  0  0  0  0  0  0  0
    7.3467   -1.3023   -0.2474 C   0  0  1  0  0  0  0  0  0  0  0  0
    6.2767   -0.4891   -0.7162 O   0  0  0  0  0  0  0  0  0  0  0  0
    8.0577   -1.9720   -1.4410 C   0  0  2  0  0  0  0  0  0  0  0  0
   10.2460    3.4782    1.2394 C   0  0  2  0  0  0  0  0  0  0  0  0
    9.1757    2.6404    0.7767 O   0  0  0  0  0  0  0  0  0  0  0  0
    8.9624    1.5124    1.6443 C   0  0  2  0  0  0  0  0  0  0  0  0
    7.9215    0.6616    1.1205 O   0  0  0  0  0  0  0  0  0  0  0  0
    8.6050    1.9805    3.0654 C   0  0  2  0  0  0  0  0  0  0  0  0
    7.2287    2.4369    3.1263 N   0  3  0  0  0  0  0  0  0  0  0  0
    9.5534    3.0616    3.5970 C   0  0  1  0  0  0  0  0  0  0  0  0
   10.7684    2.4588    4.0135 O   0  0  0  0  0  0  0  0  0  0  0  0
    9.8476    4.1365    2.5541 C   0  0  2  0  0  0  0  0  0  0  0  0
    8.6996    4.9554    2.3637 O   0  0  0  0  0  0  0  0  0  0  0  0
   10.5985    4.5291    0.1905 C   0  0  0  0  0  0  0  0  0  0  0  0
   11.1247    3.8958   -1.0041 N   0  3  0  0  0  0  0  0  0  0  0  0
    8.1842   -6.5291    0.0122 C   0  0  1  0  0  0  0  0  0  0  0  0
    8.4803   -6.8318   -1.3672 O   0  0  0  0  0  0  0  0  0  0  0  0
    7.3358   -6.6989   -2.2412 C   0  0  2  0  0  0  0  0  0  0  0  0
    6.8794   -5.3268   -2.3343 O   0  0  0  0  0  0  0  0  0  0  0  0
    6.2023   -7.6293   -1.7926 C   0  0  2  0  0  0  0  0  0  0  0  0
    4.9947   -7.3360   -2.5418 N   0  3  0  0  0  0  0  0  0  0  0  0
    5.9135   -7.4901   -0.3020 C   0  0  1  0  0  0  0  0  0  0  0  0
    5.0344   -8.5241    0.1132 O   0  0  0  0  0  0  0  0  0  0  0  0
    7.1679   -7.5190    0.5576 C   0  0  2  0  0  0  0  0  0  0  0  0
    6.8509   -7.1982    1.9042 O   0  0  0  0  0  0  0  0  0  0  0  0
    9.4492   -6.6513    0.8569 C   0  0  0  0  0  0  0  0  0  0  0  0
    9.2683   -6.0145    2.1486 N   0  3  0  0  0  0  0  0  0  0  0  0
   10.6444   -4.3432   -4.0538 C   0  0  2  0  0  0  0  0  0  0  0  0
    9.4420   -4.4275   -4.9733 C   0  0  0  0  0  0  0  0  0  0  0  0
    8.3033   -5.1646   -4.2930 C   0  0  1  0  0  0  0  0  0  0  0  0
    7.8247   -4.4646   -3.0203 C   0  0  2  0  0  0  0  0  0  0  0  0
    9.0138   -4.1387   -2.0873 C   0  0  1  0  0  0  0  0  0  0  0  0
   10.2872   -3.6155   -2.7648 C   0  0  1  0  0  0  0  0  0  0  0  0
   11.7188   -3.6403   -4.7288 N   0  3  0  0  0  0  0  0  0  0  0  0
    7.2104   -5.3148   -5.2339 N   0  3  0  0  0  0  0  0  0  0  0  0
    8.6199   -3.2466   -1.0159 O   0  0  0  0  0  0  0  0  0  0  0  0
   11.3805   -3.6853   -1.8553 O   0  0  0  0  0  0  0  0  0  0  0  0
  1  2  1  0  0  0  0
  3  2  1  1  0  0  0
  3  4  1  0  0  0  0
  3  5  1  0  0  0  0
  4  8  1  0  0  0  0
  5  6  1  0  0  0  0
  5 12  1  6  0  0  0
  6  7  1  6  0  0  0
  6  8  1  0  0  0  0
  8 41  1  1  0  0  0
  9 10  1  0  0  0  0
  9 17  1  0  0  0  0
  9 19  1  6  0  0  0
 10 11  1  0  0  0  0
 11 12  1  6  0  0  0
 11 13  1  0  0  0  0
 13 14  1  6  0  0  0
 13 15  1  0  0  0  0
 15 16  1  6  0  0  0
 15 17  1  0  0  0  0
 17 18  1  6  0  0  0
 19 20  1  0  0  0  0
 21 22  1  0  0  0  0
 21 29  1  0  0  0  0
 21 31  1  1  0  0  0
 22 23  1  0  0  0  0
 23 24  1  1  0  0  0
 23 25  1  0  0  0  0
 25 26  1  6  0  0  0
 25 27  1  0  0  0  0
 27 28  1  1  0  0  0
 27 29  1  0  0  0  0
 29 30  1  1  0  0  0
 31 32  1  0  0  0  0
 33 34  1  0  0  0  0
 33 38  1  0  0  0  0
 33 39  1  6  0  0  0
 34 35  1  0  0  0  0
 35 36  1  0  0  0  0
 35 40  1  6  0  0  0
 36 24  1  1  0  0  0
 36 37  1  0  0  0  0
 37 38  1  0  0  0  0
 37 41  1  1  0  0  0
 38 42  1  1  0  0  0
M  CHG  6  14   1  20   1  26   1  32   1  39   1  40   1
M  END
>  <CHROM.1>
-49.96088171,49.62760385,-66.67337212,72.53615146,-78.26391590,-64.84794385
94.78367185,-67.48437311,-170.68252617,179.77570616,174.12859081,164.59767468
67.96842632,46.08147699,179.56373190,-64.00463243,150.06906992,63.65767152
179.87663498,170.36616021,-58.00181691,-61.06958360,8.63159997,-2.21628703
-0.56347598,-1.14839096,-1.04286069,-2.44309451

>  <Name>


>  <RI>
0

>  <Rbt.Current_Directory>
/home/itssahil/PROJECTS/Mol_Feturizer/New_Systems/rnas/1qd3

>  <Rbt.Executable>
rbdock ($Id: //depot/dev/client3/rdock/2013.1/src/exe/rbdock.cxx#4 $)

>  <Rbt.Library>
libRbt.so (2013.1, Build901 2013/11/27)

>  <Rbt.Parameter_File>
/export/apps/rDock/src/rDock_2013.1_src/data/scripts/dock_solv.prm

>  <Rbt.Receptor>
prm/pocket_docking_4.prm

>  <SCORE>
-55.5572

>  <SCORE.INTER>
-34.7533

>  <SCORE.INTER.CONST>
1

>  <SCORE.INTER.POLAR>
-5.39911

>  <SCORE.INTER.ROT>
9

>  <SCORE.INTER.SOLV>
36.0718

>  <SCORE.INTER.VDW>
-26.7958

>  <SCORE.INTER.norm>
-0.827459

>  <SCORE.INTRA>
-21.1744

>  <SCORE.INTRA.DIHEDRAL>
-23.3812

>  <SCORE.INTRA.DIHEDRAL.0>
40.6252

>  <SCORE.INTRA.POLAR>
0.33428

>  <SCORE.INTRA.POLAR.0>
-1.20161

>  <SCORE.INTRA.REPUL>
-0.115675

>  <SCORE.INTRA.REPUL.0>
0.115675

>  <SCORE.INTRA.SOLV>
-8.01699

>  <SCORE.INTRA.SOLV.lig_0>
-154.895

>  <SCORE.INTRA.VDW>
-6.03354

>  <SCORE.INTRA.VDW.0>
2.2925

>  <SCORE.INTRA.norm>
-0.504153

>  <SCORE.RESTR>
0.370511

>  <SCORE.RESTR.CAVITY>
0.370511

>  <SCORE.RESTR.norm>
0.0088217

>  <SCORE.SYSTEM>
0

>  <SCORE.SYSTEM.CONST>
0

>  <SCORE.SYSTEM.DIHEDRAL>
0

>  <SCORE.SYSTEM.SOLV>
0

>  <SCORE.SYSTEM.norm>
0

>  <SCORE.heavy>
42

>  <SCORE.norm>
-1.32279

>  <RMSD>
8.945

$$$$

 OpenBabel11021811413D
libRbt.so/2013.1/901 2013/11/27
 42 45  0  0  0  0  0  0  0  0999 V2000
    5.6308   -4.6526   -5.4561 O   0  0  0  0  0  0  0  0  0  0  0  0
    6.4350   -5.0867   -6.5436 C   0  0  0  0  0  0  0  0  0  0  0  0
    7.6276   -5.8869   -6.0184 C   0  0  1  0  0  0  0  0  0  0  0  0
    8.4481   -6.3778   -7.1007 O   0  0  0  0  0  0  0  0  0  0  0  0
    8.5563   -5.0740   -5.1318 C   0  0  2  0  0  0  0  0  0  0  0  0
    9.8153   -5.9222   -5.1981 C   0  0  1  0  0  0  0  0  0  0  0  0
    9.6736   -7.0599   -4.3546 O   0  0  0  0  0  0  0  0  0  0  0  0
    9.8344   -6.3642   -6.6755 C   0  0  2  0  0  0  0  0  0  0  0  0
    9.8695   -2.1416   -2.3495 C   0  0  2  0  0  0  0  0  0  0  0  0
    8.9315   -2.8526   -3.1717 O   0  0  0  0  0  0  0  0  0  0  0  0
    8.9510   -4.2674   -2.9092 C   0  0  2  0  0  0  0  0  0  0  0  0
    8.0411   -4.9576   -3.7909 O   0  0  0  0  0  0  0  0  0  0  0  0
    8.5911   -4.5521   -1.4409 C   0  0  2  0  0  0  0  0  0  0  0  0
    7.1628   -4.4125   -1.2245 N   0  3  0  0  0  0  0  0  0  0  0  0
    9.3722   -3.6788   -0.4519 C   0  0  1  0  0  0  0  0  0  0  0  0
   10.6892   -4.1877   -0.3126 O   0  0  0  0  0  0  0  0  0  0  0  0
    9.4325   -2.2187   -0.8922 C   0  0  2  0  0  0  0  0  0  0  0  0
    8.1568   -1.6097   -0.7305 O   0  0  0  0  0  0  0  0  0  0  0  0
    9.9910   -0.6899   -2.8042 C   0  0  0  0  0  0  0  0  0  0  0  0
    8.6904   -0.1647   -3.1751 N   0  3  0  0  0  0  0  0  0  0  0  0
   12.9964   -2.3880   -3.8389 C   0  0  1  0  0  0  0  0  0  0  0  0
   11.9834   -3.3708   -4.1388 O   0  0  0  0  0  0  0  0  0  0  0  0
   11.8741   -3.6686   -5.5497 C   0  0  2  0  0  0  0  0  0  0  0  0
   13.0667   -4.3117   -6.0634 O   0  0  0  0  0  0  0  0  0  0  0  0
   11.5435   -2.4002   -6.3457 C   0  0  2  0  0  0  0  0  0  0  0  0
   11.6445   -2.6677   -7.7684 N   0  3  0  0  0  0  0  0  0  0  0  0
   12.4745   -1.2480   -5.9851 C   0  0  1  0  0  0  0  0  0  0  0  0
   11.9903   -0.0443   -6.5602 O   0  0  0  0  0  0  0  0  0  0  0  0
   12.6422   -1.0587   -4.4853 C   0  0  2  0  0  0  0  0  0  0  0  0
   13.6578   -0.1026   -4.2190 O   0  0  0  0  0  0  0  0  0  0  0  0
   13.0762   -2.1633   -2.3316 C   0  0  0  0  0  0  0  0  0  0  0  0
   13.3600   -3.4078   -1.6406 N   0  3  0  0  0  0  0  0  0  0  0  0
   13.4354   -7.7898   -8.4855 C   0  0  2  0  0  0  0  0  0  0  0  0
   14.0906   -7.8015   -7.1185 C   0  0  0  0  0  0  0  0  0  0  0  0
   14.2113   -6.3899   -6.5748 C   0  0  1  0  0  0  0  0  0  0  0  0
   12.8538   -5.7086   -6.3964 C   0  0  2  0  0  0  0  0  0  0  0  0
   12.0053   -5.8198   -7.6843 C   0  0  1  0  0  0  0  0  0  0  0  0
   12.0465   -7.1699   -8.4122 C   0  0  1  0  0  0  0  0  0  0  0  0
   13.3373   -9.1482   -8.9844 N   0  3  0  0  0  0  0  0  0  0  0  0
   14.9309   -6.4294   -5.3166 N   0  3  0  0  0  0  0  0  0  0  0  0
   10.6313   -5.4238   -7.4515 O   0  0  0  0  0  0  0  0  0  0  0  0
   11.5151   -7.0259   -9.7252 O   0  0  0  0  0  0  0  0  0  0  0  0
  1  2  1  0  0  0  0
  3  2  1  6  0  0  0
  3  4  1  0  0  0  0
  3  5  1  0  0  0  0
  4  8  1  0  0  0  0
  5  6  1  0  0  0  0
  5 12  1  1  0  0  0
  6  7  1  1  0  0  0
  6  8  1  0  0  0  0
  8 41  1  6  0  0  0
  9 10  1  0  0  0  0
  9 17  1  0  0  0  0
  9 19  1  6  0  0  0
 10 11  1  0  0  0  0
 11 12  1  6  0  0  0
 11 13  1  0  0  0  0
 13 14  1  6  0  0  0
 13 15  1  0  0  0  0
 15 16  1  6  0  0  0
 15 17  1  0  0  0  0
 17 18  1  6  0  0  0
 19 20  1  0  0  0  0
 21 22  1  0  0  0  0
 21 29  1  0  0  0  0
 21 31  1  1  0  0  0
 22 23  1  0  0  0  0
 23 24  1  6  0  0  0
 23 25  1  0  0  0  0
 25 26  1  6  0  0  0
 25 27  1  0  0  0  0
 27 28  1  1  0  0  0
 27 29  1  0  0  0  0
 29 30  1  6  0  0  0
 31 32  1  0  0  0  0
 33 34  1  0  0  0  0
 33 38  1  0  0  0  0
 33 39  1  1  0  0  0
 34 35  1  0  0  0  0
 35 36  1  0  0  0  0
 35 40  1  1  0  0  0
 36 24  1  6  0  0  0
 36 37  1  0  0  0  0
 37 38  1  0  0  0  0
 37 41  1  1  0  0  0
 38 42  1  6  0  0  0
M  CHG  6  14   1  20   1  26   1  32   1  39   1  40   1
M  END
>  <CHROM.1>
43.50495056,178.35420811,176.03648536,-64.78272137,-146.26319930,39.58450892
75.33309246,-76.52450008,-54.31681036,-83.07849571,-67.21935060,57.74181997
109.67181381,-165.39998315,159.54404562,-61.21275337,-167.13267996,-89.69623513
60.86117024,-66.35686998,-72.41195669,178.00815661,10.77150490,-4.21205273
-4.86100231,1.99350683,0.36057421,0.75602986

>  <Name>


>  <RI>
0

>  <Rbt.Current_Directory>
/home/itssahil/PROJECTS/Mol_Feturizer/New_Systems/rnas/1qd3

>  <Rbt.Executable>
rbdock ($Id: //depot/dev/client3/rdock/2013.1/src/exe/rbdock.cxx#4 $)

>  <Rbt.Library>
libRbt.so (2013.1, Build901 2013/11/27)

>  <Rbt.Parameter_File>
/export/apps/rDock/src/rDock_2013.1_src/data/scripts/dock_solv.prm

>  <Rbt.Receptor>
prm/pocket_docking_7.prm

>  <SCORE>
-55.2414

>  <SCORE.INTER>
-27.3649

>  <SCORE.INTER.CONST>
1

>  <SCORE.INTER.POLAR>
-5.62286

>  <SCORE.INTER.ROT>
9

>  <SCORE.INTER.SOLV>
28.5464

>  <SCORE.INTER.VDW>
-18.6159

>  <SCORE.INTER.norm>
-0.651546

>  <SCORE.INTRA>
-27.8764

>  <SCORE.INTRA.DIHEDRAL>
-13.9364

>  <SCORE.INTRA.DIHEDRAL.0>
40.6252

>  <SCORE.INTRA.POLAR>
-2.16496

>  <SCORE.INTRA.POLAR.0>
-1.20161

>  <SCORE.INTRA.REPUL>
-0.115675

>  <SCORE.INTRA.REPUL.0>
0.115675

>  <SCORE.INTRA.SOLV>
-4.85609

>  <SCORE.INTRA.SOLV.lig_0>
-154.895

>  <SCORE.INTRA.VDW>
-10.541

>  <SCORE.INTRA.VDW.0>
2.2925

>  <SCORE.INTRA.norm>
-0.663725

>  <SCORE.RESTR>
0

>  <SCORE.RESTR.CAVITY>
0

>  <SCORE.RESTR.norm>
0

>  <SCORE.SYSTEM>
0

>  <SCORE.SYSTEM.CONST>
0

>  <SCORE.SYSTEM.DIHEDRAL>
0

>  <SCORE.SYSTEM.SOLV>
0

>  <SCORE.SYSTEM.norm>
0

>  <SCORE.heavy>
42

>  <SCORE.norm>
-1.31527

>  <RMSD>
8.946

$$$$

 OpenBabel11021811413D
libRbt.so/2013.1/901 2013/11/27
 42 45  0  0  0  0  0  0  0  0999 V2000
    7.1186   -7.8443   -4.3182 O   0  0  0  0  0  0  0  0  0  0  0  0
    8.0056   -8.8056   -3.7642 C   0  0  0  0  0  0  0  0  0  0  0  0
    9.2238   -8.1015   -3.1654 C   0  0  1  0  0  0  0  0  0  0  0  0
    9.8322   -7.2032   -4.1186 O   0  0  0  0  0  0  0  0  0  0  0  0
    8.8925   -7.2514   -1.9501 C   0  0  2  0  0  0  0  0  0  0  0  0
   10.1068   -6.3389   -1.9108 C   0  0  1  0  0  0  0  0  0  0  0  0
   11.2196   -7.0423   -1.3696 O   0  0  0  0  0  0  0  0  0  0  0  0
   10.3469   -6.0496   -3.4065 C   0  0  2  0  0  0  0  0  0  0  0  0
    6.6141  -10.8978    0.0299 C   0  0  2  0  0  0  0  0  0  0  0  0
    7.7604  -10.0337    0.0605 O   0  0  0  0  0  0  0  0  0  0  0  0
    7.5790   -8.8705   -0.7670 C   0  0  2  0  0  0  0  0  0  0  0  0
    8.7688   -8.0545   -0.7598 O   0  0  0  0  0  0  0  0  0  0  0  0
    6.3664   -8.0510   -0.2933 C   0  0  2  0  0  0  0  0  0  0  0  0
    6.6914   -7.2947    0.9021 N   0  3  0  0  0  0  0  0  0  0  0  0
    5.1161   -8.9082   -0.0632 C   0  0  1  0  0  0  0  0  0  0  0  0
    4.5210   -9.2179   -1.3133 O   0  0  0  0  0  0  0  0  0  0  0  0
    5.4304  -10.1996    0.6871 C   0  0  2  0  0  0  0  0  0  0  0  0
    5.7263   -9.9105    2.0484 O   0  0  0  0  0  0  0  0  0  0  0  0
    6.9193  -12.2210    0.7261 C   0  0  0  0  0  0  0  0  0  0  0  0
    5.8310  -13.1600    0.5291 N   0  3  0  0  0  0  0  0  0  0  0  0
   13.8619   -4.3975   -6.7216 C   0  0  1  0  0  0  0  0  0  0  0  0
   12.6003   -4.9880   -6.3452 O   0  0  0  0  0  0  0  0  0  0  0  0
   12.5336   -5.3542   -4.9477 C   0  0  2  0  0  0  0  0  0  0  0  0
   12.5849   -4.1954   -4.0792 O   0  0  0  0  0  0  0  0  0  0  0  0
   13.6405   -6.3564   -4.5982 C   0  0  2  0  0  0  0  0  0  0  0  0
   13.6957   -6.5525   -3.1615 N   0  3  0  0  0  0  0  0  0  0  0  0
   15.0043   -5.8873   -5.0926 C   0  0  1  0  0  0  0  0  0  0  0  0
   15.9481   -6.9391   -4.9612 O   0  0  0  0  0  0  0  0  0  0  0  0
   14.9860   -5.4033   -6.5344 C   0  0  2  0  0  0  0  0  0  0  0  0
   16.2311   -4.8093   -6.8714 O   0  0  0  0  0  0  0  0  0  0  0  0
   13.8346   -4.0025   -8.1954 C   0  0  0  0  0  0  0  0  0  0  0  0
   15.0248   -3.2504   -8.5482 N   0  3  0  0  0  0  0  0  0  0  0  0
    9.8689   -1.0969   -3.0198 C   0  0  2  0  0  0  0  0  0  0  0  0
   10.8829   -0.8127   -4.1103 C   0  0  0  0  0  0  0  0  0  0  0  0
   11.9993   -1.8400   -4.0789 C   0  0  1  0  0  0  0  0  0  0  0  0
   11.4968   -3.2645   -4.3180 C   0  0  2  0  0  0  0  0  0  0  0  0
   10.3069   -3.5951   -3.3876 C   0  0  1  0  0  0  0  0  0  0  0  0
    9.2662   -2.4845   -3.1926 C   0  0  1  0  0  0  0  0  0  0  0  0
    8.8172   -0.0991   -3.0679 N   0  3  0  0  0  0  0  0  0  0  0  0
   12.9990   -1.4799   -5.0654 N   0  3  0  0  0  0  0  0  0  0  0  0
    9.6511   -4.8258   -3.7802 O   0  0  0  0  0  0  0  0  0  0  0  0
    8.4381   -2.7908   -2.0756 O   0  0  0  0  0  0  0  0  0  0  0  0
  1  2  1  0  0  0  0
  3  2  1  6  0  0  0
  3  4  1  0  0  0  0
  3  5  1  0  0  0  0
  4  8  1  0  0  0  0
  5  6  1  0  0  0  0
  5 12  1  1  0  0  0
  6  7  1  6  0  0  0
  6  8  1  0  0  0  0
  8 41  1  6  0  0  0
  9 10  1  0  0  0  0
  9 17  1  0  0  0  0
  9 19  1  1  0  0  0
 10 11  1  0  0  0  0
 11 12  1  1  0  0  0
 11 13  1  0  0  0  0
 13 14  1  1  0  0  0
 13 15  1  0  0  0  0
 15 16  1  6  0  0  0
 15 17  1  0  0  0  0
 17 18  1  1  0  0  0
 19 20  1  0  0  0  0
 21 22  1  0  0  0  0
 21 29  1  0  0  0  0
 21 31  1  6  0  0  0
 22 23  1  0  0  0  0
 23 24  1  1  0  0  0
 23 25  1  0  0  0  0
 25 26  1  1  0  0  0
 25 27  1  0  0  0  0
 27 28  1  6  0  0  0
 27 29  1  0  0  0  0
 29 30  1  1  0  0  0
 31 32  1  0  0  0  0
 33 34  1  0  0  0  0
 33 38  1  0  0  0  0
 33 39  1  6  0  0  0
 34 35  1  0  0  0  0
 35 36  1  0  0  0  0
 35 40  1  6  0  0  0
 36 24  1  1  0  0  0
 36 37  1  0  0  0  0
 37 38  1  0  0  0  0
 37 41  1  6  0  0  0
 38 42  1  1  0  0  0
M  CHG  6  14   1  20   1  26   1  32   1  39   1  40   1
M  END
>  <CHROM.1>
-59.91271265,-52.10887915,-70.92748597,-65.56824884,-164.98213391,-171.90568347
154.41913122,-147.41454763,-154.10254627,53.73447328,-164.66564912,172.51675100
59.62426409,-146.17482318,-45.66097218,-63.46476217,175.93295693,168.60633128
-94.84911226,54.48187037,76.88987857,-62.88624973,10.14181495,-6.19667064
-3.04040246,-2.45412855,0.57383627,-0.16587774

>  <Name>


>  <RI>
0

>  <Rbt.Current_Directory>
/home/itssahil/PROJECTS/Mol_Feturizer/New_Systems/rnas/1qd3

>  <Rbt.Executable>
rbdock ($Id: //depot/dev/client3/rdock/2013.1/src/exe/rbdock.cxx#4 $)

>  <Rbt.Library>
libRbt.so (2013.1, Build901 2013/11/27)

>  <Rbt.Parameter_File>
/export/apps/rDock/src/rDock_2013.1_src/data/scripts/dock_solv.prm

>  <Rbt.Receptor>
prm/pocket_docking_8.prm

>  <SCORE>
-39.8174

>  <SCORE.INTER>
-16.7874

>  <SCORE.INTER.CONST>
1

>  <SCORE.INTER.POLAR>
-4.33875

>  <SCORE.INTER.ROT>
9

>  <SCORE.INTER.SOLV>
21.1245

>  <SCORE.INTER.VDW>
-13.3706

>  <SCORE.INTER.norm>
-0.399701

>  <SCORE.INTRA>
-23.0899

>  <SCORE.INTRA.DIHEDRAL>
-19.7501

>  <SCORE.INTRA.DIHEDRAL.0>
40.6252

>  <SCORE.INTRA.POLAR>
-0.641299

>  <SCORE.INTRA.POLAR.0>
-1.20161

>  <SCORE.INTRA.REPUL>
-0.115675

>  <SCORE.INTRA.REPUL.0>
0.115675

>  <SCORE.INTRA.SOLV>
-6.86249

>  <SCORE.INTRA.SOLV.lig_0>
-154.895

>  <SCORE.INTRA.VDW>
-7.02483

>  <SCORE.INTRA.VDW.0>
2.2925

>  <SCORE.INTRA.norm>
-0.549759

>  <SCORE.RESTR>
0.0599698

>  <SCORE.RESTR.CAVITY>
0.0599698

>  <SCORE.RESTR.norm>
0.00142785

>  <SCORE.SYSTEM>
0

>  <SCORE.SYSTEM.CONST>
0

>  <SCORE.SYSTEM.DIHEDRAL>
0

>  <SCORE.SYSTEM.SOLV>
0

>  <SCORE.SYSTEM.norm>
0

>  <SCORE.heavy>
42

>  <SCORE.norm>
-0.948032

>  <RMSD>
8.966

$$$$

 OpenBabel11021811413D
libRbt.so/2013.1/901 2013/11/27
 42 45  0  0  0  0  0  0  0  0999 V2000
   12.1059   -4.5604    0.5661 O   0  0  0  0  0  0  0  0  0  0  0  0
   11.1275   -4.0219   -0.3117 C   0  0  0  0  0  0  0  0  0  0  0  0
   11.7686   -3.6891   -1.6596 C   0  0  1  0  0  0  0  0  0  0  0  0
   11.8494   -4.8571   -2.5052 O   0  0  0  0  0  0  0  0  0  0  0  0
   10.9929   -2.6543   -2.4576 C   0  0  2  0  0  0  0  0  0  0  0  0
   11.5425   -2.9098   -3.8509 C   0  0  1  0  0  0  0  0  0  0  0  0
   12.8370   -2.3304   -3.9710 O   0  0  0  0  0  0  0  0  0  0  0  0
   11.6518   -4.4479   -3.8823 C   0  0  2  0  0  0  0  0  0  0  0  0
    9.7325    0.7974    0.5607 C   0  0  2  0  0  0  0  0  0  0  0  0
   10.7160    0.3108   -0.3652 O   0  0  0  0  0  0  0  0  0  0  0  0
   10.2340   -0.8168   -1.1182 C   0  0  2  0  0  0  0  0  0  0  0  0
   11.2646   -1.3165   -1.9956 O   0  0  0  0  0  0  0  0  0  0  0  0
    8.9828   -0.4344   -1.9274 C   0  0  2  0  0  0  0  0  0  0  0  0
    9.3447    0.3425   -3.0987 N   0  3  0  0  0  0  0  0  0  0  0  0
    7.9331    0.3091   -1.0931 C   0  0  1  0  0  0  0  0  0  0  0  0
    7.2271   -0.6209   -0.2872 O   0  0  0  0  0  0  0  0  0  0  0  0
    8.5549    1.3848   -0.2066 C   0  0  2  0  0  0  0  0  0  0  0  0
    8.9876    2.4809   -1.0041 O   0  0  0  0  0  0  0  0  0  0  0  0
   10.3431    1.8361    1.4974 C   0  0  0  0  0  0  0  0  0  0  0  0
    9.3547    2.2996    2.4530 N   0  3  0  0  0  0  0  0  0  0  0  0
    6.1757   -6.4831   -3.6886 C   0  0  1  0  0  0  0  0  0  0  0  0
    7.3438   -5.6619   -3.4806 O   0  0  0  0  0  0  0  0  0  0  0  0
    8.3913   -6.3323   -2.7425 C   0  0  2  0  0  0  0  0  0  0  0  0
    8.9465   -7.4492   -3.4802 O   0  0  0  0  0  0  0  0  0  0  0  0
    7.8828   -6.7771   -1.3659 C   0  0  2  0  0  0  0  0  0  0  0  0
    8.8686   -7.6270   -0.7244 N   0  3  0  0  0  0  0  0  0  0  0  0
    6.5617   -7.5313   -1.4681 C   0  0  1  0  0  0  0  0  0  0  0  0
    6.0141   -7.7141   -0.1716 O   0  0  0  0  0  0  0  0  0  0  0  0
    5.5399   -6.8347   -2.3535 C   0  0  2  0  0  0  0  0  0  0  0  0
    4.4114   -7.6722   -2.5580 O   0  0  0  0  0  0  0  0  0  0  0  0
    5.1396   -5.7194   -4.5082 C   0  0  0  0  0  0  0  0  0  0  0  0
    4.6459   -4.5707   -3.7710 N   0  3  0  0  0  0  0  0  0  0  0  0
   11.1549   -7.6345   -7.1117 C   0  0  2  0  0  0  0  0  0  0  0  0
    9.7492   -8.2021   -7.1036 C   0  0  0  0  0  0  0  0  0  0  0  0
    9.2730   -8.4220   -5.6796 C   0  0  1  0  0  0  0  0  0  0  0  0
    9.2196   -7.1263   -4.8690 C   0  0  2  0  0  0  0  0  0  0  0  0
   10.5526   -6.3503   -4.9773 C   0  0  1  0  0  0  0  0  0  0  0  0
   11.2050   -6.3082   -6.3655 C   0  0  1  0  0  0  0  0  0  0  0  0
   11.5878   -7.4394   -8.4823 N   0  3  0  0  0  0  0  0  0  0  0  0
    7.9702   -9.0576   -5.7112 N   0  3  0  0  0  0  0  0  0  0  0  0
   10.4311   -5.0082   -4.4456 O   0  0  0  0  0  0  0  0  0  0  0  0
   12.5556   -5.8728   -6.2502 O   0  0  0  0  0  0  0  0  0  0  0  0
  1  2  1  0  0  0  0
  3  2  1  1  0  0  0
  3  4  1  0  0  0  0
  3  5  1  0  0  0  0
  4  8  1  0  0  0  0
  5  6  1  0  0  0  0
  5 12  1  1  0  0  0
  6  7  1  1  0  0  0
  6  8  1  0  0  0  0
  8 41  1  1  0  0  0
  9 10  1  0  0  0  0
  9 17  1  0  0  0  0
  9 19  1  1  0  0  0
 10 11  1  0  0  0  0
 11 12  1  6  0  0  0
 11 13  1  0  0  0  0
 13 14  1  6  0  0  0
 13 15  1  0  0  0  0
 15 16  1  1  0  0  0
 15 17  1  0  0  0  0
 17 18  1  6  0  0  0
 19 20  1  0  0  0  0
 21 22  1  0  0  0  0
 21 29  1  0  0  0  0
 21 31  1  6  0  0  0
 22 23  1  0  0  0  0
 23 24  1  6  0  0  0
 23 25  1  0  0  0  0
 25 26  1  6  0  0  0
 25 27  1  0  0  0  0
 27 28  1  1  0  0  0
 27 29  1  0  0  0  0
 29 30  1  6  0  0  0
 31 32  1  0  0  0  0
 33 34  1  0  0  0  0
 33 38  1  0  0  0  0
 33 39  1  6  0  0  0
 34 35  1  0  0  0  0
 35 36  1  0  0  0  0
 35 40  1  6  0  0  0
 36 24  1  1  0  0  0
 36 37  1  0  0  0  0
 37 38  1  0  0  0  0
 37 41  1  6  0  0  0
 38 42  1  1  0  0  0
M  CHG  6  14   1  20   1  26   1  32   1  39   1  40   1
M  END
>  <CHROM.1>
68.29334360,83.03278716,-99.43228452,-44.21956548,-84.25680659,-178.54388242
162.26262738,109.41601912,-66.51891145,70.54788389,-71.56280125,-65.12774922
45.35741040,-158.34280766,-179.62745461,-76.99764637,-173.90139542,85.52608099
61.69143096,99.01112664,150.46248582,62.09736677,9.27963949,-4.14107710,-2.74175765
-1.45888348,-0.50018014,-2.55669410

>  <Name>


>  <RI>
0

>  <Rbt.Current_Directory>
/home/itssahil/PROJECTS/Mol_Feturizer/New_Systems/rnas/1qd3

>  <Rbt.Executable>
rbdock ($Id: //depot/dev/client3/rdock/2013.1/src/exe/rbdock.cxx#4 $)

>  <Rbt.Library>
libRbt.so (2013.1, Build901 2013/11/27)

>  <Rbt.Parameter_File>
/export/apps/rDock/src/rDock_2013.1_src/data/scripts/dock_solv.prm

>  <Rbt.Receptor>
prm/pocket_docking_3.prm

>  <SCORE>
-45.4432

>  <SCORE.INTER>
-28.7363

>  <SCORE.INTER.CONST>
1

>  <SCORE.INTER.POLAR>
-5.89778

>  <SCORE.INTER.ROT>
9

>  <SCORE.INTER.SOLV>
34.1497

>  <SCORE.INTER.VDW>
-20.4815

>  <SCORE.INTER.norm>
-0.684197

>  <SCORE.INTRA>
-16.8293

>  <SCORE.INTRA.DIHEDRAL>
-12.3015

>  <SCORE.INTRA.DIHEDRAL.0>
40.6252

>  <SCORE.INTRA.POLAR>
1.08545

>  <SCORE.INTRA.POLAR.0>
-1.20161

>  <SCORE.INTRA.REPUL>
-0.115675

>  <SCORE.INTRA.REPUL.0>
0.115675

>  <SCORE.INTRA.SOLV>
-11.5132

>  <SCORE.INTRA.SOLV.lig_0>
-154.895

>  <SCORE.INTRA.VDW>
-8.03409

>  <SCORE.INTRA.VDW.0>
2.2925

>  <SCORE.INTRA.norm>
-0.400698

>  <SCORE.RESTR>
0.122392

>  <SCORE.RESTR.CAVITY>
0.122392

>  <SCORE.RESTR.norm>
0.00291408

>  <SCORE.SYSTEM>
0

>  <SCORE.SYSTEM.CONST>
0

>  <SCORE.SYSTEM.DIHEDRAL>
0

>  <SCORE.SYSTEM.SOLV>
0

>  <SCORE.SYSTEM.norm>
0

>  <SCORE.heavy>
42

>  <SCORE.norm>
-1.08198

>  <RMSD>
8.980

$$$$

 OpenBabel11021811413D
libRbt.so/2013.1/901 2013/11/27
 42 45  0  0  0  0  0  0  0  0999 V2000
   12.6672   -0.9860   -1.9483 O   0  0  0  0  0  0  0  0  0  0  0  0
   12.1368   -0.6408   -3.2200 C   0  0  0  0  0  0  0  0  0  0  0  0
   10.6409   -0.9557   -3.2598 C   0  0  1  0  0  0  0  0  0  0  0  0
   10.4057   -2.3786   -3.3347 O   0  0  0  0  0  0  0  0  0  0  0  0
    9.8906   -0.4772   -2.0279 C   0  0  2  0  0  0  0  0  0  0  0  0
    8.6392   -1.3347   -2.1152 C   0  0  1  0  0  0  0  0  0  0  0  0
    7.7627   -0.8070   -3.1047 O   0  0  0  0  0  0  0  0  0  0  0  0
    9.2042   -2.6907   -2.5850 C   0  0  2  0  0  0  0  0  0  0  0  0
    8.0641    0.8044    1.2137 C   0  0  2  0  0  0  0  0  0  0  0  0
    8.8290    0.3877    0.0723 O   0  0  0  0  0  0  0  0  0  0  0  0
    8.8726    1.4039   -0.9457 C   0  0  2  0  0  0  0  0  0  0  0  0
    9.5982    0.9322   -2.1001 O   0  0  0  0  0  0  0  0  0  0  0  0
    9.5147    2.6912   -0.4006 C   0  0  2  0  0  0  0  0  0  0  0  0
   10.9566    2.5505   -0.3138 N   0  3  0  0  0  0  0  0  0  0  0  0
    8.9351    3.1247    0.9510 C   0  0  1  0  0  0  0  0  0  0  0  0
    7.6748    3.7433    0.7463 O   0  0  0  0  0  0  0  0  0  0  0  0
    8.7781    1.9524    1.9158 C   0  0  2  0  0  0  0  0  0  0  0  0
   10.0559    1.5269    2.3748 O   0  0  0  0  0  0  0  0  0  0  0  0
    7.8445   -0.3646    2.1698 C   0  0  0  0  0  0  0  0  0  0  0  0
    7.0419   -1.3936    1.5358 N   0  3  0  0  0  0  0  0  0  0  0  0
    7.0552   -6.1291   -5.3099 C   0  0  1  0  0  0  0  0  0  0  0  0
    7.4175   -4.9429   -4.5724 O   0  0  0  0  0  0  0  0  0  0  0  0
    7.6107   -5.1835   -3.1596 C   0  0  2  0  0  0  0  0  0  0  0  0
    8.7481   -6.0447   -2.9055 O   0  0  0  0  0  0  0  0  0  0  0  0
    6.3342   -5.7530   -2.5288 C   0  0  2  0  0  0  0  0  0  0  0  0
    6.6033   -6.1851   -1.1699 N   0  3  0  0  0  0  0  0  0  0  0  0
    5.7846   -6.9288   -3.3289 C   0  0  1  0  0  0  0  0  0  0  0  0
    4.4919   -7.2688   -2.8520 O   0  0  0  0  0  0  0  0  0  0  0  0
    5.7155   -6.6574   -4.8238 C   0  0  2  0  0  0  0  0  0  0  0  0
    5.3774   -7.8446   -5.5258 O   0  0  0  0  0  0  0  0  0  0  0  0
    6.9124   -5.7988   -6.7929 C   0  0  0  0  0  0  0  0  0  0  0  0
    5.7730   -4.9283   -7.0183 N   0  3  0  0  0  0  0  0  0  0  0  0
   12.8236   -5.2975   -1.9403 C   0  0  2  0  0  0  0  0  0  0  0  0
   12.4978   -5.7554   -3.3483 C   0  0  0  0  0  0  0  0  0  0  0  0
   11.1034   -6.3516   -3.4041 C   0  0  1  0  0  0  0  0  0  0  0  0
   10.0170   -5.3481   -3.0148 C   0  0  2  0  0  0  0  0  0  0  0  0
   10.3563   -4.6575   -1.6736 C   0  0  1  0  0  0  0  0  0  0  0  0
   11.8219   -4.2523   -1.4682 C   0  0  1  0  0  0  0  0  0  0  0  0
   14.1615   -4.7379   -1.9131 N   0  3  0  0  0  0  0  0  0  0  0  0
   10.8652   -6.8691   -4.7374 N   0  3  0  0  0  0  0  0  0  0  0  0
    9.4890   -3.5241   -1.4249 O   0  0  0  0  0  0  0  0  0  0  0  0
   12.0513   -3.9532   -0.0952 O   0  0  0  0  0  0  0  0  0  0  0  0
  1  2  1  0  0  0  0
  3  2  1  1  0  0  0
  3  4  1  0  0  0  0
  3  5  1  0  0  0  0
  4  8  1  0  0  0  0
  5  6  1  0  0  0  0
  5 12  1  6  0  0  0
  6  7  1  6  0  0  0
  6  8  1  0  0  0  0
  8 41  1  1  0  0  0
  9 10  1  0  0  0  0
  9 17  1  0  0  0  0
  9 19  1  1  0  0  0
 10 11  1  0  0  0  0
 11 12  1  6  0  0  0
 11 13  1  0  0  0  0
 13 14  1  1  0  0  0
 13 15  1  0  0  0  0
 15 16  1  6  0  0  0
 15 17  1  0  0  0  0
 17 18  1  6  0  0  0
 19 20  1  0  0  0  0
 21 22  1  0  0  0  0
 21 29  1  0  0  0  0
 21 31  1  6  0  0  0
 22 23  1  0  0  0  0
 23 24  1  6  0  0  0
 23 25  1  0  0  0  0
 25 26  1  1  0  0  0
 25 27  1  0  0  0  0
 27 28  1  1  0  0  0
 27 29  1  0  0  0  0
 29 30  1  6  0  0  0
 31 32  1  0  0  0  0
 33 34  1  0  0  0  0
 33 38  1  0  0  0  0
 33 39  1  6  0  0  0
 34 35  1  0  0  0  0
 35 36  1  0  0  0  0
 35 40  1  6  0  0  0
 36 24  1  1  0  0  0
 36 37  1  0  0  0  0
 37 38  1  0  0  0  0
 37 41  1  6  0  0  0
 38 42  1  1  0  0  0
M  CHG  6  14   1  20   1  26   1  32   1  39   1  40   1
M  END
>  <CHROM.1>
63.63925113,-73.06937605,179.36540213,62.33218529,-46.61881846,-64.21068906
9.59550359,-60.05627914,60.46470423,-166.45651768,176.19340464,-67.39376875
77.69977126,-153.02429206,-155.05525520,-80.05819661,-175.23866268,-56.38643695
-65.20146135,66.53697029,-40.92134942,-57.99650558,9.05106681,-2.80344602
-2.07255358,-1.35717708,0.05545590,-2.62041148

>  <Name>


>  <RI>
0

>  <Rbt.Current_Directory>
/home/itssahil/PROJECTS/Mol_Feturizer/New_Systems/rnas/1qd3

>  <Rbt.Executable>
rbdock ($Id: //depot/dev/client3/rdock/2013.1/src/exe/rbdock.cxx#4 $)

>  <Rbt.Library>
libRbt.so (2013.1, Build901 2013/11/27)

>  <Rbt.Parameter_File>
/export/apps/rDock/src/rDock_2013.1_src/data/scripts/dock_solv.prm

>  <Rbt.Receptor>
prm/pocket_docking_4.prm

>  <SCORE>
-48.9991

>  <SCORE.INTER>
-31.8816

>  <SCORE.INTER.CONST>
1

>  <SCORE.INTER.POLAR>
-5.40621

>  <SCORE.INTER.ROT>
9

>  <SCORE.INTER.SOLV>
37.4336

>  <SCORE.INTER.VDW>
-25.3115

>  <SCORE.INTER.norm>
-0.759086

>  <SCORE.INTRA>
-17.1175

>  <SCORE.INTRA.DIHEDRAL>
-20.1383

>  <SCORE.INTRA.DIHEDRAL.0>
40.6252

>  <SCORE.INTRA.POLAR>
1.07211

>  <SCORE.INTRA.POLAR.0>
-1.20161

>  <SCORE.INTRA.REPUL>
-0.0917056

>  <SCORE.INTRA.REPUL.0>
0.115675

>  <SCORE.INTRA.SOLV>
-9.10229

>  <SCORE.INTRA.SOLV.lig_0>
-154.895

>  <SCORE.INTRA.VDW>
-5.68388

>  <SCORE.INTRA.VDW.0>
2.2925

>  <SCORE.INTRA.norm>
-0.40756

>  <SCORE.RESTR>
0

>  <SCORE.RESTR.CAVITY>
0

>  <SCORE.RESTR.norm>
0

>  <SCORE.SYSTEM>
0

>  <SCORE.SYSTEM.CONST>
0

>  <SCORE.SYSTEM.DIHEDRAL>
0

>  <SCORE.SYSTEM.SOLV>
0

>  <SCORE.SYSTEM.norm>
0

>  <SCORE.heavy>
42

>  <SCORE.norm>
-1.16665

>  <RMSD>
8.994

$$$$

 OpenBabel11021811413D
libRbt.so/2013.1/901 2013/11/27
 42 45  0  0  0  0  0  0  0  0999 V2000
   10.7370   -4.4063   -7.9663 O   0  0  0  0  0  0  0  0  0  0  0  0
   11.8209   -3.5449   -7.6486 C   0  0  0  0  0  0  0  0  0  0  0  0
   11.9714   -3.4407   -6.1304 C   0  0  1  0  0  0  0  0  0  0  0  0
   10.8036   -2.8426   -5.5269 O   0  0  0  0  0  0  0  0  0  0  0  0
   12.1457   -4.7870   -5.4475 C   0  0  2  0  0  0  0  0  0  0  0  0
   11.7652   -4.4257   -4.0215 C   0  0  1  0  0  0  0  0  0  0  0  0
   12.8434   -3.7392   -3.3954 O   0  0  0  0  0  0  0  0  0  0  0  0
   10.5816   -3.4598   -4.2336 C   0  0  2  0  0  0  0  0  0  0  0  0
   12.9946   -8.8591   -5.1587 C   0  0  2  0  0  0  0  0  0  0  0  0
   12.8965   -7.5445   -5.7275 O   0  0  0  0  0  0  0  0  0  0  0  0
   13.6689   -6.5804   -4.9895 C   0  0  2  0  0  0  0  0  0  0  0  0
   13.5023   -5.2621   -5.5516 O   0  0  0  0  0  0  0  0  0  0  0  0
   15.1566   -6.9715   -4.9769 C   0  0  2  0  0  0  0  0  0  0  0  0
   15.7794   -6.6687   -6.2524 N   0  3  0  0  0  0  0  0  0  0  0  0
   15.3874   -8.4401   -4.6017 C   0  0  1  0  0  0  0  0  0  0  0  0
   15.2514   -8.5945   -3.1979 O   0  0  0  0  0  0  0  0  0  0  0  0
   14.4181   -9.3786   -5.3152 C   0  0  2  0  0  0  0  0  0  0  0  0
   14.7572   -9.4702   -6.6940 O   0  0  0  0  0  0  0  0  0  0  0  0
   11.9952   -9.8060   -5.8171 C   0  0  0  0  0  0  0  0  0  0  0  0
   10.6435   -9.3015   -5.6648 N   0  3  0  0  0  0  0  0  0  0  0  0
    5.4367   -7.3856   -4.5836 C   0  0  1  0  0  0  0  0  0  0  0  0
    6.8444   -7.0755   -4.5195 O   0  0  0  0  0  0  0  0  0  0  0  0
    7.2876   -6.2022   -5.5836 C   0  0  2  0  0  0  0  0  0  0  0  0
    6.6931   -4.8842   -5.4882 O   0  0  0  0  0  0  0  0  0  0  0  0
    7.0115   -6.8355   -6.9527 C   0  0  2  0  0  0  0  0  0  0  0  0
    7.2636   -5.8691   -8.0055 N   0  3  0  0  0  0  0  0  0  0  0  0
    5.5755   -7.3353   -7.0648 C   0  0  1  0  0  0  0  0  0  0  0  0
    5.4317   -8.1164   -8.2410 O   0  0  0  0  0  0  0  0  0  0  0  0
    5.1278   -8.1496   -5.8607 C   0  0  2  0  0  0  0  0  0  0  0  0
    3.7364   -8.4228   -5.9394 O   0  0  0  0  0  0  0  0  0  0  0  0
    5.0432   -8.2732   -3.4063 C   0  0  0  0  0  0  0  0  0  0  0  0
    5.0707   -7.5222   -2.1645 N   0  3  0  0  0  0  0  0  0  0  0  0
    6.9168   -1.6497   -2.7337 C   0  0  2  0  0  0  0  0  0  0  0  0
    5.7765   -2.6370   -2.5813 C   0  0  0  0  0  0  0  0  0  0  0  0
    5.6138   -3.4603   -3.8456 C   0  0  1  0  0  0  0  0  0  0  0  0
    6.8579   -4.2862   -4.1757 C   0  0  2  0  0  0  0  0  0  0  0  0
    8.1286   -3.4055   -4.1537 C   0  0  1  0  0  0  0  0  0  0  0  0
    8.2241   -2.3762   -3.0198 C   0  0  1  0  0  0  0  0  0  0  0  0
    7.0473   -0.8727   -1.5158 N   0  3  0  0  0  0  0  0  0  0  0  0
    4.4548   -4.3197   -3.7024 N   0  3  0  0  0  0  0  0  0  0  0  0
    9.3332   -4.2092   -4.1965 O   0  0  0  0  0  0  0  0  0  0  0  0
    9.2455   -1.4288   -3.3136 O   0  0  0  0  0  0  0  0  0  0  0  0
  1  2  1  0  0  0  0
  3  2  1  6  0  0  0
  3  4  1  0  0  0  0
  3  5  1  0  0  0  0
  4  8  1  0  0  0  0
  5  6  1  0  0  0  0
  5 12  1  1  0  0  0
  6  7  1  6  0  0  0
  6  8  1  0  0  0  0
  8 41  1  6  0  0  0
  9 10  1  0  0  0  0
  9 17  1  0  0  0  0
  9 19  1  6  0  0  0
 10 11  1  0  0  0  0
 11 12  1  6  0  0  0
 11 13  1  0  0  0  0
 13 14  1  6  0  0  0
 13 15  1  0  0  0  0
 15 16  1  1  0  0  0
 15 17  1  0  0  0  0
 17 18  1  6  0  0  0
 19 20  1  0  0  0  0
 21 22  1  0  0  0  0
 21 29  1  0  0  0  0
 21 31  1  1  0  0  0
 22 23  1  0  0  0  0
 23 24  1  6  0  0  0
 23 25  1  0  0  0  0
 25 26  1  6  0  0  0
 25 27  1  0  0  0  0
 27 28  1  6  0  0  0
 27 29  1  0  0  0  0
 29 30  1  6  0  0  0
 31 32  1  0  0  0  0
 33 34  1  0  0  0  0
 33 38  1  0  0  0  0
 33 39  1  1  0  0  0
 34 35  1  0  0  0  0
 35 36  1  0  0  0  0
 35 40  1  1  0  0  0
 36 24  1  6  0  0  0
 36 37  1  0  0  0  0
 37 38  1  0  0  0  0
 37 41  1  1  0  0  0
 38 42  1  6  0  0  0
M  CHG  6  14   1  20   1  26   1  32   1  39   1  40   1
M  END
>  <CHROM.1>
-60.77495268,-63.18308110,-176.03994303,-39.46123277,-73.21621365,-58.09382950
63.88060185,72.16331367,68.33064790,-63.08564457,66.78898226,70.80413239
51.91212231,-144.89094915,24.36840465,-60.00627663,55.45206563,-50.89613983
160.84502513,90.50800204,177.64324541,-60.25278040,9.54581038,-5.77449417
-4.99962110,-0.27544496,0.02267348,0.37106662

>  <Name>


>  <RI>
0

>  <Rbt.Current_Directory>
/home/itssahil/PROJECTS/Mol_Feturizer/New_Systems/rnas/1qd3

>  <Rbt.Executable>
rbdock ($Id: //depot/dev/client3/rdock/2013.1/src/exe/rbdock.cxx#4 $)

>  <Rbt.Library>
libRbt.so (2013.1, Build901 2013/11/27)

>  <Rbt.Parameter_File>
/export/apps/rDock/src/rDock_2013.1_src/data/scripts/dock_solv.prm

>  <Rbt.Receptor>
prm/pocket_docking_7.prm

>  <SCORE>
-64.7839

>  <SCORE.INTER>
-44.9383

>  <SCORE.INTER.CONST>
1

>  <SCORE.INTER.POLAR>
-8.23583

>  <SCORE.INTER.ROT>
9

>  <SCORE.INTER.SOLV>
32.8172

>  <SCORE.INTER.VDW>
-23.0452

>  <SCORE.INTER.norm>
-1.06996

>  <SCORE.INTRA>
-19.8456

>  <SCORE.INTRA.DIHEDRAL>
-25.1068

>  <SCORE.INTRA.DIHEDRAL.0>
40.6252

>  <SCORE.INTRA.POLAR>
1.16365

>  <SCORE.INTRA.POLAR.0>
-1.20161

>  <SCORE.INTRA.REPUL>
-0.0424311

>  <SCORE.INTRA.REPUL.0>
0.115675

>  <SCORE.INTRA.SOLV>
-8.87216

>  <SCORE.INTRA.SOLV.lig_0>
-154.895

>  <SCORE.INTRA.VDW>
-6.6003

>  <SCORE.INTRA.VDW.0>
2.2925

>  <SCORE.INTRA.norm>
-0.472513

>  <SCORE.RESTR>
0

>  <SCORE.RESTR.CAVITY>
0

>  <SCORE.RESTR.norm>
0

>  <SCORE.SYSTEM>
0

>  <SCORE.SYSTEM.CONST>
0

>  <SCORE.SYSTEM.DIHEDRAL>
0

>  <SCORE.SYSTEM.SOLV>
0

>  <SCORE.SYSTEM.norm>
0

>  <SCORE.heavy>
42

>  <SCORE.norm>
-1.54247

>  <RMSD>
8.996

$$$$

 OpenBabel11021811413D
libRbt.so/2013.1/901 2013/11/27
 42 45  0  0  0  0  0  0  0  0999 V2000
   12.6569   -2.5980   -0.5974 O   0  0  0  0  0  0  0  0  0  0  0  0
   12.7661   -3.3342   -1.8073 C   0  0  0  0  0  0  0  0  0  0  0  0
   11.6976   -4.4274   -1.8463 C   0  0  1  0  0  0  0  0  0  0  0  0
   10.3727   -3.8630   -1.9540 O   0  0  0  0  0  0  0  0  0  0  0  0
   11.8422   -5.3706   -3.0290 C   0  0  2  0  0  0  0  0  0  0  0  0
   10.4450   -5.9656   -3.0815 C   0  0  1  0  0  0  0  0  0  0  0  0
   10.3002   -6.9439   -2.0579 O   0  0  0  0  0  0  0  0  0  0  0  0
    9.5575   -4.7438   -2.7680 C   0  0  2  0  0  0  0  0  0  0  0  0
   15.7302   -4.8107   -4.4245 C   0  0  2  0  0  0  0  0  0  0  0  0
   14.6479   -4.9899   -3.4982 O   0  0  0  0  0  0  0  0  0  0  0  0
   13.9720   -6.2446   -3.6974 C   0  0  2  0  0  0  0  0  0  0  0  0
   12.8560   -6.3669   -2.7911 O   0  0  0  0  0  0  0  0  0  0  0  0
   14.9448   -7.4212   -3.5087 C   0  0  2  0  0  0  0  0  0  0  0  0
   15.2069   -7.6517   -2.0999 N   0  3  0  0  0  0  0  0  0  0  0  0
   16.2593   -7.2417   -4.2772 C   0  0  1  0  0  0  0  0  0  0  0  0
   16.0460   -7.5324   -5.6494 O   0  0  0  0  0  0  0  0  0  0  0  0
   16.8240   -5.8308   -4.1356 C   0  0  2  0  0  0  0  0  0  0  0  0
   17.3350   -5.6420   -2.8211 O   0  0  0  0  0  0  0  0  0  0  0  0
   16.2781   -3.3888   -4.3430 C   0  0  0  0  0  0  0  0  0  0  0  0
   17.1032   -3.0967   -5.5000 N   0  3  0  0  0  0  0  0  0  0  0  0
    6.2508   -7.7228   -4.4437 C   0  0  1  0  0  0  0  0  0  0  0  0
    7.4732   -6.9566   -4.4711 O   0  0  0  0  0  0  0  0  0  0  0  0
    7.4774   -5.9208   -5.4803 C   0  0  2  0  0  0  0  0  0  0  0  0
    6.4936   -4.8924   -5.2077 O   0  0  0  0  0  0  0  0  0  0  0  0
    7.2741   -6.5246   -6.8752 C   0  0  2  0  0  0  0  0  0  0  0  0
    7.0698   -5.4671   -7.8478 N   0  3  0  0  0  0  0  0  0  0  0  0
    6.0829   -7.4755   -6.9112 C   0  0  1  0  0  0  0  0  0  0  0  0
    6.0745   -8.1848   -8.1405 O   0  0  0  0  0  0  0  0  0  0  0  0
    6.0707   -8.4661   -5.7572 C   0  0  2  0  0  0  0  0  0  0  0  0
    4.8498   -9.1912   -5.7421 O   0  0  0  0  0  0  0  0  0  0  0  0
    6.3107   -8.7621   -3.3279 C   0  0  0  0  0  0  0  0  0  0  0  0
    6.1052   -8.1389   -2.0332 N   0  3  0  0  0  0  0  0  0  0  0  0
    6.7000   -1.5994   -2.5220 C   0  0  2  0  0  0  0  0  0  0  0  0
    5.5974   -2.6190   -2.3149 C   0  0  0  0  0  0  0  0  0  0  0  0
    5.4214   -3.4715   -3.5579 C   0  0  1  0  0  0  0  0  0  0  0  0
    6.6805   -4.2640   -3.9124 C   0  0  2  0  0  0  0  0  0  0  0  0
    7.9223   -3.3434   -3.9476 C   0  0  1  0  0  0  0  0  0  0  0  0
    8.0203   -2.2897   -2.8365 C   0  0  1  0  0  0  0  0  0  0  0  0
    6.8438   -0.7951   -1.3235 N   0  3  0  0  0  0  0  0  0  0  0  0
    4.2958   -4.3641   -3.3616 N   0  3  0  0  0  0  0  0  0  0  0  0
    9.1501   -4.1094   -4.0142 O   0  0  0  0  0  0  0  0  0  0  0  0
    9.0009   -1.3165   -3.1805 O   0  0  0  0  0  0  0  0  0  0  0  0
  1  2  1  0  0  0  0
  3  2  1  6  0  0  0
  3  4  1  0  0  0  0
  3  5  1  0  0  0  0
  4  8  1  0  0  0  0
  5  6  1  0  0  0  0
  5 12  1  1  0  0  0
  6  7  1  1  0  0  0
  6  8  1  0  0  0  0
  8 41  1  6  0  0  0
  9 10  1  0  0  0  0
  9 17  1  0  0  0  0
  9 19  1  1  0  0  0
 10 11  1  0  0  0  0
 11 12  1  1  0  0  0
 11 13  1  0  0  0  0
 13 14  1  1  0  0  0
 13 15  1  0  0  0  0
 15 16  1  6  0  0  0
 15 17  1  0  0  0  0
 17 18  1  1  0  0  0
 19 20  1  0  0  0  0
 21 22  1  0  0  0  0
 21 29  1  0  0  0  0
 21 31  1  1  0  0  0
 22 23  1  0  0  0  0
 23 24  1  1  0  0  0
 23 25  1  0  0  0  0
 25 26  1  6  0  0  0
 25 27  1  0  0  0  0
 27 28  1  6  0  0  0
 27 29  1  0  0  0  0
 29 30  1  1  0  0  0
 31 32  1  0  0  0  0
 33 34  1  0  0  0  0
 33 38  1  0  0  0  0
 33 39  1  1  0  0  0
 34 35  1  0  0  0  0
 35 36  1  0  0  0  0
 35 40  1  1  0  0  0
 36 24  1  6  0  0  0
 36 37  1  0  0  0  0
 37 38  1  0  0  0  0
 37 41  1  1  0  0  0
 38 42  1  6  0  0  0
M  CHG  6  14   1  20   1  26   1  32   1  39   1  40   1
M  END
>  <CHROM.1>
64.06780741,67.70001521,-115.46154946,66.46833793,-87.94102299,-164.55867652
63.72196302,67.40083480,-168.75680220,-178.45724089,-65.31138450,76.01501981
57.61991782,-165.57589076,-46.49963041,-56.59804198,63.05298974,-165.82027467
-27.16342832,-156.22336894,-75.45039889,-60.83537689,10.10942604,-5.31779792
-3.82438872,0.08016785,-0.06947851,0.53745211

>  <Name>


>  <RI>
0

>  <Rbt.Current_Directory>
/home/itssahil/PROJECTS/Mol_Feturizer/New_Systems/rnas/1qd3

>  <Rbt.Executable>
rbdock ($Id: //depot/dev/client3/rdock/2013.1/src/exe/rbdock.cxx#4 $)

>  <Rbt.Library>
libRbt.so (2013.1, Build901 2013/11/27)

>  <Rbt.Parameter_File>
/export/apps/rDock/src/rDock_2013.1_src/data/scripts/dock_solv.prm

>  <Rbt.Receptor>
prm/pocket_docking_8.prm

>  <SCORE>
-50.7954

>  <SCORE.INTER>
-28.3718

>  <SCORE.INTER.CONST>
1

>  <SCORE.INTER.POLAR>
-6.44395

>  <SCORE.INTER.ROT>
9

>  <SCORE.INTER.SOLV>
31.4474

>  <SCORE.INTER.VDW>
-17.5172

>  <SCORE.INTER.norm>
-0.675519

>  <SCORE.INTRA>
-22.4236

>  <SCORE.INTRA.DIHEDRAL>
-20.0642

>  <SCORE.INTRA.DIHEDRAL.0>
40.6252

>  <SCORE.INTRA.POLAR>
1.07649

>  <SCORE.INTRA.POLAR.0>
-1.20161

>  <SCORE.INTRA.REPUL>
-0.115675

>  <SCORE.INTRA.REPUL.0>
0.115675

>  <SCORE.INTRA.SOLV>
-15.1815

>  <SCORE.INTRA.SOLV.lig_0>
-154.895

>  <SCORE.INTRA.VDW>
-7.88247

>  <SCORE.INTRA.VDW.0>
2.2925

>  <SCORE.INTRA.norm>
-0.533895

>  <SCORE.RESTR>
0

>  <SCORE.RESTR.CAVITY>
0

>  <SCORE.RESTR.norm>
0

>  <SCORE.SYSTEM>
0

>  <SCORE.SYSTEM.CONST>
0

>  <SCORE.SYSTEM.DIHEDRAL>
0

>  <SCORE.SYSTEM.SOLV>
0

>  <SCORE.SYSTEM.norm>
0

>  <SCORE.heavy>
42

>  <SCORE.norm>
-1.20941

>  <RMSD>
9.022

$$$$

 OpenBabel11021811413D
libRbt.so/2013.1/901 2013/11/27
 42 45  0  0  0  0  0  0  0  0999 V2000
   12.2295    2.9884   -2.0602 O   0  0  0  0  0  0  0  0  0  0  0  0
   11.4919    2.3612   -1.0209 C   0  0  0  0  0  0  0  0  0  0  0  0
   10.4002    1.4755   -1.6228 C   0  0  1  0  0  0  0  0  0  0  0  0
   10.9616    0.4660   -2.4896 O   0  0  0  0  0  0  0  0  0  0  0  0
    9.5918    0.7215   -0.5800 C   0  0  2  0  0  0  0  0  0  0  0  0
    8.9941   -0.3816   -1.4371 C   0  0  1  0  0  0  0  0  0  0  0  0
    7.9095    0.1361   -2.1997 O   0  0  0  0  0  0  0  0  0  0  0  0
   10.1671   -0.7414   -2.3716 C   0  0  2  0  0  0  0  0  0  0  0  0
   10.4779    3.0953    2.7401 C   0  0  2  0  0  0  0  0  0  0  0  0
   10.0919    2.7544    1.3999 O   0  0  0  0  0  0  0  0  0  0  0  0
    8.9106    1.9330    1.3731 C   0  0  2  0  0  0  0  0  0  0  0  0
    8.5843    1.5609    0.0179 O   0  0  0  0  0  0  0  0  0  0  0  0
    7.7256    2.6650    2.0261 C   0  0  2  0  0  0  0  0  0  0  0  0
    7.1873    3.6734    1.1318 N   0  3  0  0  0  0  0  0  0  0  0  0
    8.0776    3.2840    3.3839 C   0  0  1  0  0  0  0  0  0  0  0  0
    8.0999    2.2674    4.3733 O   0  0  0  0  0  0  0  0  0  0  0  0
    9.4235    4.0034    3.3600 C   0  0  2  0  0  0  0  0  0  0  0  0
    9.3160    5.2099    2.6135 O   0  0  0  0  0  0  0  0  0  0  0  0
   11.8479    3.7674    2.7508 C   0  0  0  0  0  0  0  0  0  0  0  0
   12.5075    3.5529    4.0251 N   0  3  0  0  0  0  0  0  0  0  0  0
    7.1909   -3.8250   -2.9254 C   0  0  1  0  0  0  0  0  0  0  0  0
    8.2192   -3.1349   -2.1848 O   0  0  0  0  0  0  0  0  0  0  0  0
    9.3109   -3.9944   -1.7838 C   0  0  2  0  0  0  0  0  0  0  0  0
   10.0555   -4.4941   -2.9221 O   0  0  0  0  0  0  0  0  0  0  0  0
    8.7994   -5.1456   -0.9093 C   0  0  2  0  0  0  0  0  0  0  0  0
    9.8605   -6.1109   -0.6905 N   0  3  0  0  0  0  0  0  0  0  0  0
    7.6048   -5.8493   -1.5436 C   0  0  1  0  0  0  0  0  0  0  0  0
    7.0219   -6.7408   -0.6057 O   0  0  0  0  0  0  0  0  0  0  0  0
    6.5424   -4.8873   -2.0528 C   0  0  2  0  0  0  0  0  0  0  0  0
    5.5554   -5.5894   -2.7940 O   0  0  0  0  0  0  0  0  0  0  0  0
    6.1014   -2.8427   -3.3457 C   0  0  0  0  0  0  0  0  0  0  0  0
    5.1154   -3.4971   -4.1860 N   0  3  0  0  0  0  0  0  0  0  0  0
   13.4120   -2.4958   -4.6076 C   0  0  2  0  0  0  0  0  0  0  0  0
   12.3709   -3.0609   -5.5537 C   0  0  0  0  0  0  0  0  0  0  0  0
   11.4867   -4.0626   -4.8342 C   0  0  1  0  0  0  0  0  0  0  0  0
   10.7172   -3.4394   -3.6687 C   0  0  2  0  0  0  0  0  0  0  0  0
   11.6665   -2.6504   -2.7375 C   0  0  1  0  0  0  0  0  0  0  0  0
   12.7469   -1.8050   -3.4248 C   0  0  1  0  0  0  0  0  0  0  0  0
   14.2462   -1.5471   -5.3202 N   0  3  0  0  0  0  0  0  0  0  0  0
   10.5718   -4.6555   -5.7900 N   0  3  0  0  0  0  0  0  0  0  0  0
   10.9291   -1.8385   -1.7910 O   0  0  0  0  0  0  0  0  0  0  0  0
   13.7356   -1.4215   -2.4747 O   0  0  0  0  0  0  0  0  0  0  0  0
  1  2  1  0  0  0  0
  3  2  1  1  0  0  0
  3  4  1  0  0  0  0
  3  5  1  0  0  0  0
  4  8  1  0  0  0  0
  5  6  1  0  0  0  0
  5 12  1  6  0  0  0
  6  7  1  6  0  0  0
  6  8  1  0  0  0  0
  8 41  1  1  0  0  0
  9 10  1  0  0  0  0
  9 17  1  0  0  0  0
  9 19  1  6  0  0  0
 10 11  1  0  0  0  0
 11 12  1  6  0  0  0
 11 13  1  0  0  0  0
 13 14  1  6  0  0  0
 13 15  1  0  0  0  0
 15 16  1  1  0  0  0
 15 17  1  0  0  0  0
 17 18  1  6  0  0  0
 19 20  1  0  0  0  0
 21 22  1  0  0  0  0
 21 29  1  0  0  0  0
 21 31  1  1  0  0  0
 22 23  1  0  0  0  0
 23 24  1  6  0  0  0
 23 25  1  0  0  0  0
 25 26  1  6  0  0  0
 25 27  1  0  0  0  0
 27 28  1  1  0  0  0
 27 29  1  0  0  0  0
 29 30  1  6  0  0  0
 31 32  1  0  0  0  0
 33 34  1  0  0  0  0
 33 38  1  0  0  0  0
 33 39  1  6  0  0  0
 34 35  1  0  0  0  0
 35 36  1  0  0  0  0
 35 40  1  6  0  0  0
 36 24  1  1  0  0  0
 36 37  1  0  0  0  0
 37 38  1  0  0  0  0
 37 41  1  6  0  0  0
 38 42  1  1  0  0  0
M  CHG  6  14   1  20   1  26   1  32   1  39   1  40   1
M  END
>  <CHROM.1>
179.86638303,58.70170283,-107.32741843,69.33410382,-88.29189027,-153.37554740
64.88401561,-87.00005131,-55.89319025,-57.87985061,57.25344056,175.25510140
63.91875255,179.31938035,58.95737276,67.80051801,-144.25855582,18.52417491
-55.71451415,-176.93442685,-66.59277083,67.53363256,9.68878331,-0.89932966
-1.20504595,-1.50194724,-0.49165601,-2.49169335

>  <Name>


>  <RI>
0

>  <Rbt.Current_Directory>
/home/itssahil/PROJECTS/Mol_Feturizer/New_Systems/rnas/1qd3

>  <Rbt.Executable>
rbdock ($Id: //depot/dev/client3/rdock/2013.1/src/exe/rbdock.cxx#4 $)

>  <Rbt.Library>
libRbt.so (2013.1, Build901 2013/11/27)

>  <Rbt.Parameter_File>
/export/apps/rDock/src/rDock_2013.1_src/data/scripts/dock_solv.prm

>  <Rbt.Receptor>
prm/pocket_docking_6.prm

>  <SCORE>
-75.6657

>  <SCORE.INTER>
-54.0583

>  <SCORE.INTER.CONST>
1

>  <SCORE.INTER.POLAR>
-9.47436

>  <SCORE.INTER.ROT>
9

>  <SCORE.INTER.SOLV>
37.7138

>  <SCORE.INTER.VDW>
-26.6289

>  <SCORE.INTER.norm>
-1.2871

>  <SCORE.INTRA>
-21.6074

>  <SCORE.INTRA.DIHEDRAL>
-15.6162

>  <SCORE.INTRA.DIHEDRAL.0>
40.6252

>  <SCORE.INTRA.POLAR>
-0.306325

>  <SCORE.INTRA.POLAR.0>
-1.20161

>  <SCORE.INTRA.REPUL>
-0.115675

>  <SCORE.INTRA.REPUL.0>
0.115675

>  <SCORE.INTRA.SOLV>
-12.0572

>  <SCORE.INTRA.SOLV.lig_0>
-154.895

>  <SCORE.INTRA.VDW>
-6.15085

>  <SCORE.INTRA.VDW.0>
2.2925

>  <SCORE.INTRA.norm>
-0.514462

>  <SCORE.RESTR>
0

>  <SCORE.RESTR.CAVITY>
0

>  <SCORE.RESTR.norm>
0

>  <SCORE.SYSTEM>
0

>  <SCORE.SYSTEM.CONST>
0

>  <SCORE.SYSTEM.DIHEDRAL>
0

>  <SCORE.SYSTEM.SOLV>
0

>  <SCORE.SYSTEM.norm>
0

>  <SCORE.heavy>
42

>  <SCORE.norm>
-1.80156

>  <RMSD>
9.027

$$$$

 OpenBabel11021811413D
libRbt.so/2013.1/901 2013/11/27
 42 45  0  0  0  0  0  0  0  0999 V2000
   11.2001    1.5629   -1.5179 O   0  0  0  0  0  0  0  0  0  0  0  0
   10.4643    1.1782   -0.3654 C   0  0  0  0  0  0  0  0  0  0  0  0
    9.1320    0.5562   -0.7856 C   0  0  1  0  0  0  0  0  0  0  0  0
    9.3331   -0.5683   -1.6692 O   0  0  0  0  0  0  0  0  0  0  0  0
    8.3198    0.0231    0.3830 C   0  0  2  0  0  0  0  0  0  0  0  0
    7.3820   -0.9275   -0.3421 C   0  0  1  0  0  0  0  0  0  0  0  0
    6.3505   -0.1875   -0.9858 O   0  0  0  0  0  0  0  0  0  0  0  0
    8.3105   -1.5602   -1.3986 C   0  0  2  0  0  0  0  0  0  0  0  0
    9.8333    3.6577    2.3980 C   0  0  2  0  0  0  0  0  0  0  0  0
    8.9590    2.9838    1.4799 O   0  0  0  0  0  0  0  0  0  0  0  0
    8.4409    1.7597    2.0310 C   0  0  2  0  0  0  0  0  0  0  0  0
    7.6144    1.0797    1.0635 O   0  0  0  0  0  0  0  0  0  0  0  0
    7.6410    2.0382    3.3152 C   0  0  2  0  0  0  0  0  0  0  0  0
    6.3348    2.5864    2.9993 N   0  3  0  0  0  0  0  0  0  0  0  0
    8.3834    2.9513    4.2980 C   0  0  1  0  0  0  0  0  0  0  0  0
    9.3745    2.2006    4.9814 O   0  0  0  0  0  0  0  0  0  0  0  0
    9.0348    4.1428    3.6012 C   0  0  2  0  0  0  0  0  0  0  0  0
    8.0365    5.0677    3.1860 O   0  0  0  0  0  0  0  0  0  0  0  0
   10.5411    4.8219    1.7106 C   0  0  0  0  0  0  0  0  0  0  0  0
    9.7265    5.3424    0.6287 N   0  3  0  0  0  0  0  0  0  0  0  0
    9.0239   -6.0486   -0.2842 C   0  0  1  0  0  0  0  0  0  0  0  0
    9.0838   -6.4228   -1.6765 O   0  0  0  0  0  0  0  0  0  0  0  0
    7.8189   -6.2799   -2.3629 C   0  0  2  0  0  0  0  0  0  0  0  0
    7.4012   -4.8951   -2.4499 O   0  0  0  0  0  0  0  0  0  0  0  0
    6.7409   -7.1417   -1.6944 C   0  0  2  0  0  0  0  0  0  0  0  0
    5.4394   -6.8305   -2.2556 N   0  3  0  0  0  0  0  0  0  0  0  0
    6.7004   -6.9261   -0.1856 C   0  0  1  0  0  0  0  0  0  0  0  0
    5.8644   -7.9034    0.4146 O   0  0  0  0  0  0  0  0  0  0  0  0
    8.0750   -6.9705    0.4640 C   0  0  2  0  0  0  0  0  0  0  0  0
    7.9899   -6.5787    1.8264 O   0  0  0  0  0  0  0  0  0  0  0  0
   10.4033   -6.1872    0.3536 C   0  0  0  0  0  0  0  0  0  0  0  0
   10.9817   -4.8821    0.6163 N   0  3  0  0  0  0  0  0  0  0  0  0
   11.3916   -3.8791   -3.5192 C   0  0  2  0  0  0  0  0  0  0  0  0
   10.3612   -3.9785   -4.6267 C   0  0  0  0  0  0  0  0  0  0  0  0
    9.1316   -4.7249   -4.1432 C   0  0  1  0  0  0  0  0  0  0  0  0
    8.4398   -4.0257   -2.9721 C   0  0  2  0  0  0  0  0  0  0  0  0
    9.4527   -3.6848   -1.8547 C   0  0  1  0  0  0  0  0  0  0  0  0
   10.8167   -3.1509   -2.3118 C   0  0  1  0  0  0  0  0  0  0  0  0
   12.5573   -3.1676   -4.0081 N   0  3  0  0  0  0  0  0  0  0  0  0
    8.2132   -4.8892   -5.2531 N   0  3  0  0  0  0  0  0  0  0  0  0
    8.8765   -2.7932   -0.8688 O   0  0  0  0  0  0  0  0  0  0  0  0
   11.7427   -3.2067   -1.2318 O   0  0  0  0  0  0  0  0  0  0  0  0
  1  2  1  0  0  0  0
  3  2  1  1  0  0  0
  3  4  1  0  0  0  0
  3  5  1  0  0  0  0
  4  8  1  0  0  0  0
  5  6  1  0  0  0  0
  5 12  1  6  0  0  0
  6  7  1  6  0  0  0
  6  8  1  0  0  0  0
  8 41  1  1  0  0  0
  9 10  1  0  0  0  0
  9 17  1  0  0  0  0
  9 19  1  6  0  0  0
 10 11  1  0  0  0  0
 11 12  1  6  0  0  0
 11 13  1  0  0  0  0
 13 14  1  6  0  0  0
 13 15  1  0  0  0  0
 15 16  1  6  0  0  0
 15 17  1  0  0  0  0
 17 18  1  6  0  0  0
 19 20  1  0  0  0  0
 21 22  1  0  0  0  0
 21 29  1  0  0  0  0
 21 31  1  1  0  0  0
 22 23  1  0  0  0  0
 23 24  1  1  0  0  0
 23 25  1  0  0  0  0
 25 26  1  6  0  0  0
 25 27  1  0  0  0  0
 27 28  1  1  0  0  0
 27 29  1  0  0  0  0
 29 30  1  1  0  0  0
 31 32  1  0  0  0  0
 33 34  1  0  0  0  0
 33 38  1  0  0  0  0
 33 39  1  6  0  0  0
 34 35  1  0  0  0  0
 35 36  1  0  0  0  0
 35 40  1  6  0  0  0
 36 24  1  1  0  0  0
 36 37  1  0  0  0  0
 37 38  1  0  0  0  0
 37 41  1  1  0  0  0
 38 42  1  1  0  0  0
M  CHG  6  14   1  20   1  26   1  32   1  39   1  40   1
M  END
>  <CHROM.1>
60.97871196,56.73657021,-83.57846254,-146.51984360,-79.96215481,28.12431533
98.82957858,101.31780696,153.28374106,-56.19822734,-76.52139049,107.89855185
50.69629325,42.03070879,43.02895487,-156.59538039,55.12649564,167.03861967
-78.04189803,-103.84075755,-54.53349092,165.69127219,8.82231695,-1.77470570
-0.30536046,-1.49729332,-0.91759981,-2.66103021

>  <Name>


>  <RI>
0

>  <Rbt.Current_Directory>
/home/itssahil/PROJECTS/Mol_Feturizer/New_Systems/rnas/1qd3

>  <Rbt.Executable>
rbdock ($Id: //depot/dev/client3/rdock/2013.1/src/exe/rbdock.cxx#4 $)

>  <Rbt.Library>
libRbt.so (2013.1, Build901 2013/11/27)

>  <Rbt.Parameter_File>
/export/apps/rDock/src/rDock_2013.1_src/data/scripts/dock_solv.prm

>  <Rbt.Receptor>
prm/pocket_docking_3.prm

>  <SCORE>
-49.1279

>  <SCORE.INTER>
-39.5999

>  <SCORE.INTER.CONST>
1

>  <SCORE.INTER.POLAR>
-7.66196

>  <SCORE.INTER.ROT>
9

>  <SCORE.INTER.SOLV>
41.1292

>  <SCORE.INTER.VDW>
-24.1698

>  <SCORE.INTER.norm>
-0.942854

>  <SCORE.INTRA>
-10.2036

>  <SCORE.INTRA.DIHEDRAL>
-1.93075

>  <SCORE.INTRA.DIHEDRAL.0>
40.6252

>  <SCORE.INTRA.POLAR>
0.159181

>  <SCORE.INTRA.POLAR.0>
-1.20161

>  <SCORE.INTRA.REPUL>
-0.115675

>  <SCORE.INTRA.REPUL.0>
0.115675

>  <SCORE.INTRA.SOLV>
-8.01476

>  <SCORE.INTRA.SOLV.lig_0>
-154.895

>  <SCORE.INTRA.VDW>
-5.19368

>  <SCORE.INTRA.VDW.0>
2.2925

>  <SCORE.INTRA.norm>
-0.242943

>  <SCORE.RESTR>
0.675571

>  <SCORE.RESTR.CAVITY>
0.675571

>  <SCORE.RESTR.norm>
0.016085

>  <SCORE.SYSTEM>
0

>  <SCORE.SYSTEM.CONST>
0

>  <SCORE.SYSTEM.DIHEDRAL>
0

>  <SCORE.SYSTEM.SOLV>
0

>  <SCORE.SYSTEM.norm>
0

>  <SCORE.heavy>
42

>  <SCORE.norm>
-1.16971

>  <RMSD>
9.035

$$$$

 OpenBabel11021811413D
libRbt.so/2013.1/901 2013/11/27
 42 45  0  0  0  0  0  0  0  0999 V2000
   10.1171    0.8387   -1.9320 O   0  0  0  0  0  0  0  0  0  0  0  0
    8.7451    1.1047   -1.6775 C   0  0  0  0  0  0  0  0  0  0  0  0
    8.0805   -0.1343   -1.0763 C   0  0  1  0  0  0  0  0  0  0  0  0
    8.3781   -1.3172   -1.8495 O   0  0  0  0  0  0  0  0  0  0  0  0
    8.5414   -0.4393    0.3393 C   0  0  2  0  0  0  0  0  0  0  0  0
    8.1398   -1.9004    0.4527 C   0  0  1  0  0  0  0  0  0  0  0  0
    6.7366   -1.9979    0.6705 O   0  0  0  0  0  0  0  0  0  0  0  0
    8.4922   -2.4459   -0.9462 C   0  0  2  0  0  0  0  0  0  0  0  0
    9.4018    3.6958    1.6110 C   0  0  2  0  0  0  0  0  0  0  0  0
    8.5199    2.6638    1.1433 O   0  0  0  0  0  0  0  0  0  0  0  0
    8.7296    1.4215    1.8387 C   0  0  2  0  0  0  0  0  0  0  0  0
    7.8700    0.3926    1.3058 O   0  0  0  0  0  0  0  0  0  0  0  0
    8.4829    1.5954    3.3471 C   0  0  2  0  0  0  0  0  0  0  0  0
    7.0612    1.6511    3.6332 N   0  3  0  0  0  0  0  0  0  0  0  0
    9.1974    2.8181    3.9347 C   0  0  1  0  0  0  0  0  0  0  0  0
   10.5731    2.5198    4.1116 O   0  0  0  0  0  0  0  0  0  0  0  0
    9.0521    4.0533    3.0499 C   0  0  2  0  0  0  0  0  0  0  0  0
    7.7200    4.5481    3.1218 O   0  0  0  0  0  0  0  0  0  0  0  0
    9.3174    4.9246    0.7100 C   0  0  0  0  0  0  0  0  0  0  0  0
   10.4332    5.8165    0.9638 N   0  3  0  0  0  0  0  0  0  0  0  0
   10.5574   -5.9199   -0.2058 C   0  0  1  0  0  0  0  0  0  0  0  0
   10.8242   -6.0637   -1.6166 O   0  0  0  0  0  0  0  0  0  0  0  0
    9.6521   -6.4127   -2.3884 C   0  0  2  0  0  0  0  0  0  0  0  0
    8.6633   -5.3535   -2.3841 O   0  0  0  0  0  0  0  0  0  0  0  0
    9.0505   -7.7326   -1.8907 C   0  0  2  0  0  0  0  0  0  0  0  0
    7.7663   -7.9626   -2.5262 N   0  3  0  0  0  0  0  0  0  0  0  0
    8.8680   -7.7351   -0.3770 C   0  0  1  0  0  0  0  0  0  0  0  0
    8.5367   -9.0433    0.0623 O   0  0  0  0  0  0  0  0  0  0  0  0
   10.0955   -7.2459    0.3762 C   0  0  2  0  0  0  0  0  0  0  0  0
    9.7993   -7.0941    1.7568 O   0  0  0  0  0  0  0  0  0  0  0  0
   11.8316   -5.5110    0.5276 C   0  0  0  0  0  0  0  0  0  0  0  0
   12.1253   -4.1072    0.3045 N   0  3  0  0  0  0  0  0  0  0  0  0
   11.5419   -2.9044   -4.3374 C   0  0  2  0  0  0  0  0  0  0  0  0
   10.2887   -3.2793   -5.1037 C   0  0  0  0  0  0  0  0  0  0  0  0
    9.5884   -4.4493   -4.4377 C   0  0  1  0  0  0  0  0  0  0  0  0
    9.1423   -4.1339   -3.0092 C   0  0  2  0  0  0  0  0  0  0  0  0
   10.3076   -3.5412   -2.1836 C   0  0  1  0  0  0  0  0  0  0  0  0
   11.2027   -2.5233   -2.9027 C   0  0  1  0  0  0  0  0  0  0  0  0
   12.1944   -1.7893   -4.9968 N   0  3  0  0  0  0  0  0  0  0  0  0
    8.4545   -4.8444   -5.2503 N   0  3  0  0  0  0  0  0  0  0  0  0
    9.8425   -2.9914   -0.9265 O   0  0  0  0  0  0  0  0  0  0  0  0
   12.4024   -2.3281   -2.1613 O   0  0  0  0  0  0  0  0  0  0  0  0
  1  2  1  0  0  0  0
  3  2  1  6  0  0  0
  3  4  1  0  0  0  0
  3  5  1  0  0  0  0
  4  8  1  0  0  0  0
  5  6  1  0  0  0  0
  5 12  1  1  0  0  0
  6  7  1  6  0  0  0
  6  8  1  0  0  0  0
  8 41  1  1  0  0  0
  9 10  1  0  0  0  0
  9 17  1  0  0  0  0
  9 19  1  6  0  0  0
 10 11  1  0  0  0  0
 11 12  1  6  0  0  0
 11 13  1  0  0  0  0
 13 14  1  6  0  0  0
 13 15  1  0  0  0  0
 15 16  1  6  0  0  0
 15 17  1  0  0  0  0
 17 18  1  6  0  0  0
 19 20  1  0  0  0  0
 21 22  1  0  0  0  0
 21 29  1  0  0  0  0
 21 31  1  1  0  0  0
 22 23  1  0  0  0  0
 23 24  1  1  0  0  0
 23 25  1  0  0  0  0
 25 26  1  6  0  0  0
 25 27  1  0  0  0  0
 27 28  1  1  0  0  0
 27 29  1  0  0  0  0
 29 30  1  1  0  0  0
 31 32  1  0  0  0  0
 33 34  1  0  0  0  0
 33 38  1  0  0  0  0
 33 39  1  6  0  0  0
 34 35  1  0  0  0  0
 35 36  1  0  0  0  0
 35 40  1  6  0  0  0
 36 24  1  1  0  0  0
 36 37  1  0  0  0  0
 37 38  1  0  0  0  0
 37 41  1  1  0  0  0
 38 42  1  1  0  0  0
M  CHG  6  14   1  20   1  26   1  32   1  39   1  40   1
M  END
>  <CHROM.1>
173.00425005,-49.31827711,-106.30689426,177.93543594,-63.08775840,-165.28669018
97.19469104,-74.54800192,-171.79670267,-59.93820156,64.50617428,75.99810806
63.16731650,56.69340263,67.48605974,176.28097035,58.27694389,-68.50877384
60.09393439,-87.60892537,-31.17886496,160.64873458,9.43275500,-1.95413983
-0.48488097,-1.82778433,-1.28439752,-2.98116520

>  <Name>


>  <RI>
0

>  <Rbt.Current_Directory>
/home/itssahil/PROJECTS/Mol_Feturizer/New_Systems/rnas/1qd3

>  <Rbt.Executable>
rbdock ($Id: //depot/dev/client3/rdock/2013.1/src/exe/rbdock.cxx#4 $)

>  <Rbt.Library>
libRbt.so (2013.1, Build901 2013/11/27)

>  <Rbt.Parameter_File>
/export/apps/rDock/src/rDock_2013.1_src/data/scripts/dock_solv.prm

>  <Rbt.Receptor>
prm/pocket_docking_4.prm

>  <SCORE>
-50.4566

>  <SCORE.INTER>
-29.266

>  <SCORE.INTER.CONST>
1

>  <SCORE.INTER.POLAR>
-4.79626

>  <SCORE.INTER.ROT>
9

>  <SCORE.INTER.SOLV>
25.7064

>  <SCORE.INTER.VDW>
-21.6919

>  <SCORE.INTER.norm>
-0.696809

>  <SCORE.INTRA>
-21.2379

>  <SCORE.INTRA.DIHEDRAL>
-16.4663

>  <SCORE.INTRA.DIHEDRAL.0>
40.6252

>  <SCORE.INTRA.POLAR>
-0.614712

>  <SCORE.INTRA.POLAR.0>
-1.20161

>  <SCORE.INTRA.REPUL>
-0.115675

>  <SCORE.INTRA.REPUL.0>
0.115675

>  <SCORE.INTRA.SOLV>
-6.76242

>  <SCORE.INTRA.SOLV.lig_0>
-154.895

>  <SCORE.INTRA.VDW>
-6.95509

>  <SCORE.INTRA.VDW.0>
2.2925

>  <SCORE.INTRA.norm>
-0.505663

>  <SCORE.RESTR>
0.0471979

>  <SCORE.RESTR.CAVITY>
0.0471979

>  <SCORE.RESTR.norm>
0.00112376

>  <SCORE.SYSTEM>
0

>  <SCORE.SYSTEM.CONST>
0

>  <SCORE.SYSTEM.DIHEDRAL>
0

>  <SCORE.SYSTEM.SOLV>
0

>  <SCORE.SYSTEM.norm>
0

>  <SCORE.heavy>
42

>  <SCORE.norm>
-1.20135

>  <RMSD>
9.038

$$$$

 OpenBabel11021811413D
libRbt.so/2013.1/901 2013/11/27
 42 45  0  0  0  0  0  0  0  0999 V2000
    9.5810    2.1186   -1.4017 O   0  0  0  0  0  0  0  0  0  0  0  0
    9.6264    0.8853   -2.1050 C   0  0  0  0  0  0  0  0  0  0  0  0
    8.6202   -0.0936   -1.4988 C   0  0  1  0  0  0  0  0  0  0  0  0
    8.9254   -1.4561   -1.8678 O   0  0  0  0  0  0  0  0  0  0  0  0
    8.5979   -0.0723    0.0206 C   0  0  2  0  0  0  0  0  0  0  0  0
    7.9427   -1.4131    0.3069 C   0  0  1  0  0  0  0  0  0  0  0  0
    6.5403   -1.3208    0.0818 O   0  0  0  0  0  0  0  0  0  0  0  0
    8.5855   -2.3251   -0.7578 C   0  0  2  0  0  0  0  0  0  0  0  0
   10.2690    2.4065    2.8696 C   0  0  2  0  0  0  0  0  0  0  0  0
    9.7102    1.9510    1.6279 O   0  0  0  0  0  0  0  0  0  0  0  0
    8.3384    1.5417    1.7739 C   0  0  2  0  0  0  0  0  0  0  0  0
    7.8260    1.0360    0.5235 O   0  0  0  0  0  0  0  0  0  0  0  0
    7.4727    2.7118    2.2717 C   0  0  2  0  0  0  0  0  0  0  0  0
    7.2020    3.6465    1.1949 N   0  3  0  0  0  0  0  0  0  0  0  0
    8.0835    3.4404    3.4746 C   0  0  1  0  0  0  0  0  0  0  0  0
    7.8670    2.6742    4.6489 O   0  0  0  0  0  0  0  0  0  0  0  0
    9.5782    3.6946    3.2987 C   0  0  2  0  0  0  0  0  0  0  0  0
    9.7866    4.7103    2.3244 O   0  0  0  0  0  0  0  0  0  0  0  0
   11.7749    2.6158    2.7370 C   0  0  0  0  0  0  0  0  0  0  0  0
   12.3724    2.8362    4.0405 N   0  3  0  0  0  0  0  0  0  0  0  0
    6.6904   -7.1121   -1.5101 C   0  0  1  0  0  0  0  0  0  0  0  0
    6.8331   -5.6846   -1.3555 O   0  0  0  0  0  0  0  0  0  0  0  0
    8.0716   -5.2986   -0.7164 C   0  0  2  0  0  0  0  0  0  0  0  0
    9.2265   -5.6216   -1.5299 O   0  0  0  0  0  0  0  0  0  0  0  0
    8.1816   -5.9319    0.6759 C   0  0  2  0  0  0  0  0  0  0  0  0
    9.5102   -5.7120    1.2166 N   0  3  0  0  0  0  0  0  0  0  0  0
    7.8969   -7.4293    0.6397 C   0  0  1  0  0  0  0  0  0  0  0  0
    7.7766   -7.9251    1.9641 O   0  0  0  0  0  0  0  0  0  0  0  0
    6.6444   -7.7832   -0.1471 C   0  0  2  0  0  0  0  0  0  0  0  0
    6.5399   -9.1910   -0.3015 O   0  0  0  0  0  0  0  0  0  0  0  0
    5.3823   -7.4316   -2.2280 C   0  0  0  0  0  0  0  0  0  0  0  0
    5.3960   -6.9046   -3.5804 N   0  3  0  0  0  0  0  0  0  0  0  0
   12.4206   -3.1783   -2.9184 C   0  0  2  0  0  0  0  0  0  0  0  0
   11.4874   -3.7835   -3.9485 C   0  0  0  0  0  0  0  0  0  0  0  0
   10.6848   -4.9172   -3.3376 C   0  0  1  0  0  0  0  0  0  0  0  0
    9.8036   -4.4565   -2.1756 C   0  0  2  0  0  0  0  0  0  0  0  0
   10.6225   -3.6376   -1.1510 C   0  0  1  0  0  0  0  0  0  0  0  0
   11.6353   -2.6408   -1.7297 C   0  0  1  0  0  0  0  0  0  0  0  0
   13.1790   -2.1027   -3.5282 N   0  3  0  0  0  0  0  0  0  0  0  0
    9.8803   -5.5363   -4.3730 N   0  3  0  0  0  0  0  0  0  0  0  0
    9.7626   -2.9716   -0.1940 O   0  0  0  0  0  0  0  0  0  0  0  0
   12.5356   -2.2215   -0.7095 O   0  0  0  0  0  0  0  0  0  0  0  0
  1  2  1  0  0  0  0
  3  2  1  1  0  0  0
  3  4  1  0  0  0  0
  3  5  1  0  0  0  0
  4  8  1  0  0  0  0
  5  6  1  0  0  0  0
  5 12  1  6  0  0  0
  6  7  1  6  0  0  0
  6  8  1  0  0  0  0
  8 41  1  1  0  0  0
  9 10  1  0  0  0  0
  9 17  1  0  0  0  0
  9 19  1  6  0  0  0
 10 11  1  0  0  0  0
 11 12  1  6  0  0  0
 11 13  1  0  0  0  0
 13 14  1  6  0  0  0
 13 15  1  0  0  0  0
 15 16  1  1  0  0  0
 15 17  1  0  0  0  0
 17 18  1  6  0  0  0
 19 20  1  0  0  0  0
 21 22  1  0  0  0  0
 21 29  1  0  0  0  0
 21 31  1  1  0  0  0
 22 23  1  0  0  0  0
 23 24  1  6  0  0  0
 23 25  1  0  0  0  0
 25 26  1  6  0  0  0
 25 27  1  0  0  0  0
 27 28  1  1  0  0  0
 27 29  1  0  0  0  0
 29 30  1  6  0  0  0
 31 32  1  0  0  0  0
 33 34  1  0  0  0  0
 33 38  1  0  0  0  0
 33 39  1  6  0  0  0
 34 35  1  0  0  0  0
 35 36  1  0  0  0  0
 35 40  1  6  0  0  0
 36 24  1  1  0  0  0
 36 37  1  0  0  0  0
 37 38  1  0  0  0  0
 37 41  1  6  0  0  0
 38 42  1  1  0  0  0
M  CHG  6  14   1  20   1  26   1  32   1  39   1  40   1
M  END
>  <CHROM.1>
156.23328295,-161.10080649,-147.61214521,172.28985664,-50.89971036,-169.57189629
57.82951899,133.75760785,-70.04370387,56.96275398,58.20540231,64.27095899
104.41522646,-161.52876372,41.34103171,59.15789105,60.79522441,96.06826754
178.87606384,-65.82925666,-43.83640842,-49.55817334,9.02223264,-2.07605028
-0.17054094,-1.38510151,-0.70640648,-2.64788739

>  <Name>


>  <RI>
0

>  <Rbt.Current_Directory>
/home/itssahil/PROJECTS/Mol_Feturizer/New_Systems/rnas/1qd3

>  <Rbt.Executable>
rbdock ($Id: //depot/dev/client3/rdock/2013.1/src/exe/rbdock.cxx#4 $)

>  <Rbt.Library>
libRbt.so (2013.1, Build901 2013/11/27)

>  <Rbt.Parameter_File>
/export/apps/rDock/src/rDock_2013.1_src/data/scripts/dock_solv.prm

>  <Rbt.Receptor>
prm/pocket_docking_4.prm

>  <SCORE>
-60.5628

>  <SCORE.INTER>
-39.9618

>  <SCORE.INTER.CONST>
1

>  <SCORE.INTER.POLAR>
-6.80158

>  <SCORE.INTER.ROT>
9

>  <SCORE.INTER.SOLV>
33.6008

>  <SCORE.INTER.VDW>
-24.7695

>  <SCORE.INTER.norm>
-0.951471

>  <SCORE.INTRA>
-21.0885

>  <SCORE.INTRA.DIHEDRAL>
-14.0788

>  <SCORE.INTRA.DIHEDRAL.0>
40.6252

>  <SCORE.INTRA.POLAR>
0.0822298

>  <SCORE.INTRA.POLAR.0>
-1.20161

>  <SCORE.INTRA.REPUL>
-0.0913243

>  <SCORE.INTRA.REPUL.0>
0.115675

>  <SCORE.INTRA.SOLV>
-11.6118

>  <SCORE.INTRA.SOLV.lig_0>
-154.895

>  <SCORE.INTRA.VDW>
-8.06613

>  <SCORE.INTRA.VDW.0>
2.2925

>  <SCORE.INTRA.norm>
-0.502107

>  <SCORE.RESTR>
0.487438

>  <SCORE.RESTR.CAVITY>
0.487438

>  <SCORE.RESTR.norm>
0.0116057

>  <SCORE.SYSTEM>
0

>  <SCORE.SYSTEM.CONST>
0

>  <SCORE.SYSTEM.DIHEDRAL>
0

>  <SCORE.SYSTEM.SOLV>
0

>  <SCORE.SYSTEM.norm>
0

>  <SCORE.heavy>
42

>  <SCORE.norm>
-1.44197

>  <RMSD>
9.056

$$$$

 OpenBabel11021811413D
libRbt.so/2013.1/901 2013/11/27
 42 45  0  0  0  0  0  0  0  0999 V2000
    8.3085   -0.5257   -3.1302 O   0  0  0  0  0  0  0  0  0  0  0  0
    6.9405   -0.8849   -2.9986 C   0  0  0  0  0  0  0  0  0  0  0  0
    6.7082   -1.5496   -1.6411 C   0  0  1  0  0  0  0  0  0  0  0  0
    6.6795   -2.9886   -1.7591 O   0  0  0  0  0  0  0  0  0  0  0  0
    7.7940   -1.2400   -0.6240 C   0  0  2  0  0  0  0  0  0  0  0  0
    7.5791   -2.3738    0.3645 C   0  0  1  0  0  0  0  0  0  0  0  0
    6.4486   -2.0913    1.1819 O   0  0  0  0  0  0  0  0  0  0  0  0
    7.2688   -3.5642   -0.5657 C   0  0  2  0  0  0  0  0  0  0  0  0
   10.8763    1.6669   -0.2449 C   0  0  2  0  0  0  0  0  0  0  0  0
    9.6113    1.1353   -0.6675 O   0  0  0  0  0  0  0  0  0  0  0  0
    8.8412    0.6352    0.4405 C   0  0  2  0  0  0  0  0  0  0  0  0
    7.6039    0.0566   -0.0242 O   0  0  0  0  0  0  0  0  0  0  0  0
    8.5585    1.7564    1.4551 C   0  0  2  0  0  0  0  0  0  0  0  0
    7.5104    2.6362    0.9716 N   0  3  0  0  0  0  0  0  0  0  0  0
    9.8099    2.5628    1.8219 C   0  0  1  0  0  0  0  0  0  0  0  0
   10.5967    1.8199    2.7394 O   0  0  0  0  0  0  0  0  0  0  0  0
   10.6499    2.9159    0.5974 C   0  0  2  0  0  0  0  0  0  0  0  0
    9.9896    3.9132   -0.1732 O   0  0  0  0  0  0  0  0  0  0  0  0
   11.7591    1.9773   -1.4504 C   0  0  0  0  0  0  0  0  0  0  0  0
   12.1818    0.7498   -2.0981 N   0  3  0  0  0  0  0  0  0  0  0  0
    6.2533   -9.6830    0.1307 C   0  0  1  0  0  0  0  0  0  0  0  0
    5.6255   -8.3838    0.1308 O   0  0  0  0  0  0  0  0  0  0  0  0
    6.5033   -7.3236    0.5744 C   0  0  2  0  0  0  0  0  0  0  0  0
    7.6081   -7.1145   -0.3395 O   0  0  0  0  0  0  0  0  0  0  0  0
    7.0067   -7.5983    1.9967 C   0  0  2  0  0  0  0  0  0  0  0  0
    8.0433   -6.6456    2.3480 N   0  3  0  0  0  0  0  0  0  0  0  0
    7.5577   -9.0129    2.1376 C   0  0  1  0  0  0  0  0  0  0  0  0
    7.7897   -9.3012    3.5078 O   0  0  0  0  0  0  0  0  0  0  0  0
    6.6431  -10.0748    1.5466 C   0  0  2  0  0  0  0  0  0  0  0  0
    7.2927  -11.3376    1.5402 O   0  0  0  0  0  0  0  0  0  0  0  0
    5.2771  -10.7347   -0.3887 C   0  0  0  0  0  0  0  0  0  0  0  0
    3.9104  -10.3764   -0.0561 N   0  3  0  0  0  0  0  0  0  0  0  0
    7.9918   -5.7371   -4.3464 C   0  0  2  0  0  0  0  0  0  0  0  0
    6.7368   -6.5012   -3.9734 C   0  0  0  0  0  0  0  0  0  0  0  0
    6.9378   -7.2490   -2.6683 C   0  0  1  0  0  0  0  0  0  0  0  0
    7.2396   -6.3161   -1.4946 C   0  0  2  0  0  0  0  0  0  0  0  0
    8.3841   -5.3375   -1.8456 C   0  0  1  0  0  0  0  0  0  0  0  0
    8.3580   -4.7376   -3.2576 C   0  0  1  0  0  0  0  0  0  0  0  0
    7.7756   -5.0370   -5.5982 N   0  3  0  0  0  0  0  0  0  0  0  0
    5.7579   -8.0463   -2.3954 N   0  3  0  0  0  0  0  0  0  0  0  0
    8.5016   -4.2817   -0.8605 O   0  0  0  0  0  0  0  0  0  0  0  0
    9.6188   -4.1460   -3.5533 O   0  0  0  0  0  0  0  0  0  0  0  0
  1  2  1  0  0  0  0
  3  2  1  6  0  0  0
  3  4  1  0  0  0  0
  3  5  1  0  0  0  0
  4  8  1  0  0  0  0
  5  6  1  0  0  0  0
  5 12  1  1  0  0  0
  6  7  1  1  0  0  0
  6  8  1  0  0  0  0
  8 41  1  6  0  0  0
  9 10  1  0  0  0  0
  9 17  1  0  0  0  0
  9 19  1  6  0  0  0
 10 11  1  0  0  0  0
 11 12  1  6  0  0  0
 11 13  1  0  0  0  0
 13 14  1  6  0  0  0
 13 15  1  0  0  0  0
 15 16  1  1  0  0  0
 15 17  1  0  0  0  0
 17 18  1  6  0  0  0
 19 20  1  0  0  0  0
 21 22  1  0  0  0  0
 21 29  1  0  0  0  0
 21 31  1  1  0  0  0
 22 23  1  0  0  0  0
 23 24  1  6  0  0  0
 23 25  1  0  0  0  0
 25 26  1  6  0  0  0
 25 27  1  0  0  0  0
 27 28  1  1  0  0  0
 27 29  1  0  0  0  0
 29 30  1  6  0  0  0
 31 32  1  0  0  0  0
 33 34  1  0  0  0  0
 33 38  1  0  0  0  0
 33 39  1  6  0  0  0
 34 35  1  0  0  0  0
 35 36  1  0  0  0  0
 35 40  1  1  0  0  0
 36 24  1  1  0  0  0
 36 37  1  0  0  0  0
 37 38  1  0  0  0  0
 37 41  1  1  0  0  0
 38 42  1  6  0  0  0
M  CHG  6  14   1  20   1  26   1  32   1  39   1  40   1
M  END
>  <CHROM.1>
-157.51225806,-99.21986588,-153.56843564,50.78031289,-56.49415014,-69.22638065
75.81357462,134.15629798,-175.71576938,-65.28070470,40.22225349,-31.00507626
80.54812799,-97.88498277,42.44105338,178.34398289,63.65427756,-52.57233136
54.90568081,118.17637991,-51.99418398,-179.06008872,7.92021140,-3.75964683
-0.53989631,0.10253375,-1.28188179,-1.48185569

>  <Name>


>  <RI>
0

>  <Rbt.Current_Directory>
/home/itssahil/PROJECTS/Mol_Feturizer/New_Systems/rnas/1qd3

>  <Rbt.Executable>
rbdock ($Id: //depot/dev/client3/rdock/2013.1/src/exe/rbdock.cxx#4 $)

>  <Rbt.Library>
libRbt.so (2013.1, Build901 2013/11/27)

>  <Rbt.Parameter_File>
/export/apps/rDock/src/rDock_2013.1_src/data/scripts/dock_solv.prm

>  <Rbt.Receptor>
prm/pocket_docking_7.prm

>  <SCORE>
-60.3804

>  <SCORE.INTER>
-45.8939

>  <SCORE.INTER.CONST>
1

>  <SCORE.INTER.POLAR>
-7.45972

>  <SCORE.INTER.ROT>
9

>  <SCORE.INTER.SOLV>
40.0039

>  <SCORE.INTER.VDW>
-28.6649

>  <SCORE.INTER.norm>
-1.09271

>  <SCORE.INTRA>
-14.4865

>  <SCORE.INTRA.DIHEDRAL>
-10.1868

>  <SCORE.INTRA.DIHEDRAL.0>
40.6252

>  <SCORE.INTRA.POLAR>
0.185644

>  <SCORE.INTRA.POLAR.0>
-1.20161

>  <SCORE.INTRA.REPUL>
-0.0826912

>  <SCORE.INTRA.REPUL.0>
0.115675

>  <SCORE.INTRA.SOLV>
-6.38703

>  <SCORE.INTRA.SOLV.lig_0>
-154.895

>  <SCORE.INTRA.VDW>
-6.4173

>  <SCORE.INTRA.VDW.0>
2.2925

>  <SCORE.INTRA.norm>
-0.344916

>  <SCORE.RESTR>
0

>  <SCORE.RESTR.CAVITY>
0

>  <SCORE.RESTR.norm>
0

>  <SCORE.SYSTEM>
0

>  <SCORE.SYSTEM.CONST>
0

>  <SCORE.SYSTEM.DIHEDRAL>
0

>  <SCORE.SYSTEM.SOLV>
0

>  <SCORE.SYSTEM.norm>
0

>  <SCORE.heavy>
42

>  <SCORE.norm>
-1.43763

>  <RMSD>
9.058

$$$$

 OpenBabel11021811413D
libRbt.so/2013.1/901 2013/11/27
 42 45  0  0  0  0  0  0  0  0999 V2000
    9.1570    1.8145   -1.6510 O   0  0  0  0  0  0  0  0  0  0  0  0
    8.8962    0.5617   -2.2677 C   0  0  0  0  0  0  0  0  0  0  0  0
    8.0732   -0.3177   -1.3255 C   0  0  1  0  0  0  0  0  0  0  0  0
    8.2466   -1.7188   -1.6297 O   0  0  0  0  0  0  0  0  0  0  0  0
    8.4586   -0.1616    0.1362 C   0  0  2  0  0  0  0  0  0  0  0  0
    7.8824   -1.4438    0.7131 C   0  0  1  0  0  0  0  0  0  0  0  0
    6.4725   -1.3142    0.8597 O   0  0  0  0  0  0  0  0  0  0  0  0
    8.2021   -2.4718   -0.3913 C   0  0  2  0  0  0  0  0  0  0  0  0
   10.8303    2.4247    2.3267 C   0  0  2  0  0  0  0  0  0  0  0  0
    9.9816    1.9207    1.2840 O   0  0  0  0  0  0  0  0  0  0  0  0
    8.6743    1.5739    1.7755 C   0  0  2  0  0  0  0  0  0  0  0  0
    7.8674    1.0175    0.7168 O   0  0  0  0  0  0  0  0  0  0  0  0
    7.9802    2.8035    2.3862 C   0  0  2  0  0  0  0  0  0  0  0  0
    7.4839    3.6846    1.3451 N   0  3  0  0  0  0  0  0  0  0  0  0
    8.8768    3.5757    3.3612 C   0  0  1  0  0  0  0  0  0  0  0  0
    8.9271    2.8873    4.6007 O   0  0  0  0  0  0  0  0  0  0  0  0
   10.2925    3.7612    2.8219 C   0  0  2  0  0  0  0  0  0  0  0  0
   10.2878    4.7104    1.7619 O   0  0  0  0  0  0  0  0  0  0  0  0
   12.2660    2.5674    1.8296 C   0  0  0  0  0  0  0  0  0  0  0  0
   12.3246    3.4843    0.7068 N   0  3  0  0  0  0  0  0  0  0  0  0
    6.7885   -7.5552   -1.2526 C   0  0  1  0  0  0  0  0  0  0  0  0
    6.8807   -6.1930   -0.7858 O   0  0  0  0  0  0  0  0  0  0  0  0
    8.1595   -5.8774   -0.1886 C   0  0  2  0  0  0  0  0  0  0  0  0
    9.2381   -5.9291   -1.1549 O   0  0  0  0  0  0  0  0  0  0  0  0
    8.4412   -6.7992    1.0041 C   0  0  2  0  0  0  0  0  0  0  0  0
    9.8068   -6.6168    1.4596 N   0  3  0  0  0  0  0  0  0  0  0  0
    8.2233   -8.2658    0.6487 C   0  0  1  0  0  0  0  0  0  0  0  0
    8.2627   -9.0544    1.8280 O   0  0  0  0  0  0  0  0  0  0  0  0
    6.9139   -8.5178   -0.0830 C   0  0  2  0  0  0  0  0  0  0  0  0
    6.8587   -9.8583   -0.5485 O   0  0  0  0  0  0  0  0  0  0  0  0
    5.4295   -7.7930   -1.9046 C   0  0  0  0  0  0  0  0  0  0  0  0
    5.1023   -6.7147   -2.8193 N   0  3  0  0  0  0  0  0  0  0  0  0
   11.2517   -2.9825   -3.4706 C   0  0  2  0  0  0  0  0  0  0  0  0
   10.2424   -3.8709   -4.1708 C   0  0  0  0  0  0  0  0  0  0  0  0
    9.9318   -5.0918   -3.3248 C   0  0  1  0  0  0  0  0  0  0  0  0
    9.3215   -4.7305   -1.9698 C   0  0  2  0  0  0  0  0  0  0  0  0
   10.1721   -3.6603   -1.2474 C   0  0  1  0  0  0  0  0  0  0  0  0
   10.7199   -2.5231   -2.1198 C   0  0  1  0  0  0  0  0  0  0  0  0
   11.5352   -1.8277   -4.3012 N   0  3  0  0  0  0  0  0  0  0  0  0
    9.0442   -5.9659   -4.0667 N   0  3  0  0  0  0  0  0  0  0  0  0
    9.4765   -3.1140   -0.0999 O   0  0  0  0  0  0  0  0  0  0  0  0
   11.7400   -1.8235   -1.4149 O   0  0  0  0  0  0  0  0  0  0  0  0
  1  2  1  0  0  0  0
  3  2  1  6  0  0  0
  3  4  1  0  0  0  0
  3  5  1  0  0  0  0
  4  8  1  0  0  0  0
  5  6  1  0  0  0  0
  5 12  1  1  0  0  0
  6  7  1  6  0  0  0
  6  8  1  0  0  0  0
  8 41  1  1  0  0  0
  9 10  1  0  0  0  0
  9 17  1  0  0  0  0
  9 19  1  6  0  0  0
 10 11  1  0  0  0  0
 11 12  1  6  0  0  0
 11 13  1  0  0  0  0
 13 14  1  6  0  0  0
 13 15  1  0  0  0  0
 15 16  1  1  0  0  0
 15 17  1  0  0  0  0
 17 18  1  6  0  0  0
 19 20  1  0  0  0  0
 21 22  1  0  0  0  0
 21 29  1  0  0  0  0
 21 31  1  1  0  0  0
 22 23  1  0  0  0  0
 23 24  1  6  0  0  0
 23 25  1  0  0  0  0
 25 26  1  6  0  0  0
 25 27  1  0  0  0  0
 27 28  1  1  0  0  0
 27 29  1  0  0  0  0
 29 30  1  6  0  0  0
 31 32  1  0  0  0  0
 33 34  1  0  0  0  0
 33 38  1  0  0  0  0
 33 39  1  6  0  0  0
 34 35  1  0  0  0  0
 35 36  1  0  0  0  0
 35 40  1  6  0  0  0
 36 24  1  1  0  0  0
 36 37  1  0  0  0  0
 37 38  1  0  0  0  0
 37 41  1  1  0  0  0
 38 42  1  1  0  0  0
M  CHG  6  14   1  20   1  26   1  32   1  39   1  40   1
M  END
>  <CHROM.1>
59.61203724,-156.18911269,-150.34107591,69.65656300,-38.65134632,59.93807297
58.92131056,128.35033828,60.71149648,67.63627774,157.37422912,46.54945703
80.14840602,-152.07536424,-171.50074563,-176.48753025,60.96964979,-75.76397533
176.17814001,-160.85429627,-59.50240341,56.15719046,8.92275659,-2.25088604
-0.26372376,-1.22246771,-1.02287410,-2.58248603

>  <Name>


>  <RI>
0

>  <Rbt.Current_Directory>
/home/itssahil/PROJECTS/Mol_Feturizer/New_Systems/rnas/1qd3

>  <Rbt.Executable>
rbdock ($Id: //depot/dev/client3/rdock/2013.1/src/exe/rbdock.cxx#4 $)

>  <Rbt.Library>
libRbt.so (2013.1, Build901 2013/11/27)

>  <Rbt.Parameter_File>
/export/apps/rDock/src/rDock_2013.1_src/data/scripts/dock_solv.prm

>  <Rbt.Receptor>
prm/pocket_docking_5.prm

>  <SCORE>
-59.8793

>  <SCORE.INTER>
-38.8364

>  <SCORE.INTER.CONST>
1

>  <SCORE.INTER.POLAR>
-6.41386

>  <SCORE.INTER.ROT>
9

>  <SCORE.INTER.SOLV>
31.2861

>  <SCORE.INTER.VDW>
-24.5401

>  <SCORE.INTER.norm>
-0.924677

>  <SCORE.INTRA>
-21.0429

>  <SCORE.INTRA.DIHEDRAL>
-19.825

>  <SCORE.INTRA.DIHEDRAL.0>
40.6252

>  <SCORE.INTRA.POLAR>
-0.125258

>  <SCORE.INTRA.POLAR.0>
-1.20161

>  <SCORE.INTRA.REPUL>
-0.11552

>  <SCORE.INTRA.REPUL.0>
0.115675

>  <SCORE.INTRA.SOLV>
-6.40419

>  <SCORE.INTRA.SOLV.lig_0>
-154.895

>  <SCORE.INTRA.VDW>
-6.92482

>  <SCORE.INTRA.VDW.0>
2.2925

>  <SCORE.INTRA.norm>
-0.501021

>  <SCORE.RESTR>
0

>  <SCORE.RESTR.CAVITY>
0

>  <SCORE.RESTR.norm>
0

>  <SCORE.SYSTEM>
0

>  <SCORE.SYSTEM.CONST>
0

>  <SCORE.SYSTEM.DIHEDRAL>
0

>  <SCORE.SYSTEM.SOLV>
0

>  <SCORE.SYSTEM.norm>
0

>  <SCORE.heavy>
42

>  <SCORE.norm>
-1.4257

>  <RMSD>
9.068

$$$$

 OpenBabel11021811413D
libRbt.so/2013.1/901 2013/11/27
 42 45  0  0  0  0  0  0  0  0999 V2000
   11.0915    0.0705   -2.6277 O   0  0  0  0  0  0  0  0  0  0  0  0
   10.1021    0.7550   -1.8726 C   0  0  0  0  0  0  0  0  0  0  0  0
    8.8710   -0.1362   -1.7038 C   0  0  1  0  0  0  0  0  0  0  0  0
    9.0900   -1.4467   -2.2699 O   0  0  0  0  0  0  0  0  0  0  0  0
    8.4913   -0.3719   -0.2513 C   0  0  2  0  0  0  0  0  0  0  0  0
    7.6314   -1.6171   -0.3883 C   0  0  1  0  0  0  0  0  0  0  0  0
    6.3439   -1.2608   -0.8796 O   0  0  0  0  0  0  0  0  0  0  0  0
    8.3948   -2.4258   -1.4568 C   0  0  2  0  0  0  0  0  0  0  0  0
   10.5057    2.5875    1.8475 C   0  0  2  0  0  0  0  0  0  0  0  0
    9.7271    1.9525    0.8219 O   0  0  0  0  0  0  0  0  0  0  0  0
    8.4901    1.4256    1.3347 C   0  0  2  0  0  0  0  0  0  0  0  0
    7.7603    0.7446    0.2929 O   0  0  0  0  0  0  0  0  0  0  0  0
    7.6317    2.5487    1.9415 C   0  0  2  0  0  0  0  0  0  0  0  0
    7.0003    3.3352    0.8979 N   0  3  0  0  0  0  0  0  0  0  0  0
    8.4179    3.4552    2.8960 C   0  0  1  0  0  0  0  0  0  0  0  0
    8.5824    2.7969    4.1420 O   0  0  0  0  0  0  0  0  0  0  0  0
    9.7851    3.8377    2.3357 C   0  0  2  0  0  0  0  0  0  0  0  0
    9.6298    4.7628    1.2658 O   0  0  0  0  0  0  0  0  0  0  0  0
   11.8995    2.9312    1.3296 C   0  0  0  0  0  0  0  0  0  0  0  0
   12.8509    2.9716    2.4242 N   0  3  0  0  0  0  0  0  0  0  0  0
    6.3945   -5.9251   -3.7101 C   0  0  1  0  0  0  0  0  0  0  0  0
    6.8036   -5.0322   -2.6530 O   0  0  0  0  0  0  0  0  0  0  0  0
    7.7893   -5.6087   -1.7656 C   0  0  2  0  0  0  0  0  0  0  0  0
    9.0471   -5.8594   -2.4399 O   0  0  0  0  0  0  0  0  0  0  0  0
    7.2475   -6.8865   -1.1133 C   0  0  2  0  0  0  0  0  0  0  0  0
    8.3104   -7.5654   -0.3957 N   0  3  0  0  0  0  0  0  0  0  0  0
    6.6515   -7.8384   -2.1443 C   0  0  1  0  0  0  0  0  0  0  0  0
    5.9574   -8.8852   -1.4835 O   0  0  0  0  0  0  0  0  0  0  0  0
    5.7130   -7.1508   -3.1240 C   0  0  2  0  0  0  0  0  0  0  0  0
    5.3430   -8.0449   -4.1634 O   0  0  0  0  0  0  0  0  0  0  0  0
    5.3894   -5.2283   -4.6227 C   0  0  0  0  0  0  0  0  0  0  0  0
    4.9577   -3.9686   -4.0450 N   0  3  0  0  0  0  0  0  0  0  0  0
   12.3896   -3.3013   -3.0591 C   0  0  2  0  0  0  0  0  0  0  0  0
   11.6468   -3.8100   -4.2788 C   0  0  0  0  0  0  0  0  0  0  0  0
   10.7715   -4.9942   -3.9125 C   0  0  1  0  0  0  0  0  0  0  0  0
    9.7052   -4.6406   -2.8748 C   0  0  2  0  0  0  0  0  0  0  0  0
   10.3330   -3.9186   -1.6601 C   0  0  1  0  0  0  0  0  0  0  0  0
   11.4123   -2.8737   -1.9725 C   0  0  1  0  0  0  0  0  0  0  0  0
   13.2219   -2.1750   -3.4368 N   0  3  0  0  0  0  0  0  0  0  0  0
   10.1567   -5.5163   -5.1174 N   0  3  0  0  0  0  0  0  0  0  0  0
    9.3183   -3.3420   -0.8018 O   0  0  0  0  0  0  0  0  0  0  0  0
   12.1271   -2.5493   -0.7846 O   0  0  0  0  0  0  0  0  0  0  0  0
  1  2  1  0  0  0  0
  3  2  1  1  0  0  0
  3  4  1  0  0  0  0
  3  5  1  0  0  0  0
  4  8  1  0  0  0  0
  5  6  1  0  0  0  0
  5 12  1  6  0  0  0
  6  7  1  6  0  0  0
  6  8  1  0  0  0  0
  8 41  1  1  0  0  0
  9 10  1  0  0  0  0
  9 17  1  0  0  0  0
  9 19  1  6  0  0  0
 10 11  1  0  0  0  0
 11 12  1  6  0  0  0
 11 13  1  0  0  0  0
 13 14  1  6  0  0  0
 13 15  1  0  0  0  0
 15 16  1  1  0  0  0
 15 17  1  0  0  0  0
 17 18  1  6  0  0  0
 19 20  1  0  0  0  0
 21 22  1  0  0  0  0
 21 29  1  0  0  0  0
 21 31  1  6  0  0  0
 22 23  1  0  0  0  0
 23 24  1  6  0  0  0
 23 25  1  0  0  0  0
 25 26  1  6  0  0  0
 25 27  1  0  0  0  0
 27 28  1  1  0  0  0
 27 29  1  0  0  0  0
 29 30  1  6  0  0  0
 31 32  1  0  0  0  0
 33 34  1  0  0  0  0
 33 38  1  0  0  0  0
 33 39  1  6  0  0  0
 34 35  1  0  0  0  0
 35 36  1  0  0  0  0
 35 40  1  6  0  0  0
 36 24  1  1  0  0  0
 36 37  1  0  0  0  0
 37 38  1  0  0  0  0
 37 41  1  6  0  0  0
 38 42  1  1  0  0  0
M  CHG  6  14   1  20   1  26   1  32   1  39   1  40   1
M  END
>  <CHROM.1>
156.33093759,4.08206965,-114.04758000,-88.07351005,-48.21270003,-153.35515934
60.92779291,60.75294098,57.62367827,167.19080780,-166.49523163,-9.94154228
65.45967962,-163.29636440,-41.23128973,-167.31451008,62.51218236,137.16418387
-172.03605221,178.79180404,-55.67894126,-63.43157457,8.88292570,-2.08752033
-1.17995492,-1.34326048,-0.28671374,-2.61660957

>  <Name>


>  <RI>
0

>  <Rbt.Current_Directory>
/home/itssahil/PROJECTS/Mol_Feturizer/New_Systems/rnas/1qd3

>  <Rbt.Executable>
rbdock ($Id: //depot/dev/client3/rdock/2013.1/src/exe/rbdock.cxx#4 $)

>  <Rbt.Library>
libRbt.so (2013.1, Build901 2013/11/27)

>  <Rbt.Parameter_File>
/export/apps/rDock/src/rDock_2013.1_src/data/scripts/dock_solv.prm

>  <Rbt.Receptor>
prm/pocket_docking_3.prm

>  <SCORE>
-57.9705

>  <SCORE.INTER>
-43.7877

>  <SCORE.INTER.CONST>
1

>  <SCORE.INTER.POLAR>
-7.44535

>  <SCORE.INTER.ROT>
9

>  <SCORE.INTER.SOLV>
33.9039

>  <SCORE.INTER.VDW>
-25.2752

>  <SCORE.INTER.norm>
-1.04256

>  <SCORE.INTRA>
-16.0754

>  <SCORE.INTRA.DIHEDRAL>
-5.32098

>  <SCORE.INTRA.DIHEDRAL.0>
40.6252

>  <SCORE.INTRA.POLAR>
0.49106

>  <SCORE.INTRA.POLAR.0>
-1.20161

>  <SCORE.INTRA.REPUL>
-0.115675

>  <SCORE.INTRA.REPUL.0>
0.115675

>  <SCORE.INTRA.SOLV>
-11.5037

>  <SCORE.INTRA.SOLV.lig_0>
-154.895

>  <SCORE.INTRA.VDW>
-8.75427

>  <SCORE.INTRA.VDW.0>
2.2925

>  <SCORE.INTRA.norm>
-0.382747

>  <SCORE.RESTR>
1.89256

>  <SCORE.RESTR.CAVITY>
1.89256

>  <SCORE.RESTR.norm>
0.045061

>  <SCORE.SYSTEM>
0

>  <SCORE.SYSTEM.CONST>
0

>  <SCORE.SYSTEM.DIHEDRAL>
0

>  <SCORE.SYSTEM.SOLV>
0

>  <SCORE.SYSTEM.norm>
0

>  <SCORE.heavy>
42

>  <SCORE.norm>
-1.38025

>  <RMSD>
9.070

$$$$

 OpenBabel11021811413D
libRbt.so/2013.1/901 2013/11/27
 42 45  0  0  0  0  0  0  0  0999 V2000
    8.8096    0.6074   -2.6001 O   0  0  0  0  0  0  0  0  0  0  0  0
    7.6704   -0.2395   -2.6529 C   0  0  0  0  0  0  0  0  0  0  0  0
    7.3600   -0.7773   -1.2554 C   0  0  1  0  0  0  0  0  0  0  0  0
    7.5275   -2.2104   -1.1952 O   0  0  0  0  0  0  0  0  0  0  0  0
    8.2661   -0.2097   -0.1755 C   0  0  2  0  0  0  0  0  0  0  0  0
    8.0768   -1.2472    0.9185 C   0  0  1  0  0  0  0  0  0  0  0  0
    6.8286   -1.0374    1.5695 O   0  0  0  0  0  0  0  0  0  0  0  0
    8.0347   -2.5640    0.1165 C   0  0  2  0  0  0  0  0  0  0  0  0
   10.6260    2.5673    2.0957 C   0  0  2  0  0  0  0  0  0  0  0  0
    9.8457    2.1293    0.9728 O   0  0  0  0  0  0  0  0  0  0  0  0
    8.5755    1.5886    1.3791 C   0  0  2  0  0  0  0  0  0  0  0  0
    7.8424    1.1055    0.2342 O   0  0  0  0  0  0  0  0  0  0  0  0
    7.7516    2.6461    2.1335 C   0  0  2  0  0  0  0  0  0  0  0  0
    7.1792    3.6081    1.2098 N   0  3  0  0  0  0  0  0  0  0  0  0
    8.5526    3.3624    3.2271 C   0  0  1  0  0  0  0  0  0  0  0  0
    8.6593    2.5181    4.3622 O   0  0  0  0  0  0  0  0  0  0  0  0
    9.9478    3.7618    2.7543 C   0  0  2  0  0  0  0  0  0  0  0  0
    9.8576    4.8429    1.8337 O   0  0  0  0  0  0  0  0  0  0  0  0
   12.0451    2.9207    1.6594 C   0  0  0  0  0  0  0  0  0  0  0  0
   12.5606    1.9150    0.7495 N   0  3  0  0  0  0  0  0  0  0  0  0
    6.6538   -7.2410   -1.8607 C   0  0  1  0  0  0  0  0  0  0  0  0
    6.8245   -6.0849   -1.0143 O   0  0  0  0  0  0  0  0  0  0  0  0
    8.1777   -5.9242   -0.5301 C   0  0  2  0  0  0  0  0  0  0  0  0
    9.1089   -5.6408   -1.6036 O   0  0  0  0  0  0  0  0  0  0  0  0
    8.6153   -7.1569    0.2703 C   0  0  2  0  0  0  0  0  0  0  0  0
   10.0332   -7.0765    0.5682 N   0  3  0  0  0  0  0  0  0  0  0  0
    8.3348   -8.4506   -0.4861 C   0  0  1  0  0  0  0  0  0  0  0  0
    8.5320   -9.5607    0.3759 O   0  0  0  0  0  0  0  0  0  0  0  0
    6.9329   -8.5107   -1.0732 C   0  0  2  0  0  0  0  0  0  0  0  0
    6.7993   -9.6452   -1.9167 O   0  0  0  0  0  0  0  0  0  0  0  0
    5.2141   -7.3137   -2.3614 C   0  0  0  0  0  0  0  0  0  0  0  0
    5.0308   -8.4584   -3.2348 N   0  3  0  0  0  0  0  0  0  0  0  0
   10.5385   -2.0723   -3.4260 C   0  0  2  0  0  0  0  0  0  0  0  0
    9.4729   -2.8665   -4.1553 C   0  0  0  0  0  0  0  0  0  0  0  0
    9.3764   -4.2712   -3.5894 C   0  0  1  0  0  0  0  0  0  0  0  0
    8.9883   -4.2857   -2.1101 C   0  0  2  0  0  0  0  0  0  0  0  0
    9.8920   -3.3348   -1.2916 C   0  0  1  0  0  0  0  0  0  0  0  0
   10.2217   -1.9835   -1.9393 C   0  0  1  0  0  0  0  0  0  0  0  0
   10.6144   -0.7376   -3.9889 N   0  3  0  0  0  0  0  0  0  0  0  0
    8.4226   -5.0309   -4.3739 N   0  3  0  0  0  0  0  0  0  0  0  0
    9.3747   -3.1304    0.0461 O   0  0  0  0  0  0  0  0  0  0  0  0
   11.3088   -1.3723   -1.2524 O   0  0  0  0  0  0  0  0  0  0  0  0
  1  2  1  0  0  0  0
  3  2  1  6  0  0  0
  3  4  1  0  0  0  0
  3  5  1  0  0  0  0
  4  8  1  0  0  0  0
  5  6  1  0  0  0  0
  5 12  1  1  0  0  0
  6  7  1  6  0  0  0
  6  8  1  0  0  0  0
  8 41  1  6  0  0  0
  9 10  1  0  0  0  0
  9 17  1  0  0  0  0
  9 19  1  6  0  0  0
 10 11  1  0  0  0  0
 11 12  1  6  0  0  0
 11 13  1  0  0  0  0
 13 14  1  6  0  0  0
 13 15  1  0  0  0  0
 15 16  1  1  0  0  0
 15 17  1  0  0  0  0
 17 18  1  6  0  0  0
 19 20  1  0  0  0  0
 21 22  1  0  0  0  0
 21 29  1  0  0  0  0
 21 31  1  1  0  0  0
 22 23  1  0  0  0  0
 23 24  1  6  0  0  0
 23 25  1  0  0  0  0
 25 26  1  6  0  0  0
 25 27  1  0  0  0  0
 27 28  1  1  0  0  0
 27 29  1  0  0  0  0
 29 30  1  6  0  0  0
 31 32  1  0  0  0  0
 33 34  1  0  0  0  0
 33 38  1  0  0  0  0
 33 39  1  6  0  0  0
 34 35  1  0  0  0  0
 35 36  1  0  0  0  0
 35 40  1  6  0  0  0
 36 24  1  1  0  0  0
 36 37  1  0  0  0  0
 37 38  1  0  0  0  0
 37 41  1  1  0  0  0
 38 42  1  1  0  0  0
M  CHG  6  14   1  20   1  26   1  32   1  39   1  40   1
M  END
>  <CHROM.1>
-164.84358711,-115.25549428,172.20410790,69.75756538,-4.88943416,-43.90289144
81.32917739,-106.91085228,172.13860757,-72.89503916,-32.72251665,178.96371747
73.95472101,-150.06218867,-35.84809021,-50.55672821,168.95005463,-68.92757643
-93.00849046,177.13390332,-59.24107167,60.38023036,8.68725786,-2.25679096
-0.52728617,-1.12762243,-1.15020403,-2.42739635

>  <Name>


>  <RI>
0

>  <Rbt.Current_Directory>
/home/itssahil/PROJECTS/Mol_Feturizer/New_Systems/rnas/1qd3

>  <Rbt.Executable>
rbdock ($Id: //depot/dev/client3/rdock/2013.1/src/exe/rbdock.cxx#4 $)

>  <Rbt.Library>
libRbt.so (2013.1, Build901 2013/11/27)

>  <Rbt.Parameter_File>
/export/apps/rDock/src/rDock_2013.1_src/data/scripts/dock_solv.prm

>  <Rbt.Receptor>
prm/pocket_docking_4.prm

>  <SCORE>
-55.7348

>  <SCORE.INTER>
-46.3103

>  <SCORE.INTER.CONST>
1

>  <SCORE.INTER.POLAR>
-8.09823

>  <SCORE.INTER.ROT>
9

>  <SCORE.INTER.SOLV>
35.0786

>  <SCORE.INTER.VDW>
-25.1723

>  <SCORE.INTER.norm>
-1.10263

>  <SCORE.INTRA>
-10.0432

>  <SCORE.INTRA.DIHEDRAL>
-7.19501

>  <SCORE.INTRA.DIHEDRAL.0>
40.6252

>  <SCORE.INTRA.POLAR>
-0.153746

>  <SCORE.INTRA.POLAR.0>
-1.20161

>  <SCORE.INTRA.REPUL>
0.109153

>  <SCORE.INTRA.REPUL.0>
0.115675

>  <SCORE.INTRA.SOLV>
-2.80511

>  <SCORE.INTRA.SOLV.lig_0>
-154.895

>  <SCORE.INTRA.VDW>
-5.06613

>  <SCORE.INTRA.VDW.0>
2.2925

>  <SCORE.INTRA.norm>
-0.239123

>  <SCORE.RESTR>
0.618698

>  <SCORE.RESTR.CAVITY>
0.618698

>  <SCORE.RESTR.norm>
0.0147309

>  <SCORE.SYSTEM>
0

>  <SCORE.SYSTEM.CONST>
0

>  <SCORE.SYSTEM.DIHEDRAL>
0

>  <SCORE.SYSTEM.SOLV>
0

>  <SCORE.SYSTEM.norm>
0

>  <SCORE.heavy>
42

>  <SCORE.norm>
-1.32702

>  <RMSD>
9.074

$$$$

 OpenBabel11021811413D
libRbt.so/2013.1/901 2013/11/27
 42 45  0  0  0  0  0  0  0  0999 V2000
   12.9081   -2.6683   -4.3077 O   0  0  0  0  0  0  0  0  0  0  0  0
   12.5789   -3.9947   -3.9202 C   0  0  0  0  0  0  0  0  0  0  0  0
   11.2262   -4.0050   -3.2072 C   0  0  1  0  0  0  0  0  0  0  0  0
   10.8436   -5.3445   -2.8264 O   0  0  0  0  0  0  0  0  0  0  0  0
   11.2144   -3.1915   -1.9237 C   0  0  2  0  0  0  0  0  0  0  0  0
    9.9976   -3.7828   -1.2319 C   0  0  1  0  0  0  0  0  0  0  0  0
    8.8102   -3.2584   -1.8159 O   0  0  0  0  0  0  0  0  0  0  0  0
   10.1279   -5.2827   -1.5667 C   0  0  2  0  0  0  0  0  0  0  0  0
   14.0019    0.0809   -1.0711 C   0  0  2  0  0  0  0  0  0  0  0  0
   13.1457   -0.6810   -1.9359 O   0  0  0  0  0  0  0  0  0  0  0  0
   11.8775   -0.9685   -1.3197 C   0  0  2  0  0  0  0  0  0  0  0  0
   11.0654   -1.7831   -2.1906 O   0  0  0  0  0  0  0  0  0  0  0  0
   11.1392    0.3335   -0.9641 C   0  0  2  0  0  0  0  0  0  0  0  0
   10.5591    0.9366   -2.1499 N   0  3  0  0  0  0  0  0  0  0  0  0
   12.0261    1.3436   -0.2267 C   0  0  1  0  0  0  0  0  0  0  0  0
   12.1576    0.9520    1.1306 O   0  0  0  0  0  0  0  0  0  0  0  0
   13.4096    1.4683   -0.8590 C   0  0  2  0  0  0  0  0  0  0  0  0
   13.3157    2.1559   -2.1011 O   0  0  0  0  0  0  0  0  0  0  0  0
   15.4093    0.1742   -1.6537 C   0  0  0  0  0  0  0  0  0  0  0  0
   16.0896   -1.1023   -1.5416 N   0  3  0  0  0  0  0  0  0  0  0  0
    7.2949   -9.5015    0.2169 C   0  0  1  0  0  0  0  0  0  0  0  0
    8.3758   -8.8477   -0.4805 O   0  0  0  0  0  0  0  0  0  0  0  0
    8.1561   -7.4322   -0.6792 C   0  0  2  0  0  0  0  0  0  0  0  0
    8.1339   -6.7045    0.5737 O   0  0  0  0  0  0  0  0  0  0  0  0
    6.8710   -7.1920   -1.4809 C   0  0  2  0  0  0  0  0  0  0  0  0
    6.5511   -5.7767   -1.4917 N   0  3  0  0  0  0  0  0  0  0  0  0
    5.6920   -7.9678   -0.9042 C   0  0  1  0  0  0  0  0  0  0  0  0
    4.5946   -7.9068   -1.8021 O   0  0  0  0  0  0  0  0  0  0  0  0
    6.0193   -9.4229   -0.6058 C   0  0  2  0  0  0  0  0  0  0  0  0
    4.9485  -10.0353    0.0977 O   0  0  0  0  0  0  0  0  0  0  0  0
    7.6231  -10.9775    0.4226 C   0  0  0  0  0  0  0  0  0  0  0  0
    7.9899  -11.6026   -0.8350 N   0  3  0  0  0  0  0  0  0  0  0  0
   11.1455   -5.3468    3.2543 C   0  0  2  0  0  0  0  0  0  0  0  0
   10.3566   -6.5834    3.6372 C   0  0  0  0  0  0  0  0  0  0  0  0
    9.0932   -6.6872    2.8030 C   0  0  1  0  0  0  0  0  0  0  0  0
    9.3830   -6.8070    1.3062 C   0  0  2  0  0  0  0  0  0  0  0  0
   10.3588   -5.7013    0.8412 C   0  0  1  0  0  0  0  0  0  0  0  0
   11.5300   -5.3873    1.7815 C   0  0  1  0  0  0  0  0  0  0  0  0
   12.3432   -5.2681    4.0687 N   0  3  0  0  0  0  0  0  0  0  0  0
    8.3159   -7.8211    3.2640 N   0  3  0  0  0  0  0  0  0  0  0  0
   10.8519   -5.9559   -0.4971 O   0  0  0  0  0  0  0  0  0  0  0  0
   12.1301   -4.1515    1.4077 O   0  0  0  0  0  0  0  0  0  0  0  0
  1  2  1  0  0  0  0
  3  2  1  1  0  0  0
  3  4  1  0  0  0  0
  3  5  1  0  0  0  0
  4  8  1  0  0  0  0
  5  6  1  0  0  0  0
  5 12  1  6  0  0  0
  6  7  1  6  0  0  0
  6  8  1  0  0  0  0
  8 41  1  1  0  0  0
  9 10  1  0  0  0  0
  9 17  1  0  0  0  0
  9 19  1  6  0  0  0
 10 11  1  0  0  0  0
 11 12  1  6  0  0  0
 11 13  1  0  0  0  0
 13 14  1  6  0  0  0
 13 15  1  0  0  0  0
 15 16  1  1  0  0  0
 15 17  1  0  0  0  0
 17 18  1  6  0  0  0
 19 20  1  0  0  0  0
 21 22  1  0  0  0  0
 21 29  1  0  0  0  0
 21 31  1  6  0  0  0
 22 23  1  0  0  0  0
 23 24  1  1  0  0  0
 23 25  1  0  0  0  0
 25 26  1  1  0  0  0
 25 27  1  0  0  0  0
 27 28  1  6  0  0  0
 27 29  1  0  0  0  0
 29 30  1  1  0  0  0
 31 32  1  0  0  0  0
 33 34  1  0  0  0  0
 33 38  1  0  0  0  0
 33 39  1  1  0  0  0
 34 35  1  0  0  0  0
 35 36  1  0  0  0  0
 35 40  1  1  0  0  0
 36 24  1  6  0  0  0
 36 37  1  0  0  0  0
 37 38  1  0  0  0  0
 37 41  1  6  0  0  0
 38 42  1  6  0  0  0
M  CHG  6  14   1  20   1  26   1  32   1  39   1  40   1
M  END
>  <CHROM.1>
58.49443210,178.61839944,-140.93796397,-174.19518671,167.36769000,-72.49267165
93.28869242,82.14909244,179.36207772,54.54089271,-59.35749328,-52.56797265
60.98101694,-151.00467834,-161.09828437,-172.19078263,70.95640497,-54.34036995
-54.14534564,-167.95237950,95.50592233,54.76198445,10.22589688,-4.55447126
-0.50922611,0.61653552,-0.82486423,-0.97976737

>  <Name>


>  <RI>
0

>  <Rbt.Current_Directory>
/home/itssahil/PROJECTS/Mol_Feturizer/New_Systems/rnas/1qd3

>  <Rbt.Executable>
rbdock ($Id: //depot/dev/client3/rdock/2013.1/src/exe/rbdock.cxx#4 $)

>  <Rbt.Library>
libRbt.so (2013.1, Build901 2013/11/27)

>  <Rbt.Parameter_File>
/export/apps/rDock/src/rDock_2013.1_src/data/scripts/dock_solv.prm

>  <Rbt.Receptor>
prm/pocket_docking_6.prm

>  <SCORE>
-51.023

>  <SCORE.INTER>
-28.7028

>  <SCORE.INTER.CONST>
1

>  <SCORE.INTER.POLAR>
-6.02332

>  <SCORE.INTER.ROT>
9

>  <SCORE.INTER.SOLV>
24.0541

>  <SCORE.INTER.VDW>
-16.6755

>  <SCORE.INTER.norm>
-0.683399

>  <SCORE.INTRA>
-22.3229

>  <SCORE.INTRA.DIHEDRAL>
-17.4296

>  <SCORE.INTRA.DIHEDRAL.0>
40.6252

>  <SCORE.INTRA.POLAR>
0.171614

>  <SCORE.INTRA.POLAR.0>
-1.20161

>  <SCORE.INTRA.REPUL>
-0.115675

>  <SCORE.INTRA.REPUL.0>
0.115675

>  <SCORE.INTRA.SOLV>
-8.96075

>  <SCORE.INTRA.SOLV.lig_0>
-154.895

>  <SCORE.INTRA.VDW>
-9.13278

>  <SCORE.INTRA.VDW.0>
2.2925

>  <SCORE.INTRA.norm>
-0.531496

>  <SCORE.RESTR>
0.0026478

>  <SCORE.RESTR.CAVITY>
0.0026478

>  <SCORE.RESTR.norm>
6.30429e-05

>  <SCORE.SYSTEM>
0

>  <SCORE.SYSTEM.CONST>
0

>  <SCORE.SYSTEM.DIHEDRAL>
0

>  <SCORE.SYSTEM.SOLV>
0

>  <SCORE.SYSTEM.norm>
0

>  <SCORE.heavy>
42

>  <SCORE.norm>
-1.21483

>  <RMSD>
9.074

$$$$

 OpenBabel11021811413D
libRbt.so/2013.1/901 2013/11/27
 42 45  0  0  0  0  0  0  0  0999 V2000
   10.6022    2.4628   -1.2007 O   0  0  0  0  0  0  0  0  0  0  0  0
   10.8269    1.1639   -1.7299 C   0  0  0  0  0  0  0  0  0  0  0  0
    9.5148    0.3787   -1.7492 C   0  0  1  0  0  0  0  0  0  0  0  0
    9.6963   -0.9330   -2.3254 O   0  0  0  0  0  0  0  0  0  0  0  0
    8.9310    0.1450   -0.3657 C   0  0  2  0  0  0  0  0  0  0  0  0
    7.9961   -1.0180   -0.6523 C   0  0  1  0  0  0  0  0  0  0  0  0
    6.8176   -0.5413   -1.2922 O   0  0  0  0  0  0  0  0  0  0  0  0
    8.8226   -1.8660   -1.6405 C   0  0  2  0  0  0  0  0  0  0  0  0
   10.4068    2.7283    2.6856 C   0  0  2  0  0  0  0  0  0  0  0  0
    9.9254    2.3760    1.3796 O   0  0  0  0  0  0  0  0  0  0  0  0
    8.6569    1.6991    1.4387 C   0  0  2  0  0  0  0  0  0  0  0  0
    8.2304    1.3083    0.1170 O   0  0  0  0  0  0  0  0  0  0  0  0
    7.5945    2.5938    2.1000 C   0  0  2  0  0  0  0  0  0  0  0  0
    7.1378    3.6178    1.1785 N   0  3  0  0  0  0  0  0  0  0  0  0
    8.0752    3.2267    3.4112 C   0  0  1  0  0  0  0  0  0  0  0  0
    8.0231    2.2594    4.4478 O   0  0  0  0  0  0  0  0  0  0  0  0
    9.4930    3.7808    3.3001 C   0  0  2  0  0  0  0  0  0  0  0  0
    9.4932    4.9572    2.4998 O   0  0  0  0  0  0  0  0  0  0  0  0
   11.8446    3.2341    2.6104 C   0  0  0  0  0  0  0  0  0  0  0  0
   12.6208    2.4201    1.6939 N   0  3  0  0  0  0  0  0  0  0  0  0
    6.3703   -5.7169   -3.4343 C   0  0  1  0  0  0  0  0  0  0  0  0
    6.8402   -4.6520   -2.5815 O   0  0  0  0  0  0  0  0  0  0  0  0
    7.8124   -5.0880   -1.6037 C   0  0  2  0  0  0  0  0  0  0  0  0
    9.0448   -5.5320   -2.2232 O   0  0  0  0  0  0  0  0  0  0  0  0
    7.2214   -6.1799   -0.7036 C   0  0  2  0  0  0  0  0  0  0  0  0
    8.2629   -6.7540    0.1278 N   0  3  0  0  0  0  0  0  0  0  0  0
    6.5625   -7.2879   -1.5177 C   0  0  1  0  0  0  0  0  0  0  0  0
    5.8307   -8.1445   -0.6547 O   0  0  0  0  0  0  0  0  0  0  0  0
    5.6411   -6.7642   -2.6086 C   0  0  2  0  0  0  0  0  0  0  0  0
    5.2105   -7.8287   -3.4441 O   0  0  0  0  0  0  0  0  0  0  0  0
    5.3839   -5.1673   -4.4609 C   0  0  0  0  0  0  0  0  0  0  0  0
    4.8611   -3.8822   -4.0346 N   0  3  0  0  0  0  0  0  0  0  0  0
   12.6010   -3.3933   -3.1606 C   0  0  2  0  0  0  0  0  0  0  0  0
   11.7957   -3.9727   -4.3068 C   0  0  0  0  0  0  0  0  0  0  0  0
   10.8196   -5.0165   -3.7964 C   0  0  1  0  0  0  0  0  0  0  0  0
    9.8067   -4.4418   -2.8050 C   0  0  2  0  0  0  0  0  0  0  0  0
   10.5174   -3.6414   -1.6892 C   0  0  1  0  0  0  0  0  0  0  0  0
   11.6844   -2.7479   -2.1300 C   0  0  1  0  0  0  0  0  0  0  0  0
   13.5287   -2.4041   -3.6752 N   0  3  0  0  0  0  0  0  0  0  0  0
   10.1406   -5.6195   -4.9268 N   0  3  0  0  0  0  0  0  0  0  0  0
    9.5739   -2.8727   -0.9032 O   0  0  0  0  0  0  0  0  0  0  0  0
   12.4442   -2.3518   -0.9930 O   0  0  0  0  0  0  0  0  0  0  0  0
  1  2  1  0  0  0  0
  3  2  1  1  0  0  0
  3  4  1  0  0  0  0
  3  5  1  0  0  0  0
  4  8  1  0  0  0  0
  5  6  1  0  0  0  0
  5 12  1  6  0  0  0
  6  7  1  6  0  0  0
  6  8  1  0  0  0  0
  8 41  1  1  0  0  0
  9 10  1  0  0  0  0
  9 17  1  0  0  0  0
  9 19  1  6  0  0  0
 10 11  1  0  0  0  0
 11 12  1  6  0  0  0
 11 13  1  0  0  0  0
 13 14  1  6  0  0  0
 13 15  1  0  0  0  0
 15 16  1  1  0  0  0
 15 17  1  0  0  0  0
 17 18  1  6  0  0  0
 19 20  1  0  0  0  0
 21 22  1  0  0  0  0
 21 29  1  0  0  0  0
 21 31  1  6  0  0  0
 22 23  1  0  0  0  0
 23 24  1  6  0  0  0
 23 25  1  0  0  0  0
 25 26  1  6  0  0  0
 25 27  1  0  0  0  0
 27 28  1  1  0  0  0
 27 29  1  0  0  0  0
 29 30  1  6  0  0  0
 31 32  1  0  0  0  0
 33 34  1  0  0  0  0
 33 38  1  0  0  0  0
 33 39  1  6  0  0  0
 34 35  1  0  0  0  0
 35 36  1  0  0  0  0
 35 40  1  6  0  0  0
 36 24  1  1  0  0  0
 36 37  1  0  0  0  0
 37 38  1  0  0  0  0
 37 41  1  6  0  0  0
 38 42  1  1  0  0  0
M  CHG  6  14   1  20   1  26   1  32   1  39   1  40   1
M  END
>  <CHROM.1>
175.55467297,177.99375695,-128.78994815,57.87753815,-56.17123439,-41.58449210
76.88776814,-95.64943098,-65.47634836,-173.37913969,175.33454871,-18.97466896
70.17056110,-162.09214204,174.16441035,-175.26993498,-73.74404442,139.96627296
-151.71237828,-62.58943476,-61.46519098,74.12532530,8.96283785,-1.77483764
-0.94712496,-1.35528675,-0.36034815,-2.58247433

>  <Name>


>  <RI>
0

>  <Rbt.Current_Directory>
/home/itssahil/PROJECTS/Mol_Feturizer/New_Systems/rnas/1qd3

>  <Rbt.Executable>
rbdock ($Id: //depot/dev/client3/rdock/2013.1/src/exe/rbdock.cxx#4 $)

>  <Rbt.Library>
libRbt.so (2013.1, Build901 2013/11/27)

>  <Rbt.Parameter_File>
/export/apps/rDock/src/rDock_2013.1_src/data/scripts/dock_solv.prm

>  <Rbt.Receptor>
prm/pocket_docking_4.prm

>  <SCORE>
-59.1695

>  <SCORE.INTER>
-41.1312

>  <SCORE.INTER.CONST>
1

>  <SCORE.INTER.POLAR>
-6.65954

>  <SCORE.INTER.ROT>
9

>  <SCORE.INTER.SOLV>
35.9161

>  <SCORE.INTER.VDW>
-26.7944

>  <SCORE.INTER.norm>
-0.979315

>  <SCORE.INTRA>
-18.0515

>  <SCORE.INTRA.DIHEDRAL>
-13.347

>  <SCORE.INTRA.DIHEDRAL.0>
40.6252

>  <SCORE.INTRA.POLAR>
0.839498

>  <SCORE.INTRA.POLAR.0>
-1.20161

>  <SCORE.INTRA.REPUL>
-0.115675

>  <SCORE.INTRA.REPUL.0>
0.115675

>  <SCORE.INTRA.SOLV>
-10.7289

>  <SCORE.INTRA.SOLV.lig_0>
-154.895

>  <SCORE.INTRA.VDW>
-8.28951

>  <SCORE.INTRA.VDW.0>
2.2925

>  <SCORE.INTRA.norm>
-0.429799

>  <SCORE.RESTR>
0.0132726

>  <SCORE.RESTR.CAVITY>
0.0132726

>  <SCORE.RESTR.norm>
0.000316015

>  <SCORE.SYSTEM>
0

>  <SCORE.SYSTEM.CONST>
0

>  <SCORE.SYSTEM.DIHEDRAL>
0

>  <SCORE.SYSTEM.SOLV>
0

>  <SCORE.SYSTEM.norm>
0

>  <SCORE.heavy>
42

>  <SCORE.norm>
-1.4088

>  <RMSD>
9.081

$$$$

 OpenBabel11021811413D
libRbt.so/2013.1/901 2013/11/27
 42 45  0  0  0  0  0  0  0  0999 V2000
    8.5962   -1.1720   -2.8873 O   0  0  0  0  0  0  0  0  0  0  0  0
    7.2705   -0.8264   -2.5120 C   0  0  0  0  0  0  0  0  0  0  0  0
    7.0476   -1.1570   -1.0357 C   0  0  1  0  0  0  0  0  0  0  0  0
    7.1663   -2.5755   -0.7916 O   0  0  0  0  0  0  0  0  0  0  0  0
    8.0535   -0.4930   -0.1101 C   0  0  2  0  0  0  0  0  0  0  0  0
    7.9098   -1.3645    1.1262 C   0  0  1  0  0  0  0  0  0  0  0  0
    6.7233   -1.0112    1.8285 O   0  0  0  0  0  0  0  0  0  0  0  0
    7.7584   -2.7734    0.5173 C   0  0  2  0  0  0  0  0  0  0  0  0
   10.6492    3.0556    0.1426 C   0  0  2  0  0  0  0  0  0  0  0  0
    9.5075    2.3426   -0.3570 O   0  0  0  0  0  0  0  0  0  0  0  0
    8.8161    1.6348    0.6880 C   0  0  2  0  0  0  0  0  0  0  0  0
    7.7109    0.8836    0.1441 O   0  0  0  0  0  0  0  0  0  0  0  0
    8.3185    2.6112    1.7676 C   0  0  2  0  0  0  0  0  0  0  0  0
    7.1408    3.3263    1.3116 N   0  3  0  0  0  0  0  0  0  0  0  0
    9.3992    3.5956    2.2300 C   0  0  1  0  0  0  0  0  0  0  0  0
   10.2867    2.9369    3.1195 O   0  0  0  0  0  0  0  0  0  0  0  0
   10.1876    4.1799    1.0610 C   0  0  2  0  0  0  0  0  0  0  0  0
    9.3764    5.0997    0.3397 O   0  0  0  0  0  0  0  0  0  0  0  0
   11.4869    3.6040   -1.0090 C   0  0  0  0  0  0  0  0  0  0  0  0
   12.3041    2.5533   -1.5862 N   0  3  0  0  0  0  0  0  0  0  0  0
   12.1962   -4.1218   -2.7293 C   0  0  1  0  0  0  0  0  0  0  0  0
   11.1324   -3.4984   -1.9798 O   0  0  0  0  0  0  0  0  0  0  0  0
    9.8532   -4.1513   -2.1495 C   0  0  2  0  0  0  0  0  0  0  0  0
    9.8506   -5.4925   -1.6008 O   0  0  0  0  0  0  0  0  0  0  0  0
    9.4414   -4.1576   -3.6267 C   0  0  2  0  0  0  0  0  0  0  0  0
    8.2698   -4.9937   -3.8108 N   0  3  0  0  0  0  0  0  0  0  0  0
   10.5648   -4.6644   -4.5244 C   0  0  1  0  0  0  0  0  0  0  0  0
   10.2314   -4.4325   -5.8843 O   0  0  0  0  0  0  0  0  0  0  0  0
   11.9111   -4.0260   -4.2192 C   0  0  2  0  0  0  0  0  0  0  0  0
   12.9411   -4.6712   -4.9537 O   0  0  0  0  0  0  0  0  0  0  0  0
   13.5147   -3.4012   -2.4628 C   0  0  0  0  0  0  0  0  0  0  0  0
   13.8724   -3.4863   -1.0587 N   0  3  0  0  0  0  0  0  0  0  0  0
    9.3075   -6.6213    2.4649 C   0  0  2  0  0  0  0  0  0  0  0  0
   10.5432   -7.1247    1.7453 C   0  0  0  0  0  0  0  0  0  0  0  0
   10.3804   -6.9783    0.2437 C   0  0  1  0  0  0  0  0  0  0  0  0
   10.1913   -5.5240   -0.1900 C   0  0  2  0  0  0  0  0  0  0  0  0
    9.0775   -4.8404    0.6365 C   0  0  1  0  0  0  0  0  0  0  0  0
    9.0526   -5.1561    2.1378 C   0  0  1  0  0  0  0  0  0  0  0  0
    9.4861   -6.7773    3.8959 N   0  3  0  0  0  0  0  0  0  0  0  0
   11.5338   -7.5605   -0.4143 N   0  3  0  0  0  0  0  0  0  0  0  0
    9.0675   -3.4063    0.4312 O   0  0  0  0  0  0  0  0  0  0  0  0
    7.8072   -4.7494    2.6952 O   0  0  0  0  0  0  0  0  0  0  0  0
  1  2  1  0  0  0  0
  3  2  1  6  0  0  0
  3  4  1  0  0  0  0
  3  5  1  0  0  0  0
  4  8  1  0  0  0  0
  5  6  1  0  0  0  0
  5 12  1  1  0  0  0
  6  7  1  6  0  0  0
  6  8  1  0  0  0  0
  8 41  1  6  0  0  0
  9 10  1  0  0  0  0
  9 17  1  0  0  0  0
  9 19  1  6  0  0  0
 10 11  1  0  0  0  0
 11 12  1  6  0  0  0
 11 13  1  0  0  0  0
 13 14  1  6  0  0  0
 13 15  1  0  0  0  0
 15 16  1  1  0  0  0
 15 17  1  0  0  0  0
 17 18  1  6  0  0  0
 19 20  1  0  0  0  0
 21 22  1  0  0  0  0
 21 29  1  0  0  0  0
 21 31  1  6  0  0  0
 22 23  1  0  0  0  0
 23 24  1  6  0  0  0
 23 25  1  0  0  0  0
 25 26  1  1  0  0  0
 25 27  1  0  0  0  0
 27 28  1  6  0  0  0
 27 29  1  0  0  0  0
 29 30  1  6  0  0  0
 31 32  1  0  0  0  0
 33 34  1  0  0  0  0
 33 38  1  0  0  0  0
 33 39  1  1  0  0  0
 34 35  1  0  0  0  0
 35 36  1  0  0  0  0
 35 40  1  6  0  0  0
 36 24  1  6  0  0  0
 36 37  1  0  0  0  0
 37 38  1  0  0  0  0
 37 41  1  1  0  0  0
 38 42  1  6  0  0  0
M  CHG  6  14   1  20   1  26   1  32   1  39   1  40   1
M  END
>  <CHROM.1>
-177.94832820,-63.28653572,-163.42017739,-86.50128098,-97.28003551,-78.60358033
96.21492754,12.79724353,61.44036864,55.75103527,-165.92932842,61.69003034
57.65191466,-171.10734077,-40.56539714,-165.02540478,-177.22657388,70.19354783
116.30612615,90.35098670,148.13524903,44.18440940,9.67474329,-2.02596176
-0.52480278,-1.90870043,-1.11020219,3.07473571

>  <Name>


>  <RI>
0

>  <Rbt.Current_Directory>
/home/itssahil/PROJECTS/Mol_Feturizer/New_Systems/rnas/1qd3

>  <Rbt.Executable>
rbdock ($Id: //depot/dev/client3/rdock/2013.1/src/exe/rbdock.cxx#4 $)

>  <Rbt.Library>
libRbt.so (2013.1, Build901 2013/11/27)

>  <Rbt.Parameter_File>
/export/apps/rDock/src/rDock_2013.1_src/data/scripts/dock_solv.prm

>  <Rbt.Receptor>
prm/pocket_docking_6.prm

>  <SCORE>
-46.5925

>  <SCORE.INTER>
-30.007

>  <SCORE.INTER.CONST>
1

>  <SCORE.INTER.POLAR>
-5.44156

>  <SCORE.INTER.ROT>
9

>  <SCORE.INTER.SOLV>
32.4633

>  <SCORE.INTER.VDW>
-22.2872

>  <SCORE.INTER.norm>
-0.714452

>  <SCORE.INTRA>
-16.5855

>  <SCORE.INTRA.DIHEDRAL>
-8.45886

>  <SCORE.INTRA.DIHEDRAL.0>
40.6252

>  <SCORE.INTRA.POLAR>
0.821249

>  <SCORE.INTRA.POLAR.0>
-1.20161

>  <SCORE.INTRA.REPUL>
-0.115675

>  <SCORE.INTRA.REPUL.0>
0.115675

>  <SCORE.INTRA.SOLV>
-13.7595

>  <SCORE.INTRA.SOLV.lig_0>
-154.895

>  <SCORE.INTRA.VDW>
-7.69023

>  <SCORE.INTRA.VDW.0>
2.2925

>  <SCORE.INTRA.norm>
-0.394893

>  <SCORE.RESTR>
0

>  <SCORE.RESTR.CAVITY>
0

>  <SCORE.RESTR.norm>
0

>  <SCORE.SYSTEM>
0

>  <SCORE.SYSTEM.CONST>
0

>  <SCORE.SYSTEM.DIHEDRAL>
0

>  <SCORE.SYSTEM.SOLV>
0

>  <SCORE.SYSTEM.norm>
0

>  <SCORE.heavy>
42

>  <SCORE.norm>
-1.10935

>  <RMSD>
9.093

$$$$

 OpenBabel11021811413D
libRbt.so/2013.1/901 2013/11/27
 42 45  0  0  0  0  0  0  0  0999 V2000
   11.2185    1.8151   -1.5180 O   0  0  0  0  0  0  0  0  0  0  0  0
   10.1494    2.0028   -0.6018 C   0  0  0  0  0  0  0  0  0  0  0  0
    8.9729    1.1055   -0.9883 C   0  0  1  0  0  0  0  0  0  0  0  0
    9.4045   -0.0018   -1.8088 O   0  0  0  0  0  0  0  0  0  0  0  0
    8.2696    0.4844    0.2071 C   0  0  2  0  0  0  0  0  0  0  0  0
    7.5487   -0.6718   -0.4655 C   0  0  1  0  0  0  0  0  0  0  0  0
    6.3980   -0.1883   -1.1496 O   0  0  0  0  0  0  0  0  0  0  0  0
    8.5970   -1.1620   -1.4850 C   0  0  2  0  0  0  0  0  0  0  0  0
    7.6231    3.8444    3.5434 C   0  0  2  0  0  0  0  0  0  0  0  0
    7.0222    3.0325    2.5230 O   0  0  0  0  0  0  0  0  0  0  0  0
    7.9833    2.1721    1.8853 C   0  0  2  0  0  0  0  0  0  0  0  0
    7.3598    1.4138    0.8281 O   0  0  0  0  0  0  0  0  0  0  0  0
    8.6300    1.2259    2.9114 C   0  0  2  0  0  0  0  0  0  0  0  0
    7.7228    0.1486    3.2616 N   0  3  0  0  0  0  0  0  0  0  0  0
    9.1158    1.9504    4.1724 C   0  0  1  0  0  0  0  0  0  0  0  0
   10.3381    2.6140    3.8928 O   0  0  0  0  0  0  0  0  0  0  0  0
    8.0936    2.9587    4.6900 C   0  0  2  0  0  0  0  0  0  0  0  0
    6.9869    2.2756    5.2672 O   0  0  0  0  0  0  0  0  0  0  0  0
    6.6387    4.8993    4.0404 C   0  0  0  0  0  0  0  0  0  0  0  0
    5.6157    4.2878    4.8678 N   0  3  0  0  0  0  0  0  0  0  0  0
    9.8001   -5.4261    0.0200 C   0  0  1  0  0  0  0  0  0  0  0  0
   10.3900   -5.6598   -1.2759 O   0  0  0  0  0  0  0  0  0  0  0  0
    9.4124   -5.8315   -2.3277 C   0  0  2  0  0  0  0  0  0  0  0  0
    8.6524   -4.6210   -2.5662 O   0  0  0  0  0  0  0  0  0  0  0  0
    8.4862   -7.0135   -2.0169 C   0  0  2  0  0  0  0  0  0  0  0  0
    7.3876   -7.0446   -2.9644 N   0  3  0  0  0  0  0  0  0  0  0  0
    7.9251   -6.9348   -0.6015 C   0  0  1  0  0  0  0  0  0  0  0  0
    7.2729   -8.1529   -0.2774 O   0  0  0  0  0  0  0  0  0  0  0  0
    8.9841   -6.6349    0.4481 C   0  0  2  0  0  0  0  0  0  0  0  0
    8.3754   -6.3893    1.7074 O   0  0  0  0  0  0  0  0  0  0  0  0
   10.8949   -5.2139    1.0616 C   0  0  0  0  0  0  0  0  0  0  0  0
   11.9418   -4.3547    0.5394 N   0  3  0  0  0  0  0  0  0  0  0  0
   12.3388   -2.6183   -3.2729 C   0  0  2  0  0  0  0  0  0  0  0  0
   11.4768   -2.9665   -4.4704 C   0  0  0  0  0  0  0  0  0  0  0  0
   10.4359   -4.0040   -4.0923 C   0  0  1  0  0  0  0  0  0  0  0  0
    9.4820   -3.5125   -3.0027 C   0  0  2  0  0  0  0  0  0  0  0  0
   10.2651   -2.9352   -1.8008 C   0  0  1  0  0  0  0  0  0  0  0  0
   11.4866   -2.0695   -2.1366 C   0  0  1  0  0  0  0  0  0  0  0  0
   13.3274   -1.6307   -3.6617 N   0  3  0  0  0  0  0  0  0  0  0  0
    9.6985   -4.3864   -5.2807 N   0  3  0  0  0  0  0  0  0  0  0  0
    9.3913   -2.2269   -0.8878 O   0  0  0  0  0  0  0  0  0  0  0  0
   12.2899   -1.8977   -0.9738 O   0  0  0  0  0  0  0  0  0  0  0  0
  1  2  1  0  0  0  0
  3  2  1  1  0  0  0
  3  4  1  0  0  0  0
  3  5  1  0  0  0  0
  4  8  1  0  0  0  0
  5  6  1  0  0  0  0
  5 12  1  6  0  0  0
  6  7  1  6  0  0  0
  6  8  1  0  0  0  0
  8 41  1  1  0  0  0
  9 10  1  0  0  0  0
  9 17  1  0  0  0  0
  9 19  1  1  0  0  0
 10 11  1  0  0  0  0
 11 12  1  6  0  0  0
 11 13  1  0  0  0  0
 13 14  1  1  0  0  0
 13 15  1  0  0  0  0
 15 16  1  6  0  0  0
 15 17  1  0  0  0  0
 17 18  1  6  0  0  0
 19 20  1  0  0  0  0
 21 22  1  0  0  0  0
 21 29  1  0  0  0  0
 21 31  1  1  0  0  0
 22 23  1  0  0  0  0
 23 24  1  1  0  0  0
 23 25  1  0  0  0  0
 25 26  1  6  0  0  0
 25 27  1  0  0  0  0
 27 28  1  1  0  0  0
 27 29  1  0  0  0  0
 29 30  1  1  0  0  0
 31 32  1  0  0  0  0
 33 34  1  0  0  0  0
 33 38  1  0  0  0  0
 33 39  1  6  0  0  0
 34 35  1  0  0  0  0
 35 36  1  0  0  0  0
 35 40  1  6  0  0  0
 36 24  1  1  0  0  0
 36 37  1  0  0  0  0
 37 38  1  0  0  0  0
 37 41  1  6  0  0  0
 38 42  1  1  0  0  0
M  CHG  6  14   1  20   1  26   1  32   1  39   1  40   1
M  END
>  <CHROM.1>
67.28127254,21.46968699,-91.41745553,66.71521969,-73.01265896,73.35358387
-176.88842831,97.04984615,-57.72730796,63.65209009,-62.63240682,42.93403055
61.80796237,46.10166784,-44.07204325,-72.33412501,-61.83306078,-35.69112490
-62.30173802,67.71477749,-55.27771550,65.42441362,9.11941232,-1.60123517
-0.07895526,-1.92420611,-0.96186685,-2.84818585

>  <Name>


>  <RI>
0

>  <Rbt.Current_Directory>
/home/itssahil/PROJECTS/Mol_Feturizer/New_Systems/rnas/1qd3

>  <Rbt.Executable>
rbdock ($Id: //depot/dev/client3/rdock/2013.1/src/exe/rbdock.cxx#4 $)

>  <Rbt.Library>
libRbt.so (2013.1, Build901 2013/11/27)

>  <Rbt.Parameter_File>
/export/apps/rDock/src/rDock_2013.1_src/data/scripts/dock_solv.prm

>  <Rbt.Receptor>
prm/pocket_docking_3.prm

>  <SCORE>
-48.6298

>  <SCORE.INTER>
-29.221

>  <SCORE.INTER.CONST>
1

>  <SCORE.INTER.POLAR>
-3.84049

>  <SCORE.INTER.ROT>
9

>  <SCORE.INTER.SOLV>
35.16

>  <SCORE.INTER.VDW>
-27.999

>  <SCORE.INTER.norm>
-0.695738

>  <SCORE.INTRA>
-20.1997

>  <SCORE.INTRA.DIHEDRAL>
-23.4327

>  <SCORE.INTRA.DIHEDRAL.0>
40.6252

>  <SCORE.INTRA.POLAR>
-0.387378

>  <SCORE.INTRA.POLAR.0>
-1.20161

>  <SCORE.INTRA.REPUL>
-0.115675

>  <SCORE.INTRA.REPUL.0>
0.115675

>  <SCORE.INTRA.SOLV>
-2.71419

>  <SCORE.INTRA.SOLV.lig_0>
-154.895

>  <SCORE.INTRA.VDW>
-5.23083

>  <SCORE.INTRA.VDW.0>
2.2925

>  <SCORE.INTRA.norm>
-0.480946

>  <SCORE.RESTR>
0.790935

>  <SCORE.RESTR.CAVITY>
0.790935

>  <SCORE.RESTR.norm>
0.0188318

>  <SCORE.SYSTEM>
0

>  <SCORE.SYSTEM.CONST>
0

>  <SCORE.SYSTEM.DIHEDRAL>
0

>  <SCORE.SYSTEM.SOLV>
0

>  <SCORE.SYSTEM.norm>
0

>  <SCORE.heavy>
42

>  <SCORE.norm>
-1.15785

>  <RMSD>
9.108

$$$$

 OpenBabel11021811413D
libRbt.so/2013.1/901 2013/11/27
 42 45  0  0  0  0  0  0  0  0999 V2000
    9.9920    2.9739   -0.0916 O   0  0  0  0  0  0  0  0  0  0  0  0
    9.8941    1.7409    0.6069 C   0  0  0  0  0  0  0  0  0  0  0  0
    8.9772    0.7847   -0.1569 C   0  0  1  0  0  0  0  0  0  0  0  0
    9.7081    0.0444   -1.1587 O   0  0  0  0  0  0  0  0  0  0  0  0
    8.3202   -0.2593    0.7307 C   0  0  2  0  0  0  0  0  0  0  0  0
    7.9276   -1.2977   -0.3068 C   0  0  1  0  0  0  0  0  0  0  0  0
    6.7655   -0.8643   -1.0051 O   0  0  0  0  0  0  0  0  0  0  0  0
    9.1434   -1.2877   -1.2557 C   0  0  2  0  0  0  0  0  0  0  0  0
    6.8553    3.0025    3.8435 C   0  0  2  0  0  0  0  0  0  0  0  0
    6.4889    2.0720    2.8133 O   0  0  0  0  0  0  0  0  0  0  0  0
    7.5601    1.1618    2.5052 C   0  0  2  0  0  0  0  0  0  0  0  0
    7.1803    0.2802    1.4282 O   0  0  0  0  0  0  0  0  0  0  0  0
    7.9546    0.3468    3.7489 C   0  0  2  0  0  0  0  0  0  0  0  0
    6.9828   -0.6996    4.0082 N   0  3  0  0  0  0  0  0  0  0  0  0
    8.1545    1.2154    4.9965 C   0  0  1  0  0  0  0  0  0  0  0  0
    9.4142    1.8638    4.9219 O   0  0  0  0  0  0  0  0  0  0  0  0
    7.0517    2.2581    5.1580 C   0  0  2  0  0  0  0  0  0  0  0  0
    5.8386    1.6254    5.5486 O   0  0  0  0  0  0  0  0  0  0  0  0
    5.7943    4.0899    3.9882 C   0  0  0  0  0  0  0  0  0  0  0  0
    5.8723    4.7022    5.3012 N   0  3  0  0  0  0  0  0  0  0  0  0
    6.4743   -4.8865   -2.7398 C   0  0  1  0  0  0  0  0  0  0  0  0
    7.1790   -3.9884   -1.8573 O   0  0  0  0  0  0  0  0  0  0  0  0
    8.3546   -4.5797   -1.2577 C   0  0  2  0  0  0  0  0  0  0  0  0
    9.3737   -4.8815   -2.2426 O   0  0  0  0  0  0  0  0  0  0  0  0
    7.9795   -5.8282   -0.4500 C   0  0  2  0  0  0  0  0  0  0  0  0
    9.1804   -6.5273   -0.0322 N   0  3  0  0  0  0  0  0  0  0  0  0
    7.1006   -6.7790   -1.2550 C   0  0  1  0  0  0  0  0  0  0  0  0
    6.5872   -7.7918   -0.4036 O   0  0  0  0  0  0  0  0  0  0  0  0
    5.9479   -6.0798   -1.9591 C   0  0  2  0  0  0  0  0  0  0  0  0
    5.2856   -6.9801   -2.8352 O   0  0  0  0  0  0  0  0  0  0  0  0
    5.2761   -4.1748   -3.3614 C   0  0  0  0  0  0  0  0  0  0  0  0
    4.9787   -4.7191   -4.6736 N   0  3  0  0  0  0  0  0  0  0  0  0
   12.4584   -2.4150   -3.8240 C   0  0  2  0  0  0  0  0  0  0  0  0
   11.4152   -2.9534   -4.7832 C   0  0  0  0  0  0  0  0  0  0  0  0
   10.6564   -4.1056   -4.1513 C   0  0  1  0  0  0  0  0  0  0  0  0
    9.9052   -3.6929   -2.8847 C   0  0  2  0  0  0  0  0  0  0  0  0
   10.8382   -2.9393   -1.9088 C   0  0  1  0  0  0  0  0  0  0  0  0
   11.8067   -1.9283   -2.5367 C   0  0  1  0  0  0  0  0  0  0  0  0
   13.1722   -1.3202   -4.4532 N   0  3  0  0  0  0  0  0  0  0  0  0
    9.7405   -4.6595   -5.1295 N   0  3  0  0  0  0  0  0  0  0  0  0
   10.0915   -2.3114   -0.8378 O   0  0  0  0  0  0  0  0  0  0  0  0
   12.8126   -1.5746   -1.5932 O   0  0  0  0  0  0  0  0  0  0  0  0
  1  2  1  0  0  0  0
  3  2  1  1  0  0  0
  3  4  1  0  0  0  0
  3  5  1  0  0  0  0
  4  8  1  0  0  0  0
  5  6  1  0  0  0  0
  5 12  1  6  0  0  0
  6  7  1  6  0  0  0
  6  8  1  0  0  0  0
  8 41  1  1  0  0  0
  9 10  1  0  0  0  0
  9 17  1  0  0  0  0
  9 19  1  1  0  0  0
 10 11  1  0  0  0  0
 11 12  1  6  0  0  0
 11 13  1  0  0  0  0
 13 14  1  1  0  0  0
 13 15  1  0  0  0  0
 15 16  1  6  0  0  0
 15 17  1  0  0  0  0
 17 18  1  6  0  0  0
 19 20  1  0  0  0  0
 21 22  1  0  0  0  0
 21 29  1  0  0  0  0
 21 31  1  1  0  0  0
 22 23  1  0  0  0  0
 23 24  1  6  0  0  0
 23 25  1  0  0  0  0
 25 26  1  6  0  0  0
 25 27  1  0  0  0  0
 27 28  1  1  0  0  0
 27 29  1  0  0  0  0
 29 30  1  6  0  0  0
 31 32  1  0  0  0  0
 33 34  1  0  0  0  0
 33 38  1  0  0  0  0
 33 39  1  6  0  0  0
 34 35  1  0  0  0  0
 35 36  1  0  0  0  0
 35 40  1  6  0  0  0
 36 24  1  1  0  0  0
 36 37  1  0  0  0  0
 37 38  1  0  0  0  0
 37 41  1  1  0  0  0
 38 42  1  1  0  0  0
M  CHG  6  14   1  20   1  26   1  32   1  39   1  40   1
M  END
>  <CHROM.1>
73.89394638,86.46202306,-73.93106205,71.75977802,-95.97827764,158.08113603
156.75496232,-145.81376860,-145.79783848,160.03137072,-151.13143106,150.55824649
64.64480898,-164.13982587,-19.03129923,65.85873128,-68.01334783,-12.62370344
47.27773545,-37.70622969,-62.48850754,-170.40901468,8.36940718,-1.69377549
-0.21566631,-1.73862557,-0.61054080,-2.46973165

>  <Name>


>  <RI>
0

>  <Rbt.Current_Directory>
/home/itssahil/PROJECTS/Mol_Feturizer/New_Systems/rnas/1qd3

>  <Rbt.Executable>
rbdock ($Id: //depot/dev/client3/rdock/2013.1/src/exe/rbdock.cxx#4 $)

>  <Rbt.Library>
libRbt.so (2013.1, Build901 2013/11/27)

>  <Rbt.Parameter_File>
/export/apps/rDock/src/rDock_2013.1_src/data/scripts/dock_solv.prm

>  <Rbt.Receptor>
prm/pocket_docking_3.prm

>  <SCORE>
-62.2023

>  <SCORE.INTER>
-52.8782

>  <SCORE.INTER.CONST>
1

>  <SCORE.INTER.POLAR>
-8.55786

>  <SCORE.INTER.ROT>
9

>  <SCORE.INTER.SOLV>
47.0279

>  <SCORE.INTER.VDW>
-32.0019

>  <SCORE.INTER.norm>
-1.25901

>  <SCORE.INTRA>
-10.0167

>  <SCORE.INTRA.DIHEDRAL>
-5.48237

>  <SCORE.INTRA.DIHEDRAL.0>
40.6252

>  <SCORE.INTRA.POLAR>
0.939056

>  <SCORE.INTRA.POLAR.0>
-1.20161

>  <SCORE.INTRA.REPUL>
-0.115675

>  <SCORE.INTRA.REPUL.0>
0.115675

>  <SCORE.INTRA.SOLV>
-10.9125

>  <SCORE.INTRA.SOLV.lig_0>
-154.895

>  <SCORE.INTRA.VDW>
-4.43372

>  <SCORE.INTRA.VDW.0>
2.2925

>  <SCORE.INTRA.norm>
-0.238494

>  <SCORE.RESTR>
0.692686

>  <SCORE.RESTR.CAVITY>
0.692686

>  <SCORE.RESTR.norm>
0.0164925

>  <SCORE.SYSTEM>
0

>  <SCORE.SYSTEM.CONST>
0

>  <SCORE.SYSTEM.DIHEDRAL>
0

>  <SCORE.SYSTEM.SOLV>
0

>  <SCORE.SYSTEM.norm>
0

>  <SCORE.heavy>
42

>  <SCORE.norm>
-1.48101

>  <RMSD>
9.127

$$$$

 OpenBabel11021811413D
libRbt.so/2013.1/901 2013/11/27
 42 45  0  0  0  0  0  0  0  0999 V2000
    4.1677  -10.1577   -0.0517 O   0  0  0  0  0  0  0  0  0  0  0  0
    4.7218   -9.5966   -1.2332 C   0  0  0  0  0  0  0  0  0  0  0  0
    5.5192   -8.3393   -0.8844 C   0  0  1  0  0  0  0  0  0  0  0  0
    6.5016   -8.6078    0.1394 O   0  0  0  0  0  0  0  0  0  0  0  0
    6.2941   -7.7705   -2.0615 C   0  0  2  0  0  0  0  0  0  0  0  0
    7.3165   -6.9148   -1.3326 C   0  0  1  0  0  0  0  0  0  0  0  0
    6.7054   -5.7081   -0.8894 O   0  0  0  0  0  0  0  0  0  0  0  0
    7.6755   -7.7966   -0.1193 C   0  0  2  0  0  0  0  0  0  0  0  0
    4.5130   -8.5650   -6.0936 C   0  0  2  0  0  0  0  0  0  0  0  0
    4.3993   -8.1113   -4.7362 O   0  0  0  0  0  0  0  0  0  0  0  0
    5.5668   -7.3844   -4.3127 C   0  0  2  0  0  0  0  0  0  0  0  0
    5.4449   -6.9939   -2.9292 O   0  0  0  0  0  0  0  0  0  0  0  0
    5.7870   -6.1468   -5.1996 C   0  0  2  0  0  0  0  0  0  0  0  0
    4.8569   -5.0895   -4.8481 N   0  3  0  0  0  0  0  0  0  0  0  0
    5.7028   -6.4602   -6.6980 C   0  0  1  0  0  0  0  0  0  0  0  0
    6.9093   -7.0768   -7.1187 O   0  0  0  0  0  0  0  0  0  0  0  0
    4.5215   -7.3665   -7.0339 C   0  0  2  0  0  0  0  0  0  0  0  0
    3.3034   -6.6411   -6.9138 O   0  0  0  0  0  0  0  0  0  0  0  0
    3.3728   -9.5186   -6.4393 C   0  0  0  0  0  0  0  0  0  0  0  0
    3.5127  -10.0035   -7.7996 N   0  3  0  0  0  0  0  0  0  0  0  0
   11.2007   -6.9085   -5.3858 C   0  0  1  0  0  0  0  0  0  0  0  0
   10.0166   -6.6769   -4.5943 O   0  0  0  0  0  0  0  0  0  0  0  0
    9.7426   -7.7371   -3.6498 C   0  0  2  0  0  0  0  0  0  0  0  0
   10.7646   -7.8310   -2.6267 O   0  0  0  0  0  0  0  0  0  0  0  0
    9.5634   -9.0755   -4.3766 C   0  0  2  0  0  0  0  0  0  0  0  0
    9.5002  -10.1583   -3.4125 N   0  3  0  0  0  0  0  0  0  0  0  0
   10.7002   -9.3430   -5.3567 C   0  0  1  0  0  0  0  0  0  0  0  0
   10.3775  -10.4608   -6.1694 O   0  0  0  0  0  0  0  0  0  0  0  0
   11.0208   -8.1500   -6.2440 C   0  0  2  0  0  0  0  0  0  0  0  0
   12.2002   -8.3967   -6.9955 O   0  0  0  0  0  0  0  0  0  0  0  0
   11.4414   -5.7286   -6.3231 C   0  0  0  0  0  0  0  0  0  0  0  0
   10.2992   -5.5230   -7.1947 N   0  3  0  0  0  0  0  0  0  0  0  0
   11.4001   -6.4180    1.3355 C   0  0  2  0  0  0  0  0  0  0  0  0
   11.5126   -5.4223    0.1979 C   0  0  0  0  0  0  0  0  0  0  0  0
   11.6602   -6.1449   -1.1283 C   0  0  1  0  0  0  0  0  0  0  0  0
   10.4594   -7.0351   -1.4517 C   0  0  2  0  0  0  0  0  0  0  0  0
   10.1208   -7.9616   -0.2610 C   0  0  1  0  0  0  0  0  0  0  0  0
   10.1979   -7.3310    1.1357 C   0  0  1  0  0  0  0  0  0  0  0  0
   11.2660   -5.7029    2.5903 N   0  3  0  0  0  0  0  0  0  0  0  0
   11.8662   -5.1660   -2.1779 N   0  3  0  0  0  0  0  0  0  0  0  0
    8.8388   -8.6119   -0.4413 O   0  0  0  0  0  0  0  0  0  0  0  0
   10.2017   -8.3534    2.1265 O   0  0  0  0  0  0  0  0  0  0  0  0
  1  2  1  0  0  0  0
  3  2  1  6  0  0  0
  3  4  1  0  0  0  0
  3  5  1  0  0  0  0
  4  8  1  0  0  0  0
  5  6  1  0  0  0  0
  5 12  1  6  0  0  0
  6  7  1  1  0  0  0
  6  8  1  0  0  0  0
  8 41  1  6  0  0  0
  9 10  1  0  0  0  0
  9 17  1  0  0  0  0
  9 19  1  6  0  0  0
 10 11  1  0  0  0  0
 11 12  1  1  0  0  0
 11 13  1  0  0  0  0
 13 14  1  1  0  0  0
 13 15  1  0  0  0  0
 15 16  1  1  0  0  0
 15 17  1  0  0  0  0
 17 18  1  1  0  0  0
 19 20  1  0  0  0  0
 21 22  1  0  0  0  0
 21 29  1  0  0  0  0
 21 31  1  6  0  0  0
 22 23  1  0  0  0  0
 23 24  1  1  0  0  0
 23 25  1  0  0  0  0
 25 26  1  1  0  0  0
 25 27  1  0  0  0  0
 27 28  1  6  0  0  0
 27 29  1  0  0  0  0
 29 30  1  1  0  0  0
 31 32  1  0  0  0  0
 33 34  1  0  0  0  0
 33 38  1  0  0  0  0
 33 39  1  1  0  0  0
 34 35  1  0  0  0  0
 35 36  1  0  0  0  0
 35 40  1  6  0  0  0
 36 24  1  6  0  0  0
 36 37  1  0  0  0  0
 37 38  1  0  0  0  0
 37 41  1  6  0  0  0
 38 42  1  1  0  0  0
M  CHG  6  14   1  20   1  26   1  32   1  39   1  40   1
M  END
>  <CHROM.1>
61.87501600,53.54272232,-129.28297137,-172.22995819,-159.52009622,-178.41025000
106.73633673,-40.93153651,60.74935424,43.53335663,158.72290852,-58.40305556
91.41793507,-128.21161429,66.39452186,-64.38387534,-67.41691373,-144.84391702
177.05364635,65.71911199,-79.91036006,-56.78784915,8.10213861,-7.58563399
-3.28024221,2.30229415,-0.16187055,-1.57837634

>  <Name>


>  <RI>
0

>  <Rbt.Current_Directory>
/home/itssahil/PROJECTS/Mol_Feturizer/New_Systems/rnas/1qd3

>  <Rbt.Executable>
rbdock ($Id: //depot/dev/client3/rdock/2013.1/src/exe/rbdock.cxx#4 $)

>  <Rbt.Library>
libRbt.so (2013.1, Build901 2013/11/27)

>  <Rbt.Parameter_File>
/export/apps/rDock/src/rDock_2013.1_src/data/scripts/dock_solv.prm

>  <Rbt.Receptor>
prm/pocket_docking_6.prm

>  <SCORE>
-46.2218

>  <SCORE.INTER>
-31.7265

>  <SCORE.INTER.CONST>
1

>  <SCORE.INTER.POLAR>
-6.65381

>  <SCORE.INTER.ROT>
9

>  <SCORE.INTER.SOLV>
20.1901

>  <SCORE.INTER.VDW>
-15.3016

>  <SCORE.INTER.norm>
-0.755393

>  <SCORE.INTRA>
-14.4953

>  <SCORE.INTRA.DIHEDRAL>
-7.02346

>  <SCORE.INTRA.DIHEDRAL.0>
40.6252

>  <SCORE.INTRA.POLAR>
1.1895

>  <SCORE.INTRA.POLAR.0>
-1.20161

>  <SCORE.INTRA.REPUL>
-0.106445

>  <SCORE.INTRA.REPUL.0>
0.115675

>  <SCORE.INTRA.SOLV>
-9.06051

>  <SCORE.INTRA.SOLV.lig_0>
-154.895

>  <SCORE.INTRA.VDW>
-9.96542

>  <SCORE.INTRA.VDW.0>
2.2925

>  <SCORE.INTRA.norm>
-0.345127

>  <SCORE.RESTR>
0

>  <SCORE.RESTR.CAVITY>
0

>  <SCORE.RESTR.norm>
0

>  <SCORE.SYSTEM>
0

>  <SCORE.SYSTEM.CONST>
0

>  <SCORE.SYSTEM.DIHEDRAL>
0

>  <SCORE.SYSTEM.SOLV>
0

>  <SCORE.SYSTEM.norm>
0

>  <SCORE.heavy>
42

>  <SCORE.norm>
-1.10052

>  <RMSD>
9.128

$$$$

 OpenBabel11021811413D
libRbt.so/2013.1/901 2013/11/27
 42 45  0  0  0  0  0  0  0  0999 V2000
   11.9267   -7.3375   -3.1528 O   0  0  0  0  0  0  0  0  0  0  0  0
   12.8291   -6.3487   -2.6778 C   0  0  0  0  0  0  0  0  0  0  0  0
   12.0628   -5.0707   -2.3345 C   0  0  1  0  0  0  0  0  0  0  0  0
   11.5865   -4.4080   -3.5260 O   0  0  0  0  0  0  0  0  0  0  0  0
   10.8315   -5.3170   -1.4785 C   0  0  2  0  0  0  0  0  0  0  0  0
   10.0567   -4.0347   -1.7322 C   0  0  1  0  0  0  0  0  0  0  0  0
   10.6230   -2.9724   -0.9728 O   0  0  0  0  0  0  0  0  0  0  0  0
   10.3050   -3.7946   -3.2353 C   0  0  2  0  0  0  0  0  0  0  0  0
    8.3928   -7.3409    1.3789 C   0  0  2  0  0  0  0  0  0  0  0  0
    9.5775   -7.0858    0.6088 O   0  0  0  0  0  0  0  0  0  0  0  0
   10.0212   -5.7232    0.7406 C   0  0  2  0  0  0  0  0  0  0  0  0
   11.1770   -5.4855   -0.0896 O   0  0  0  0  0  0  0  0  0  0  0  0
   10.3421   -5.3964    2.2092 C   0  0  2  0  0  0  0  0  0  0  0  0
   11.6161   -5.9726    2.5983 N   0  3  0  0  0  0  0  0  0  0  0  0
    9.2363   -5.8349    3.1766 C   0  0  1  0  0  0  0  0  0  0  0  0
    8.1651   -4.9065    3.1193 O   0  0  0  0  0  0  0  0  0  0  0  0
    8.7161   -7.2353    2.8638 C   0  0  2  0  0  0  0  0  0  0  0  0
    9.6913   -8.2071    3.2231 O   0  0  0  0  0  0  0  0  0  0  0  0
    7.8193   -8.7149    1.0441 C   0  0  0  0  0  0  0  0  0  0  0  0
    7.7120   -8.8827   -0.3930 N   0  3  0  0  0  0  0  0  0  0  0  0
    6.2789   -7.7691   -4.8477 C   0  0  1  0  0  0  0  0  0  0  0  0
    7.5619   -7.1098   -4.8100 O   0  0  0  0  0  0  0  0  0  0  0  0
    7.7367   -6.1361   -5.8649 C   0  0  2  0  0  0  0  0  0  0  0  0
    6.8280   -5.0159   -5.7265 O   0  0  0  0  0  0  0  0  0  0  0  0
    7.5928   -6.7981   -7.2406 C   0  0  2  0  0  0  0  0  0  0  0  0
    7.5595   -5.7835   -8.2776 N   0  3  0  0  0  0  0  0  0  0  0  0
    6.3297   -7.6473   -7.3298 C   0  0  1  0  0  0  0  0  0  0  0  0
    6.3570   -8.4212   -8.5191 O   0  0  0  0  0  0  0  0  0  0  0  0
    6.1394   -8.5673   -6.1337 C   0  0  2  0  0  0  0  0  0  0  0  0
    4.8624   -9.1864   -6.1855 O   0  0  0  0  0  0  0  0  0  0  0  0
    6.1590   -8.7456   -3.6812 C   0  0  0  0  0  0  0  0  0  0  0  0
    4.7871   -9.1929   -3.5241 N   0  3  0  0  0  0  0  0  0  0  0  0
    6.5722   -1.9472   -2.7910 C   0  0  2  0  0  0  0  0  0  0  0  0
    5.4384   -2.9503   -2.8731 C   0  0  0  0  0  0  0  0  0  0  0  0
    5.4857   -3.6991   -4.1921 C   0  0  1  0  0  0  0  0  0  0  0  0
    6.7792   -4.4948   -4.3724 C   0  0  2  0  0  0  0  0  0  0  0  0
    8.0167   -3.6074   -4.1044 C   0  0  1  0  0  0  0  0  0  0  0  0
    7.9197   -2.6458   -2.9126 C   0  0  1  0  0  0  0  0  0  0  0  0
    6.5011   -1.2421   -1.5254 N   0  3  0  0  0  0  0  0  0  0  0  0
    4.3328   -4.5741   -4.2788 N   0  3  0  0  0  0  0  0  0  0  0  0
    9.2266   -4.3982   -4.0062 O   0  0  0  0  0  0  0  0  0  0  0  0
    8.9584   -1.6752   -2.9907 O   0  0  0  0  0  0  0  0  0  0  0  0
  1  2  1  0  0  0  0
  3  2  1  6  0  0  0
  3  4  1  0  0  0  0
  3  5  1  0  0  0  0
  4  8  1  0  0  0  0
  5  6  1  0  0  0  0
  5 12  1  1  0  0  0
  6  7  1  1  0  0  0
  6  8  1  0  0  0  0
  8 41  1  6  0  0  0
  9 10  1  0  0  0  0
  9 17  1  0  0  0  0
  9 19  1  1  0  0  0
 10 11  1  0  0  0  0
 11 12  1  6  0  0  0
 11 13  1  0  0  0  0
 13 14  1  1  0  0  0
 13 15  1  0  0  0  0
 15 16  1  6  0  0  0
 15 17  1  0  0  0  0
 17 18  1  6  0  0  0
 19 20  1  0  0  0  0
 21 22  1  0  0  0  0
 21 29  1  0  0  0  0
 21 31  1  1  0  0  0
 22 23  1  0  0  0  0
 23 24  1  1  0  0  0
 23 25  1  0  0  0  0
 25 26  1  6  0  0  0
 25 27  1  0  0  0  0
 27 28  1  6  0  0  0
 27 29  1  0  0  0  0
 29 30  1  6  0  0  0
 31 32  1  0  0  0  0
 33 34  1  0  0  0  0
 33 38  1  0  0  0  0
 33 39  1  1  0  0  0
 34 35  1  0  0  0  0
 35 36  1  0  0  0  0
 35 40  1  1  0  0  0
 36 24  1  6  0  0  0
 36 37  1  0  0  0  0
 37 38  1  0  0  0  0
 37 41  1  1  0  0  0
 38 42  1  6  0  0  0
M  CHG  6  14   1  20   1  26   1  32   1  39   1  40   1
M  END
>  <CHROM.1>
-174.15843107,-70.74363413,-179.88796512,58.65534319,-161.59898389,-49.22131487
77.64780074,86.68129323,60.55543767,45.43935541,-174.15111839,167.27582809
46.50742157,-159.74874023,34.23795359,74.42883778,-174.43827506,-60.08923228
-161.91951720,175.17668354,-155.51319480,-61.90400741,8.33113011,-5.78030497
-2.50209227,0.50348839,1.05597841,2.47626016

>  <Name>


>  <RI>
0

>  <Rbt.Current_Directory>
/home/itssahil/PROJECTS/Mol_Feturizer/New_Systems/rnas/1qd3

>  <Rbt.Executable>
rbdock ($Id: //depot/dev/client3/rdock/2013.1/src/exe/rbdock.cxx#4 $)

>  <Rbt.Library>
libRbt.so (2013.1, Build901 2013/11/27)

>  <Rbt.Parameter_File>
/export/apps/rDock/src/rDock_2013.1_src/data/scripts/dock_solv.prm

>  <Rbt.Receptor>
prm/pocket_docking_6.prm

>  <SCORE>
-53.1752

>  <SCORE.INTER>
-35.9242

>  <SCORE.INTER.CONST>
1

>  <SCORE.INTER.POLAR>
-6.74648

>  <SCORE.INTER.ROT>
9

>  <SCORE.INTER.SOLV>
34.0574

>  <SCORE.INTER.VDW>
-22.4137

>  <SCORE.INTER.norm>
-0.855339

>  <SCORE.INTRA>
-17.251

>  <SCORE.INTRA.DIHEDRAL>
-22.5572

>  <SCORE.INTRA.DIHEDRAL.0>
40.6252

>  <SCORE.INTRA.POLAR>
0.624986

>  <SCORE.INTRA.POLAR.0>
-1.20161

>  <SCORE.INTRA.REPUL>
-0.0919935

>  <SCORE.INTRA.REPUL.0>
0.115675

>  <SCORE.INTRA.SOLV>
-10.0881

>  <SCORE.INTRA.SOLV.lig_0>
-154.895

>  <SCORE.INTRA.VDW>
-2.59334

>  <SCORE.INTRA.VDW.0>
2.2925

>  <SCORE.INTRA.norm>
-0.410738

>  <SCORE.RESTR>
0

>  <SCORE.RESTR.CAVITY>
0

>  <SCORE.RESTR.norm>
0

>  <SCORE.SYSTEM>
0

>  <SCORE.SYSTEM.CONST>
0

>  <SCORE.SYSTEM.DIHEDRAL>
0

>  <SCORE.SYSTEM.SOLV>
0

>  <SCORE.SYSTEM.norm>
0

>  <SCORE.heavy>
42

>  <SCORE.norm>
-1.26608

>  <RMSD>
9.128

$$$$

 OpenBabel11021811413D
libRbt.so/2013.1/901 2013/11/27
 42 45  0  0  0  0  0  0  0  0999 V2000
    9.9125    1.1343   -1.8451 O   0  0  0  0  0  0  0  0  0  0  0  0
    9.6879    0.4731   -0.6081 C   0  0  0  0  0  0  0  0  0  0  0  0
    8.5686   -0.5565   -0.7672 C   0  0  1  0  0  0  0  0  0  0  0  0
    8.9052   -1.5487   -1.7611 O   0  0  0  0  0  0  0  0  0  0  0  0
    8.2756   -1.3311    0.5070 C   0  0  2  0  0  0  0  0  0  0  0  0
    7.5509   -2.5387   -0.0633 C   0  0  1  0  0  0  0  0  0  0  0  0
    6.2136   -2.1836   -0.3972 O   0  0  0  0  0  0  0  0  0  0  0  0
    8.3537   -2.8249   -1.3487 C   0  0  2  0  0  0  0  0  0  0  0  0
    8.5437    2.9049    1.6889 C   0  0  2  0  0  0  0  0  0  0  0  0
    7.8273    1.7582    1.2059 O   0  0  0  0  0  0  0  0  0  0  0  0
    8.1410    0.5722    1.9581 C   0  0  2  0  0  0  0  0  0  0  0  0
    7.4505   -0.5705    1.4113 O   0  0  0  0  0  0  0  0  0  0  0  0
    7.7763    0.7575    3.4410 C   0  0  2  0  0  0  0  0  0  0  0  0
    6.3426    0.6443    3.6366 N   0  3  0  0  0  0  0  0  0  0  0  0
    8.2957    2.0761    4.0261 C   0  0  1  0  0  0  0  0  0  0  0  0
    9.6829    1.9563    4.2985 O   0  0  0  0  0  0  0  0  0  0  0  0
    8.0590    3.2575    3.0893 C   0  0  2  0  0  0  0  0  0  0  0  0
    6.6746    3.5847    3.0606 O   0  0  0  0  0  0  0  0  0  0  0  0
    8.3692    4.0871    0.7398 C   0  0  0  0  0  0  0  0  0  0  0  0
    9.2962    5.1503    1.0792 N   0  3  0  0  0  0  0  0  0  0  0  0
    6.1291   -6.0413   -3.4191 C   0  0  1  0  0  0  0  0  0  0  0  0
    6.8519   -5.3787   -2.3605 O   0  0  0  0  0  0  0  0  0  0  0  0
    8.0875   -6.0423   -2.0080 C   0  0  2  0  0  0  0  0  0  0  0  0
    9.0520   -6.0047   -3.0888 O   0  0  0  0  0  0  0  0  0  0  0  0
    7.8178   -7.4831   -1.5576 C   0  0  2  0  0  0  0  0  0  0  0  0
    9.0713   -8.1992   -1.4107 N   0  3  0  0  0  0  0  0  0  0  0  0
    6.9286   -8.2275   -2.5475 C   0  0  1  0  0  0  0  0  0  0  0  0
    6.5140   -9.4619   -1.9830 O   0  0  0  0  0  0  0  0  0  0  0  0
    5.7046   -7.4305   -2.9716 C   0  0  2  0  0  0  0  0  0  0  0  0
    5.0246   -8.0945   -4.0268 O   0  0  0  0  0  0  0  0  0  0  0  0
    4.8646   -5.2574   -3.7583 C   0  0  0  0  0  0  0  0  0  0  0  0
    5.1645   -3.8479   -3.9320 N   0  3  0  0  0  0  0  0  0  0  0  0
   12.0094   -3.0127   -3.7223 C   0  0  2  0  0  0  0  0  0  0  0  0
   11.1088   -3.3809   -4.8848 C   0  0  0  0  0  0  0  0  0  0  0  0
   10.4129   -4.7031   -4.6200 C   0  0  1  0  0  0  0  0  0  0  0  0
    9.5199   -4.6615   -3.3791 C   0  0  2  0  0  0  0  0  0  0  0  0
   10.2892   -4.0970   -2.1624 C   0  0  1  0  0  0  0  0  0  0  0  0
   11.2062   -2.8970   -2.4338 C   0  0  1  0  0  0  0  0  0  0  0  0
   12.6659   -1.7500   -4.0024 N   0  3  0  0  0  0  0  0  0  0  0  0
    9.6415   -5.0724   -5.7909 N   0  3  0  0  0  0  0  0  0  0  0  0
    9.3968   -3.7998   -1.0606 O   0  0  0  0  0  0  0  0  0  0  0  0
   12.0891   -2.7067   -1.3331 O   0  0  0  0  0  0  0  0  0  0  0  0
  1  2  1  0  0  0  0
  3  2  1  1  0  0  0
  3  4  1  0  0  0  0
  3  5  1  0  0  0  0
  4  8  1  0  0  0  0
  5  6  1  0  0  0  0
  5 12  1  1  0  0  0
  6  7  1  6  0  0  0
  6  8  1  0  0  0  0
  8 41  1  1  0  0  0
  9 10  1  0  0  0  0
  9 17  1  0  0  0  0
  9 19  1  6  0  0  0
 10 11  1  0  0  0  0
 11 12  1  6  0  0  0
 11 13  1  0  0  0  0
 13 14  1  6  0  0  0
 13 15  1  0  0  0  0
 15 16  1  6  0  0  0
 15 17  1  0  0  0  0
 17 18  1  6  0  0  0
 19 20  1  0  0  0  0
 21 22  1  0  0  0  0
 21 29  1  0  0  0  0
 21 31  1  1  0  0  0
 22 23  1  0  0  0  0
 23 24  1  6  0  0  0
 23 25  1  0  0  0  0
 25 26  1  6  0  0  0
 25 27  1  0  0  0  0
 27 28  1  1  0  0  0
 27 29  1  0  0  0  0
 29 30  1  6  0  0  0
 31 32  1  0  0  0  0
 33 34  1  0  0  0  0
 33 38  1  0  0  0  0
 33 39  1  6  0  0  0
 34 35  1  0  0  0  0
 35 36  1  0  0  0  0
 35 40  1  6  0  0  0
 36 24  1  1  0  0  0
 36 37  1  0  0  0  0
 37 38  1  0  0  0  0
 37 41  1  1  0  0  0
 38 42  1  1  0  0  0
M  CHG  6  14   1  20   1  26   1  32   1  39   1  40   1
M  END
>  <CHROM.1>
-63.77770088,59.91113114,-68.25093174,-51.06394511,-59.17776062,-168.63277838
96.50167038,58.37400941,64.34622812,-37.09657307,138.54315660,48.44423586
66.31031218,-174.06839846,-33.45156963,-175.79218394,-172.62853225,102.41490413
67.29733624,68.01098136,-59.66384651,175.24360184,8.40438852,-2.37854371
-1.03152284,-1.50413059,-0.60021817,-2.56175895

>  <Name>


>  <RI>
0

>  <Rbt.Current_Directory>
/home/itssahil/PROJECTS/Mol_Feturizer/New_Systems/rnas/1qd3

>  <Rbt.Executable>
rbdock ($Id: //depot/dev/client3/rdock/2013.1/src/exe/rbdock.cxx#4 $)

>  <Rbt.Library>
libRbt.so (2013.1, Build901 2013/11/27)

>  <Rbt.Parameter_File>
/export/apps/rDock/src/rDock_2013.1_src/data/scripts/dock_solv.prm

>  <Rbt.Receptor>
prm/pocket_docking_4.prm

>  <SCORE>
-61.4197

>  <SCORE.INTER>
-38.8275

>  <SCORE.INTER.CONST>
1

>  <SCORE.INTER.POLAR>
-7.0596

>  <SCORE.INTER.ROT>
9

>  <SCORE.INTER.SOLV>
38.9497

>  <SCORE.INTER.VDW>
-24.9362

>  <SCORE.INTER.norm>
-0.924463

>  <SCORE.INTRA>
-22.5923

>  <SCORE.INTRA.DIHEDRAL>
-23.0115

>  <SCORE.INTRA.DIHEDRAL.0>
40.6252

>  <SCORE.INTRA.POLAR>
0.905912

>  <SCORE.INTRA.POLAR.0>
-1.20161

>  <SCORE.INTRA.REPUL>
-0.115675

>  <SCORE.INTRA.REPUL.0>
0.115675

>  <SCORE.INTRA.SOLV>
-14.5865

>  <SCORE.INTRA.SOLV.lig_0>
-154.895

>  <SCORE.INTRA.VDW>
-6.29498

>  <SCORE.INTRA.VDW.0>
2.2925

>  <SCORE.INTRA.norm>
-0.537911

>  <SCORE.RESTR>
0

>  <SCORE.RESTR.CAVITY>
0

>  <SCORE.RESTR.norm>
0

>  <SCORE.SYSTEM>
0

>  <SCORE.SYSTEM.CONST>
0

>  <SCORE.SYSTEM.DIHEDRAL>
0

>  <SCORE.SYSTEM.SOLV>
0

>  <SCORE.SYSTEM.norm>
0

>  <SCORE.heavy>
42

>  <SCORE.norm>
-1.46237

>  <RMSD>
9.130

$$$$

 OpenBabel11021811413D
libRbt.so/2013.1/901 2013/11/27
 42 45  0  0  0  0  0  0  0  0999 V2000
    6.4098   -2.1973   -0.2073 O   0  0  0  0  0  0  0  0  0  0  0  0
    7.4202   -1.4436    0.4474 C   0  0  0  0  0  0  0  0  0  0  0  0
    8.7897   -1.8012   -0.1313 C   0  0  1  0  0  0  0  0  0  0  0  0
    8.7943   -3.1357   -0.6833 O   0  0  0  0  0  0  0  0  0  0  0  0
    9.2247   -0.8847   -1.2628 C   0  0  2  0  0  0  0  0  0  0  0  0
   10.2861   -1.7469   -1.9253 C   0  0  1  0  0  0  0  0  0  0  0  0
   11.4851   -1.7071   -1.1593 O   0  0  0  0  0  0  0  0  0  0  0  0
    9.6603   -3.1543   -1.8463 C   0  0  2  0  0  0  0  0  0  0  0  0
    8.0259    1.0041    2.3885 C   0  0  2  0  0  0  0  0  0  0  0  0
    8.9499    0.4132    1.4620 O   0  0  0  0  0  0  0  0  0  0  0  0
    8.8594    1.0120    0.1567 C   0  0  2  0  0  0  0  0  0  0  0  0
    9.7578    0.3575   -0.7632 O   0  0  0  0  0  0  0  0  0  0  0  0
    9.1702    2.5170    0.2271 C   0  0  2  0  0  0  0  0  0  0  0  0
   10.5977    2.7422    0.3604 N   0  3  0  0  0  0  0  0  0  0  0  0
    8.4063    3.2354    1.3456 C   0  0  1  0  0  0  0  0  0  0  0  0
    7.0644    3.4490    0.9375 O   0  0  0  0  0  0  0  0  0  0  0  0
    8.4235    2.4503    2.6544 C   0  0  2  0  0  0  0  0  0  0  0  0
    9.7215    2.5026    3.2349 O   0  0  0  0  0  0  0  0  0  0  0  0
    7.9820    0.2050    3.6879 C   0  0  0  0  0  0  0  0  0  0  0  0
    6.7865    0.5304    4.4426 N   0  3  0  0  0  0  0  0  0  0  0  0
    7.8739   -6.4574   -1.7697 C   0  0  1  0  0  0  0  0  0  0  0  0
    8.4359   -6.9961   -2.9846 O   0  0  0  0  0  0  0  0  0  0  0  0
    7.5448   -6.9002   -4.1196 C   0  0  2  0  0  0  0  0  0  0  0  0
    7.2935   -5.5244   -4.4985 O   0  0  0  0  0  0  0  0  0  0  0  0
    6.2337   -7.6455   -3.8418 C   0  0  2  0  0  0  0  0  0  0  0  0
    5.2730   -7.3667   -4.8930 N   0  3  0  0  0  0  0  0  0  0  0  0
    5.6334   -7.2509   -2.4970 C   0  0  1  0  0  0  0  0  0  0  0  0
    4.5630   -8.1258   -2.1761 O   0  0  0  0  0  0  0  0  0  0  0  0
    6.6467   -7.2565   -1.3627 C   0  0  2  0  0  0  0  0  0  0  0  0
    6.0742   -6.7032   -0.1868 O   0  0  0  0  0  0  0  0  0  0  0  0
    8.8893   -6.5580   -0.6350 C   0  0  0  0  0  0  0  0  0  0  0  0
    8.6295   -5.5516    0.3781 N   0  3  0  0  0  0  0  0  0  0  0  0
   11.4462   -5.1498   -5.3438 C   0  0  2  0  0  0  0  0  0  0  0  0
   10.4897   -5.2712   -6.5136 C   0  0  0  0  0  0  0  0  0  0  0  0
    9.1429   -5.7923   -6.0472 C   0  0  1  0  0  0  0  0  0  0  0  0
    8.4701   -4.8644   -5.0347 C   0  0  2  0  0  0  0  0  0  0  0  0
    9.4402   -4.5020   -3.8864 C   0  0  1  0  0  0  0  0  0  0  0  0
   10.8902   -4.2026   -4.2890 C   0  0  1  0  0  0  0  0  0  0  0  0
   12.7255   -4.6560   -5.8166 N   0  3  0  0  0  0  0  0  0  0  0  0
    8.2890   -5.9913   -7.2020 N   0  3  0  0  0  0  0  0  0  0  0  0
    8.9193   -3.4236   -3.0710 O   0  0  0  0  0  0  0  0  0  0  0  0
   11.7250   -4.2250   -3.1359 O   0  0  0  0  0  0  0  0  0  0  0  0
  1  2  1  0  0  0  0
  3  2  1  6  0  0  0
  3  4  1  0  0  0  0
  3  5  1  0  0  0  0
  4  8  1  0  0  0  0
  5  6  1  0  0  0  0
  5 12  1  1  0  0  0
  6  7  1  1  0  0  0
  6  8  1  0  0  0  0
  8 41  1  6  0  0  0
  9 10  1  0  0  0  0
  9 17  1  0  0  0  0
  9 19  1  1  0  0  0
 10 11  1  0  0  0  0
 11 12  1  6  0  0  0
 11 13  1  0  0  0  0
 13 14  1  1  0  0  0
 13 15  1  0  0  0  0
 15 16  1  6  0  0  0
 15 17  1  0  0  0  0
 17 18  1  6  0  0  0
 19 20  1  0  0  0  0
 21 22  1  0  0  0  0
 21 29  1  0  0  0  0
 21 31  1  1  0  0  0
 22 23  1  0  0  0  0
 23 24  1  1  0  0  0
 23 25  1  0  0  0  0
 25 26  1  6  0  0  0
 25 27  1  0  0  0  0
 27 28  1  1  0  0  0
 27 29  1  0  0  0  0
 29 30  1  1  0  0  0
 31 32  1  0  0  0  0
 33 34  1  0  0  0  0
 33 38  1  0  0  0  0
 33 39  1  6  0  0  0
 34 35  1  0  0  0  0
 35 36  1  0  0  0  0
 35 40  1  6  0  0  0
 36 24  1  1  0  0  0
 36 37  1  0  0  0  0
 37 38  1  0  0  0  0
 37 41  1  6  0  0  0
 38 42  1  1  0  0  0
M  CHG  6  14   1  20   1  26   1  32   1  39   1  40   1
M  END
>  <CHROM.1>
71.73946002,-26.07137548,-52.80631742,-172.85404986,-127.97490344,-162.27280037
79.70696808,-149.13389222,52.03869167,-65.10267133,-60.89543999,154.79815792
67.65802250,46.01841926,146.98836197,-58.72053499,48.63544128,58.91047794
-76.88404699,48.68677494,170.77781008,-74.28339954,8.56995323,-2.99506958
-1.53020603,1.49606968,0.72438224,0.69240669

>  <Name>


>  <RI>
0

>  <Rbt.Current_Directory>
/home/itssahil/PROJECTS/Mol_Feturizer/New_Systems/rnas/1qd3

>  <Rbt.Executable>
rbdock ($Id: //depot/dev/client3/rdock/2013.1/src/exe/rbdock.cxx#4 $)

>  <Rbt.Library>
libRbt.so (2013.1, Build901 2013/11/27)

>  <Rbt.Parameter_File>
/export/apps/rDock/src/rDock_2013.1_src/data/scripts/dock_solv.prm

>  <Rbt.Receptor>
prm/pocket_docking_2.prm

>  <SCORE>
-40.8387

>  <SCORE.INTER>
-34.9597

>  <SCORE.INTER.CONST>
1

>  <SCORE.INTER.POLAR>
-6.46164

>  <SCORE.INTER.ROT>
9

>  <SCORE.INTER.SOLV>
32.4393

>  <SCORE.INTER.VDW>
-22.1807

>  <SCORE.INTER.norm>
-0.832373

>  <SCORE.INTRA>
-13.2036

>  <SCORE.INTRA.DIHEDRAL>
-14.4532

>  <SCORE.INTRA.DIHEDRAL.0>
40.6252

>  <SCORE.INTRA.POLAR>
-0.12417

>  <SCORE.INTRA.POLAR.0>
-1.20161

>  <SCORE.INTRA.REPUL>
0.0719123

>  <SCORE.INTRA.REPUL.0>
0.115675

>  <SCORE.INTRA.SOLV>
-6.22553

>  <SCORE.INTRA.SOLV.lig_0>
-154.895

>  <SCORE.INTRA.VDW>
-2.8016

>  <SCORE.INTRA.VDW.0>
2.2925

>  <SCORE.INTRA.norm>
-0.314371

>  <SCORE.RESTR>
7.32456

>  <SCORE.RESTR.CAVITY>
7.32456

>  <SCORE.RESTR.norm>
0.174394

>  <SCORE.SYSTEM>
0

>  <SCORE.SYSTEM.CONST>
0

>  <SCORE.SYSTEM.DIHEDRAL>
0

>  <SCORE.SYSTEM.SOLV>
0

>  <SCORE.SYSTEM.norm>
0

>  <SCORE.heavy>
42

>  <SCORE.norm>
-0.972349

>  <RMSD>
9.135

$$$$

 OpenBabel11021811413D
libRbt.so/2013.1/901 2013/11/27
 42 45  0  0  0  0  0  0  0  0999 V2000
   10.7551    1.6436   -1.4762 O   0  0  0  0  0  0  0  0  0  0  0  0
   10.0992    1.2342   -0.2846 C   0  0  0  0  0  0  0  0  0  0  0  0
    8.9893    0.2374   -0.6209 C   0  0  1  0  0  0  0  0  0  0  0  0
    9.3983   -0.6707   -1.6667 O   0  0  0  0  0  0  0  0  0  0  0  0
    8.5891   -0.6391    0.5542 C   0  0  2  0  0  0  0  0  0  0  0  0
    7.9046   -1.7835   -0.1743 C   0  0  1  0  0  0  0  0  0  0  0  0
    6.6011   -1.3828   -0.5820 O   0  0  0  0  0  0  0  0  0  0  0  0
    8.8066   -1.9697   -1.4114 C   0  0  2  0  0  0  0  0  0  0  0  0
    8.9003    3.4451    2.0829 C   0  0  2  0  0  0  0  0  0  0  0  0
    8.2102    2.3646    1.4365 O   0  0  0  0  0  0  0  0  0  0  0  0
    8.3537    1.1274    2.1574 C   0  0  2  0  0  0  0  0  0  0  0  0
    7.6989    0.0526    1.4520 O   0  0  0  0  0  0  0  0  0  0  0  0
    7.7830    1.2586    3.5799 C   0  0  2  0  0  0  0  0  0  0  0  0
    6.3325    1.2142    3.5588 N   0  3  0  0  0  0  0  0  0  0  0  0
    8.2714    2.5162    4.3084 C   0  0  1  0  0  0  0  0  0  0  0  0
    9.5960    2.3075    4.7716 O   0  0  0  0  0  0  0  0  0  0  0  0
    8.2311    3.7538    3.4161 C   0  0  2  0  0  0  0  0  0  0  0  0
    6.8829    4.1570    3.2057 O   0  0  0  0  0  0  0  0  0  0  0  0
    8.9232    4.6807    1.1875 C   0  0  0  0  0  0  0  0  0  0  0  0
    9.9541    5.6036    1.6241 N   0  3  0  0  0  0  0  0  0  0  0  0
    6.3060   -5.3047   -3.0972 C   0  0  1  0  0  0  0  0  0  0  0  0
    7.0071   -4.6470   -2.0211 O   0  0  0  0  0  0  0  0  0  0  0  0
    8.1063   -5.4250   -1.4938 C   0  0  2  0  0  0  0  0  0  0  0  0
    9.1644   -5.6006   -2.4682 O   0  0  0  0  0  0  0  0  0  0  0  0
    7.6085   -6.7770   -0.9685 C   0  0  2  0  0  0  0  0  0  0  0  0
    8.7377   -7.6268   -0.6393 N   0  3  0  0  0  0  0  0  0  0  0  0
    6.7259   -7.4889   -1.9876 C   0  0  1  0  0  0  0  0  0  0  0  0
    6.1016   -8.6091   -1.3795 O   0  0  0  0  0  0  0  0  0  0  0  0
    5.6624   -6.5868   -2.5947 C   0  0  2  0  0  0  0  0  0  0  0  0
    5.0030   -7.2508   -3.6627 O   0  0  0  0  0  0  0  0  0  0  0  0
    5.1928   -4.4031   -3.6232 C   0  0  0  0  0  0  0  0  0  0  0  0
    4.8422   -4.7607   -4.9855 N   0  3  0  0  0  0  0  0  0  0  0  0
   11.8080   -2.8661   -4.3742 C   0  0  2  0  0  0  0  0  0  0  0  0
   10.7090   -3.4931   -5.2091 C   0  0  0  0  0  0  0  0  0  0  0  0
   10.1357   -4.7096   -4.5061 C   0  0  1  0  0  0  0  0  0  0  0  0
    9.5084   -4.3681   -3.1538 C   0  0  2  0  0  0  0  0  0  0  0  0
   10.4816   -3.5366   -2.2864 C   0  0  1  0  0  0  0  0  0  0  0  0
   11.2751   -2.4421   -3.0123 C   0  0  1  0  0  0  0  0  0  0  0  0
   12.3421   -1.7108   -5.0699 N   0  3  0  0  0  0  0  0  0  0  0  0
    9.1615   -5.3406   -5.3751 N   0  3  0  0  0  0  0  0  0  0  0  0
    9.8163   -2.9799   -1.1261 O   0  0  0  0  0  0  0  0  0  0  0  0
   12.3518   -2.0024   -2.1910 O   0  0  0  0  0  0  0  0  0  0  0  0
  1  2  1  0  0  0  0
  3  2  1  1  0  0  0
  3  4  1  0  0  0  0
  3  5  1  0  0  0  0
  4  8  1  0  0  0  0
  5  6  1  0  0  0  0
  5 12  1  1  0  0  0
  6  7  1  6  0  0  0
  6  8  1  0  0  0  0
  8 41  1  1  0  0  0
  9 10  1  0  0  0  0
  9 17  1  0  0  0  0
  9 19  1  6  0  0  0
 10 11  1  0  0  0  0
 11 12  1  6  0  0  0
 11 13  1  0  0  0  0
 13 14  1  6  0  0  0
 13 15  1  0  0  0  0
 15 16  1  6  0  0  0
 15 17  1  0  0  0  0
 17 18  1  6  0  0  0
 19 20  1  0  0  0  0
 21 22  1  0  0  0  0
 21 29  1  0  0  0  0
 21 31  1  1  0  0  0
 22 23  1  0  0  0  0
 23 24  1  6  0  0  0
 23 25  1  0  0  0  0
 25 26  1  6  0  0  0
 25 27  1  0  0  0  0
 27 28  1  1  0  0  0
 27 29  1  0  0  0  0
 29 30  1  6  0  0  0
 31 32  1  0  0  0  0
 33 34  1  0  0  0  0
 33 38  1  0  0  0  0
 33 39  1  6  0  0  0
 34 35  1  0  0  0  0
 35 36  1  0  0  0  0
 35 40  1  6  0  0  0
 36 24  1  1  0  0  0
 36 37  1  0  0  0  0
 37 38  1  0  0  0  0
 37 41  1  1  0  0  0
 38 42  1  1  0  0  0
M  CHG  6  14   1  20   1  26   1  32   1  39   1  40   1
M  END
>  <CHROM.1>
65.56222908,39.11972087,-68.75154484,-68.13966591,-80.12864093,-161.70286667
91.88120368,50.82316534,64.83281826,-60.00682622,57.19533335,156.92314531
45.94695306,-155.80019920,-33.36309206,-54.25035403,63.41999007,107.87718349
-174.77139798,-31.69774857,-66.87024724,-177.61074569,8.51983302,-1.86276506
-0.91598290,-1.46381716,-0.67288314,-2.51009191

>  <Name>


>  <RI>
0

>  <Rbt.Current_Directory>
/home/itssahil/PROJECTS/Mol_Feturizer/New_Systems/rnas/1qd3

>  <Rbt.Executable>
rbdock ($Id: //depot/dev/client3/rdock/2013.1/src/exe/rbdock.cxx#4 $)

>  <Rbt.Library>
libRbt.so (2013.1, Build901 2013/11/27)

>  <Rbt.Parameter_File>
/export/apps/rDock/src/rDock_2013.1_src/data/scripts/dock_solv.prm

>  <Rbt.Receptor>
prm/pocket_docking_2.prm

>  <SCORE>
-56.078

>  <SCORE.INTER>
-45.7454

>  <SCORE.INTER.CONST>
1

>  <SCORE.INTER.POLAR>
-7.61288

>  <SCORE.INTER.ROT>
9

>  <SCORE.INTER.SOLV>
36.8528

>  <SCORE.INTER.VDW>
-27.0049

>  <SCORE.INTER.norm>
-1.08918

>  <SCORE.INTRA>
-19.3641

>  <SCORE.INTRA.DIHEDRAL>
-18.0781

>  <SCORE.INTRA.DIHEDRAL.0>
40.6252

>  <SCORE.INTRA.POLAR>
0.872043

>  <SCORE.INTRA.POLAR.0>
-1.20161

>  <SCORE.INTRA.REPUL>
-0.115675

>  <SCORE.INTRA.REPUL.0>
0.115675

>  <SCORE.INTRA.SOLV>
-11.736

>  <SCORE.INTRA.SOLV.lig_0>
-154.895

>  <SCORE.INTRA.VDW>
-6.84366

>  <SCORE.INTRA.VDW.0>
2.2925

>  <SCORE.INTRA.norm>
-0.46105

>  <SCORE.RESTR>
9.03155

>  <SCORE.RESTR.CAVITY>
9.03155

>  <SCORE.RESTR.norm>
0.215037

>  <SCORE.SYSTEM>
0

>  <SCORE.SYSTEM.CONST>
0

>  <SCORE.SYSTEM.DIHEDRAL>
0

>  <SCORE.SYSTEM.SOLV>
0

>  <SCORE.SYSTEM.norm>
0

>  <SCORE.heavy>
42

>  <SCORE.norm>
-1.33519

>  <RMSD>
9.140

$$$$

 OpenBabel11021811413D
libRbt.so/2013.1/901 2013/11/27
 42 45  0  0  0  0  0  0  0  0999 V2000
   14.1730   -0.2756   -2.2510 O   0  0  0  0  0  0  0  0  0  0  0  0
   13.0265    0.1117   -1.5073 C   0  0  0  0  0  0  0  0  0  0  0  0
   11.7593   -0.2615   -2.2777 C   0  0  1  0  0  0  0  0  0  0  0  0
   11.6793   -1.6865   -2.4979 O   0  0  0  0  0  0  0  0  0  0  0  0
   10.4787    0.1169   -1.5523 C   0  0  2  0  0  0  0  0  0  0  0  0
    9.4820   -0.7851   -2.2609 C   0  0  1  0  0  0  0  0  0  0  0  0
    9.1620   -0.2398   -3.5360 O   0  0  0  0  0  0  0  0  0  0  0  0
   10.2875   -2.0887   -2.4356 C   0  0  2  0  0  0  0  0  0  0  0  0
   10.5704    4.4910    0.3643 C   0  0  2  0  0  0  0  0  0  0  0  0
   10.2312    3.6867   -0.7756 O   0  0  0  0  0  0  0  0  0  0  0  0
   10.4649    2.2873   -0.5349 C   0  0  2  0  0  0  0  0  0  0  0  0
   10.1698    1.5149   -1.7172 O   0  0  0  0  0  0  0  0  0  0  0  0
    9.6201    1.7920    0.6515 C   0  0  2  0  0  0  0  0  0  0  0  0
    8.2346    1.6132    0.2578 N   0  3  0  0  0  0  0  0  0  0  0  0
    9.7160    2.7057    1.8789 C   0  0  1  0  0  0  0  0  0  0  0  0
   10.9438    2.4671    2.5488 O   0  0  0  0  0  0  0  0  0  0  0  0
    9.6142    4.1831    1.5096 C   0  0  2  0  0  0  0  0  0  0  0  0
    8.2793    4.4982    1.1313 O   0  0  0  0  0  0  0  0  0  0  0  0
   10.5305    5.9742    0.0071 C   0  0  0  0  0  0  0  0  0  0  0  0
   11.3877    6.2441   -1.1319 N   0  3  0  0  0  0  0  0  0  0  0  0
   13.5292   -4.6963    1.0034 C   0  0  1  0  0  0  0  0  0  0  0  0
   12.7137   -3.7419    0.2919 O   0  0  0  0  0  0  0  0  0  0  0  0
   12.6840   -3.9662   -1.1365 C   0  0  2  0  0  0  0  0  0  0  0  0
   12.0354   -5.2164   -1.4769 O   0  0  0  0  0  0  0  0  0  0  0  0
   14.0991   -3.8997   -1.7235 C   0  0  2  0  0  0  0  0  0  0  0  0
   14.0817   -4.3321   -3.1086 N   0  3  0  0  0  0  0  0  0  0  0  0
   15.0773   -4.7679   -0.9399 C   0  0  1  0  0  0  0  0  0  0  0  0
   16.4039   -4.4958   -1.3644 O   0  0  0  0  0  0  0  0  0  0  0  0
   14.9795   -4.5734    0.5654 C   0  0  2  0  0  0  0  0  0  0  0  0
   15.7745   -5.5372    1.2403 O   0  0  0  0  0  0  0  0  0  0  0  0
   13.4728   -4.4165    2.5025 C   0  0  0  0  0  0  0  0  0  0  0  0
   13.9099   -3.0625    2.7895 N   0  3  0  0  0  0  0  0  0  0  0  0
    7.8770   -6.1056   -1.6072 C   0  0  2  0  0  0  0  0  0  0  0  0
    8.7552   -6.9397   -0.6954 C   0  0  0  0  0  0  0  0  0  0  0  0
   10.2172   -6.7705   -1.0649 C   0  0  1  0  0  0  0  0  0  0  0  0
   10.6979   -5.3256   -0.9230 C   0  0  2  0  0  0  0  0  0  0  0  0
    9.7444   -4.3510   -1.6523 C   0  0  1  0  0  0  0  0  0  0  0  0
    8.2428   -4.6309   -1.5066 C   0  0  1  0  0  0  0  0  0  0  0  0
    6.4866   -6.2893   -1.2372 N   0  3  0  0  0  0  0  0  0  0  0  0
   11.0169   -7.6568   -0.2420 N   0  3  0  0  0  0  0  0  0  0  0  0
   10.0275   -2.9727   -1.3075 O   0  0  0  0  0  0  0  0  0  0  0  0
    7.5174   -3.8888   -2.4814 O   0  0  0  0  0  0  0  0  0  0  0  0
  1  2  1  0  0  0  0
  3  2  1  1  0  0  0
  3  4  1  0  0  0  0
  3  5  1  0  0  0  0
  4  8  1  0  0  0  0
  5  6  1  0  0  0  0
  5 12  1  6  0  0  0
  6  7  1  6  0  0  0
  6  8  1  0  0  0  0
  8 41  1  1  0  0  0
  9 10  1  0  0  0  0
  9 17  1  0  0  0  0
  9 19  1  6  0  0  0
 10 11  1  0  0  0  0
 11 12  1  6  0  0  0
 11 13  1  0  0  0  0
 13 14  1  6  0  0  0
 13 15  1  0  0  0  0
 15 16  1  6  0  0  0
 15 17  1  0  0  0  0
 17 18  1  6  0  0  0
 19 20  1  0  0  0  0
 21 22  1  0  0  0  0
 21 29  1  0  0  0  0
 21 31  1  1  0  0  0
 22 23  1  0  0  0  0
 23 24  1  1  0  0  0
 23 25  1  0  0  0  0
 25 26  1  6  0  0  0
 25 27  1  0  0  0  0
 27 28  1  6  0  0  0
 27 29  1  0  0  0  0
 29 30  1  1  0  0  0
 31 32  1  0  0  0  0
 33 34  1  0  0  0  0
 33 38  1  0  0  0  0
 33 39  1  1  0  0  0
 34 35  1  0  0  0  0
 35 36  1  0  0  0  0
 35 40  1  1  0  0  0
 36 24  1  6  0  0  0
 36 37  1  0  0  0  0
 37 38  1  0  0  0  0
 37 41  1  1  0  0  0
 38 42  1  6  0  0  0
M  CHG  6  14   1  20   1  26   1  32   1  39   1  40   1
M  END
>  <CHROM.1>
-177.37469213,60.82471768,-104.26327266,-66.81453392,-109.62008775,-55.03641741
175.93543763,-173.33597005,59.11135686,39.78403867,-68.51378346,-57.62130497
54.87961286,-167.66786366,174.08627783,-176.13825604,-66.42988445,65.06282581
-179.07862178,-175.21226275,124.87578036,73.80473456,11.18567754,-1.67735249
-0.67495073,-1.77997156,0.21270744,-3.01985619

>  <Name>


>  <RI>
0

>  <Rbt.Current_Directory>
/home/itssahil/PROJECTS/Mol_Feturizer/New_Systems/rnas/1qd3

>  <Rbt.Executable>
rbdock ($Id: //depot/dev/client3/rdock/2013.1/src/exe/rbdock.cxx#4 $)

>  <Rbt.Library>
libRbt.so (2013.1, Build901 2013/11/27)

>  <Rbt.Parameter_File>
/export/apps/rDock/src/rDock_2013.1_src/data/scripts/dock_solv.prm

>  <Rbt.Receptor>
prm/pocket_docking_7.prm

>  <SCORE>
-36.1381

>  <SCORE.INTER>
-17.5286

>  <SCORE.INTER.CONST>
1

>  <SCORE.INTER.POLAR>
-3.14499

>  <SCORE.INTER.ROT>
9

>  <SCORE.INTER.SOLV>
24.9927

>  <SCORE.INTER.VDW>
-19.1333

>  <SCORE.INTER.norm>
-0.417348

>  <SCORE.INTRA>
-18.6095

>  <SCORE.INTRA.DIHEDRAL>
-15.0208

>  <SCORE.INTRA.DIHEDRAL.0>
40.6252

>  <SCORE.INTRA.POLAR>
1.18532

>  <SCORE.INTRA.POLAR.0>
-1.20161

>  <SCORE.INTRA.REPUL>
-0.115675

>  <SCORE.INTRA.REPUL.0>
0.115675

>  <SCORE.INTRA.SOLV>
-11.4953

>  <SCORE.INTRA.SOLV.lig_0>
-154.895

>  <SCORE.INTRA.VDW>
-8.80322

>  <SCORE.INTRA.VDW.0>
2.2925

>  <SCORE.INTRA.norm>
-0.443084

>  <SCORE.RESTR>
0

>  <SCORE.RESTR.CAVITY>
0

>  <SCORE.RESTR.norm>
0

>  <SCORE.SYSTEM>
0

>  <SCORE.SYSTEM.CONST>
0

>  <SCORE.SYSTEM.DIHEDRAL>
0

>  <SCORE.SYSTEM.SOLV>
0

>  <SCORE.SYSTEM.norm>
0

>  <SCORE.heavy>
42

>  <SCORE.norm>
-0.860432

>  <RMSD>
9.150

$$$$

 OpenBabel11021811413D
libRbt.so/2013.1/901 2013/11/27
 42 45  0  0  0  0  0  0  0  0999 V2000
    9.4093   -4.9906   -5.5361 O   0  0  0  0  0  0  0  0  0  0  0  0
    8.9314   -4.7169   -4.2267 C   0  0  0  0  0  0  0  0  0  0  0  0
    7.6539   -5.5153   -3.9645 C   0  0  1  0  0  0  0  0  0  0  0  0
    7.8771   -6.9325   -4.1304 O   0  0  0  0  0  0  0  0  0  0  0  0
    7.1144   -5.3445   -2.5541 C   0  0  2  0  0  0  0  0  0  0  0  0
    6.2232   -6.5706   -2.4479 C   0  0  1  0  0  0  0  0  0  0  0  0
    5.0102   -6.3464   -3.1580 O   0  0  0  0  0  0  0  0  0  0  0  0
    7.0608   -7.6469   -3.1681 C   0  0  2  0  0  0  0  0  0  0  0  0
    9.1950   -1.9830   -1.4839 C   0  0  2  0  0  0  0  0  0  0  0  0
    8.4196   -2.9305   -2.2339 O   0  0  0  0  0  0  0  0  0  0  0  0
    7.1073   -3.1151   -1.6731 C   0  0  2  0  0  0  0  0  0  0  0  0
    6.3768   -4.1143   -2.4145 O   0  0  0  0  0  0  0  0  0  0  0  0
    6.3312   -1.7870   -1.6589 C   0  0  2  0  0  0  0  0  0  0  0  0
    5.8460   -1.4600   -2.9871 N   0  3  0  0  0  0  0  0  0  0  0  0
    7.1456   -0.6226   -1.0829 C   0  0  1  0  0  0  0  0  0  0  0  0
    7.1679   -0.7184    0.3325 O   0  0  0  0  0  0  0  0  0  0  0  0
    8.5756   -0.5975   -1.6159 C   0  0  2  0  0  0  0  0  0  0  0  0
    8.5788   -0.1873   -2.9783 O   0  0  0  0  0  0  0  0  0  0  0  0
   10.6448   -1.9775   -1.9601 C   0  0  0  0  0  0  0  0  0  0  0  0
   11.4425   -2.8925   -1.1654 N   0  3  0  0  0  0  0  0  0  0  0  0
    9.2948   -9.6530    0.7411 C   0  0  1  0  0  0  0  0  0  0  0  0
    8.0990  -10.4338    0.9471 O   0  0  0  0  0  0  0  0  0  0  0  0
    6.9880   -9.6578    1.4519 C   0  0  2  0  0  0  0  0  0  0  0  0
    6.5324   -8.6728    0.4917 O   0  0  0  0  0  0  0  0  0  0  0  0
    7.3514   -8.9999    2.7886 C   0  0  2  0  0  0  0  0  0  0  0  0
    6.3147   -8.0618    3.1771 N   0  3  0  0  0  0  0  0  0  0  0  0
    8.6868   -8.2682    2.7137 C   0  0  1  0  0  0  0  0  0  0  0  0
    9.0938   -7.8816    4.0172 O   0  0  0  0  0  0  0  0  0  0  0  0
    9.7878   -9.0935    2.0656 C   0  0  2  0  0  0  0  0  0  0  0  0
   10.9441   -8.2961    1.8563 O   0  0  0  0  0  0  0  0  0  0  0  0
   10.4019  -10.5340    0.1697 C   0  0  0  0  0  0  0  0  0  0  0  0
    9.9281  -11.2681   -0.9894 N   0  3  0  0  0  0  0  0  0  0  0  0
    6.2000  -11.7814   -2.3937 C   0  0  2  0  0  0  0  0  0  0  0  0
    4.9407  -11.3400   -1.6745 C   0  0  0  0  0  0  0  0  0  0  0  0
    5.2901  -10.5420   -0.4320 C   0  0  1  0  0  0  0  0  0  0  0  0
    6.0737   -9.2679   -0.7504 C   0  0  2  0  0  0  0  0  0  0  0  0
    7.2819   -9.5754   -1.6651 C   0  0  1  0  0  0  0  0  0  0  0  0
    7.0380  -10.5771   -2.8015 C   0  0  1  0  0  0  0  0  0  0  0  0
    5.8391  -12.5457   -3.5725 N   0  3  0  0  0  0  0  0  0  0  0  0
    4.0692  -10.2243    0.2828 N   0  3  0  0  0  0  0  0  0  0  0  0
    7.8720   -8.3617   -2.1921 O   0  0  0  0  0  0  0  0  0  0  0  0
    8.2839  -11.0166   -3.3321 O   0  0  0  0  0  0  0  0  0  0  0  0
  1  2  1  0  0  0  0
  3  2  1  1  0  0  0
  3  4  1  0  0  0  0
  3  5  1  0  0  0  0
  4  8  1  0  0  0  0
  5  6  1  0  0  0  0
  5 12  1  6  0  0  0
  6  7  1  6  0  0  0
  6  8  1  0  0  0  0
  8 41  1  1  0  0  0
  9 10  1  0  0  0  0
  9 17  1  0  0  0  0
  9 19  1  6  0  0  0
 10 11  1  0  0  0  0
 11 12  1  6  0  0  0
 11 13  1  0  0  0  0
 13 14  1  6  0  0  0
 13 15  1  0  0  0  0
 15 16  1  1  0  0  0
 15 17  1  0  0  0  0
 17 18  1  6  0  0  0
 19 20  1  0  0  0  0
 21 22  1  0  0  0  0
 21 29  1  0  0  0  0
 21 31  1  1  0  0  0
 22 23  1  0  0  0  0
 23 24  1  6  0  0  0
 23 25  1  0  0  0  0
 25 26  1  6  0  0  0
 25 27  1  0  0  0  0
 27 28  1  1  0  0  0
 27 29  1  0  0  0  0
 29 30  1  6  0  0  0
 31 32  1  0  0  0  0
 33 34  1  0  0  0  0
 33 38  1  0  0  0  0
 33 39  1  6  0  0  0
 34 35  1  0  0  0  0
 35 36  1  0  0  0  0
 35 40  1  6  0  0  0
 36 24  1  1  0  0  0
 36 37  1  0  0  0  0
 37 38  1  0  0  0  0
 37 41  1  6  0  0  0
 38 42  1  1  0  0  0
M  CHG  6  14   1  20   1  26   1  32   1  39   1  40   1
M  END
>  <CHROM.1>
75.31776154,57.57128517,-105.84533904,-71.48468040,-149.67153655,-92.86319907
52.35606055,178.35971363,58.99170215,40.66125769,172.10157937,51.12892550
60.45846031,39.84513919,-146.67205869,55.54965327,-174.79818156,-173.82709301
-69.39160226,74.78585406,-69.57279086,166.81768796,7.68980017,-6.81030668
-1.18226149,1.31457022,-1.18899753,-0.45970543

>  <Name>


>  <RI>
0

>  <Rbt.Current_Directory>
/home/itssahil/PROJECTS/Mol_Feturizer/New_Systems/rnas/1qd3

>  <Rbt.Executable>
rbdock ($Id: //depot/dev/client3/rdock/2013.1/src/exe/rbdock.cxx#4 $)

>  <Rbt.Library>
libRbt.so (2013.1, Build901 2013/11/27)

>  <Rbt.Parameter_File>
/export/apps/rDock/src/rDock_2013.1_src/data/scripts/dock_solv.prm

>  <Rbt.Receptor>
prm/pocket_docking_8.prm

>  <SCORE>
-68.383

>  <SCORE.INTER>
-50.094

>  <SCORE.INTER.CONST>
1

>  <SCORE.INTER.POLAR>
-9.27297

>  <SCORE.INTER.ROT>
9

>  <SCORE.INTER.SOLV>
36.324

>  <SCORE.INTER.VDW>
-24.1941

>  <SCORE.INTER.norm>
-1.19271

>  <SCORE.INTRA>
-18.289

>  <SCORE.INTRA.DIHEDRAL>
-16.5931

>  <SCORE.INTRA.DIHEDRAL.0>
40.6252

>  <SCORE.INTRA.POLAR>
0.652615

>  <SCORE.INTRA.POLAR.0>
-1.20161

>  <SCORE.INTRA.REPUL>
-0.115675

>  <SCORE.INTRA.REPUL.0>
0.115675

>  <SCORE.INTRA.SOLV>
-10.7077

>  <SCORE.INTRA.SOLV.lig_0>
-154.895

>  <SCORE.INTRA.VDW>
-6.27915

>  <SCORE.INTRA.VDW.0>
2.2925

>  <SCORE.INTRA.norm>
-0.435453

>  <SCORE.RESTR>
0

>  <SCORE.RESTR.CAVITY>
0

>  <SCORE.RESTR.norm>
0

>  <SCORE.SYSTEM>
0

>  <SCORE.SYSTEM.CONST>
0

>  <SCORE.SYSTEM.DIHEDRAL>
0

>  <SCORE.SYSTEM.SOLV>
0

>  <SCORE.SYSTEM.norm>
0

>  <SCORE.heavy>
42

>  <SCORE.norm>
-1.62817

>  <RMSD>
9.151

$$$$

 OpenBabel11021811413D
libRbt.so/2013.1/901 2013/11/27
 42 45  0  0  0  0  0  0  0  0999 V2000
   10.5645    2.0574   -1.0458 O   0  0  0  0  0  0  0  0  0  0  0  0
    9.8260    1.4203   -0.0131 C   0  0  0  0  0  0  0  0  0  0  0  0
    9.0528    0.2323   -0.5869 C   0  0  1  0  0  0  0  0  0  0  0  0
    9.7762   -0.3911   -1.6702 O   0  0  0  0  0  0  0  0  0  0  0  0
    8.7990   -0.8695    0.4284 C   0  0  2  0  0  0  0  0  0  0  0  0
    8.5072   -2.0381   -0.4980 C   0  0  1  0  0  0  0  0  0  0  0  0
    7.1844   -1.9262   -1.0113 O   0  0  0  0  0  0  0  0  0  0  0  0
    9.5296   -1.8196   -1.6319 C   0  0  2  0  0  0  0  0  0  0  0  0
    7.8574    2.7588    2.8159 C   0  0  2  0  0  0  0  0  0  0  0  0
    7.4977    1.7298    1.8814 O   0  0  0  0  0  0  0  0  0  0  0  0
    8.0125    0.4443    2.2728 C   0  0  2  0  0  0  0  0  0  0  0  0
    7.6834   -0.5541    1.2846 O   0  0  0  0  0  0  0  0  0  0  0  0
    7.4615    0.0351    3.6495 C   0  0  2  0  0  0  0  0  0  0  0  0
    6.0870   -0.4177    3.5401 N   0  3  0  0  0  0  0  0  0  0  0  0
    7.5787    1.1483    4.6973 C   0  0  1  0  0  0  0  0  0  0  0  0
    8.9170    1.2176    5.1631 O   0  0  0  0  0  0  0  0  0  0  0  0
    7.1585    2.5080    4.1460 C   0  0  2  0  0  0  0  0  0  0  0  0
    5.7468    2.5464    3.9723 O   0  0  0  0  0  0  0  0  0  0  0  0
    7.4982    4.1356    2.2644 C   0  0  0  0  0  0  0  0  0  0  0  0
    8.2870    4.4296    1.0827 N   0  3  0  0  0  0  0  0  0  0  0  0
    8.2557   -4.6744   -4.1927 C   0  0  1  0  0  0  0  0  0  0  0  0
    8.8798   -4.2413   -2.9659 O   0  0  0  0  0  0  0  0  0  0  0  0
   10.1975   -4.8023   -2.7645 C   0  0  2  0  0  0  0  0  0  0  0  0
   11.1449   -4.3340   -3.7559 O   0  0  0  0  0  0  0  0  0  0  0  0
   10.1346   -6.3343   -2.7402 C   0  0  2  0  0  0  0  0  0  0  0  0
   11.4770   -6.8855   -2.7500 N   0  3  0  0  0  0  0  0  0  0  0  0
    9.3574   -6.8870   -3.9297 C   0  0  1  0  0  0  0  0  0  0  0  0
    9.1223   -8.2743   -3.7443 O   0  0  0  0  0  0  0  0  0  0  0  0
    8.0323   -6.1776   -4.1627 C   0  0  2  0  0  0  0  0  0  0  0  0
    7.4508   -6.6072   -5.3849 O   0  0  0  0  0  0  0  0  0  0  0  0
    6.8925   -4.0067   -4.3492 C   0  0  0  0  0  0  0  0  0  0  0  0
    6.2053   -3.9356   -3.0727 N   0  3  0  0  0  0  0  0  0  0  0  0
   13.3929   -0.7418   -3.3792 C   0  0  2  0  0  0  0  0  0  0  0  0
   12.7393   -1.0358   -4.7150 C   0  0  0  0  0  0  0  0  0  0  0  0
   12.3383   -2.4969   -4.8005 C   0  0  1  0  0  0  0  0  0  0  0  0
   11.3235   -2.8936   -3.7274 C   0  0  2  0  0  0  0  0  0  0  0  0
   11.7990   -2.4493   -2.3247 C   0  0  1  0  0  0  0  0  0  0  0  0
   12.4424   -1.0594   -2.2327 C   0  0  1  0  0  0  0  0  0  0  0  0
   13.7711    0.6575   -3.3254 N   0  3  0  0  0  0  0  0  0  0  0  0
   11.8110   -2.7642   -6.1244 N   0  3  0  0  0  0  0  0  0  0  0  0
   10.7422   -2.5725   -1.3415 O   0  0  0  0  0  0  0  0  0  0  0  0
   13.1265   -0.9263   -0.9911 O   0  0  0  0  0  0  0  0  0  0  0  0
  1  2  1  0  0  0  0
  3  2  1  1  0  0  0
  3  4  1  0  0  0  0
  3  5  1  0  0  0  0
  4  8  1  0  0  0  0
  5  6  1  0  0  0  0
  5 12  1  1  0  0  0
  6  7  1  6  0  0  0
  6  8  1  0  0  0  0
  8 41  1  1  0  0  0
  9 10  1  0  0  0  0
  9 17  1  0  0  0  0
  9 19  1  6  0  0  0
 10 11  1  0  0  0  0
 11 12  1  6  0  0  0
 11 13  1  0  0  0  0
 13 14  1  6  0  0  0
 13 15  1  0  0  0  0
 15 16  1  6  0  0  0
 15 17  1  0  0  0  0
 17 18  1  6  0  0  0
 19 20  1  0  0  0  0
 21 22  1  0  0  0  0
 21 29  1  0  0  0  0
 21 31  1  1  0  0  0
 22 23  1  0  0  0  0
 23 24  1  6  0  0  0
 23 25  1  0  0  0  0
 25 26  1  6  0  0  0
 25 27  1  0  0  0  0
 27 28  1  1  0  0  0
 27 29  1  0  0  0  0
 29 30  1  6  0  0  0
 31 32  1  0  0  0  0
 33 34  1  0  0  0  0
 33 38  1  0  0  0  0
 33 39  1  6  0  0  0
 34 35  1  0  0  0  0
 35 36  1  0  0  0  0
 35 40  1  6  0  0  0
 36 24  1  1  0  0  0
 36 37  1  0  0  0  0
 37 38  1  0  0  0  0
 37 41  1  1  0  0  0
 38 42  1  1  0  0  0
M  CHG  6  14   1  20   1  26   1  32   1  39   1  40   1
M  END
>  <CHROM.1>
56.91704017,32.99076257,-74.99488193,-49.56297895,-62.63871550,-64.91621435
101.80395352,86.11142958,-151.42296033,-57.51344596,10.46156213,-39.41664190
60.91208254,179.85304350,167.97832900,-61.82257583,-175.48070775,-49.82418586
-76.74760740,73.15983575,-58.01452359,169.50195045,9.35515127,-1.58559928
-1.09631996,-1.86476536,-0.61253787,-2.52723667

>  <Name>


>  <RI>
0

>  <Rbt.Current_Directory>
/home/itssahil/PROJECTS/Mol_Feturizer/New_Systems/rnas/1qd3

>  <Rbt.Executable>
rbdock ($Id: //depot/dev/client3/rdock/2013.1/src/exe/rbdock.cxx#4 $)

>  <Rbt.Library>
libRbt.so (2013.1, Build901 2013/11/27)

>  <Rbt.Parameter_File>
/export/apps/rDock/src/rDock_2013.1_src/data/scripts/dock_solv.prm

>  <Rbt.Receptor>
prm/pocket_docking_6.prm

>  <SCORE>
-50.9149

>  <SCORE.INTER>
-28.9149

>  <SCORE.INTER.CONST>
1

>  <SCORE.INTER.POLAR>
-5.72223

>  <SCORE.INTER.ROT>
9

>  <SCORE.INTER.SOLV>
36.294

>  <SCORE.INTER.VDW>
-21.9005

>  <SCORE.INTER.norm>
-0.688451

>  <SCORE.INTRA>
-21.9999

>  <SCORE.INTRA.DIHEDRAL>
-19.1365

>  <SCORE.INTRA.DIHEDRAL.0>
40.6252

>  <SCORE.INTRA.POLAR>
-0.0306614

>  <SCORE.INTRA.POLAR.0>
-1.20161

>  <SCORE.INTRA.REPUL>
-0.115675

>  <SCORE.INTRA.REPUL.0>
0.115675

>  <SCORE.INTRA.SOLV>
-9.36564

>  <SCORE.INTRA.SOLV.lig_0>
-154.895

>  <SCORE.INTRA.VDW>
-7.06625

>  <SCORE.INTRA.VDW.0>
2.2925

>  <SCORE.INTRA.norm>
-0.523808

>  <SCORE.RESTR>
0

>  <SCORE.RESTR.CAVITY>
0

>  <SCORE.RESTR.norm>
0

>  <SCORE.SYSTEM>
0

>  <SCORE.SYSTEM.CONST>
0

>  <SCORE.SYSTEM.DIHEDRAL>
0

>  <SCORE.SYSTEM.SOLV>
0

>  <SCORE.SYSTEM.norm>
0

>  <SCORE.heavy>
42

>  <SCORE.norm>
-1.21226

>  <RMSD>
9.152

$$$$

 OpenBabel11021811413D
libRbt.so/2013.1/901 2013/11/27
 42 45  0  0  0  0  0  0  0  0999 V2000
   10.1801    0.1082   -1.7518 O   0  0  0  0  0  0  0  0  0  0  0  0
    8.8201    0.5183   -1.7528 C   0  0  0  0  0  0  0  0  0  0  0  0
    7.9754   -0.4880   -0.9703 C   0  0  1  0  0  0  0  0  0  0  0  0
    8.1111   -1.8202   -1.5110 O   0  0  0  0  0  0  0  0  0  0  0  0
    8.3670   -0.5948    0.4942 C   0  0  2  0  0  0  0  0  0  0  0  0
    7.7578   -1.9416    0.8464 C   0  0  1  0  0  0  0  0  0  0  0  0
    6.3522   -1.8025    1.0216 O   0  0  0  0  0  0  0  0  0  0  0  0
    8.0485   -2.7730   -0.4196 C   0  0  2  0  0  0  0  0  0  0  0  0
   10.1059    3.3228    1.3270 C   0  0  2  0  0  0  0  0  0  0  0  0
    9.0618    2.4503    0.8686 O   0  0  0  0  0  0  0  0  0  0  0  0
    8.8203    1.3709    1.7891 C   0  0  2  0  0  0  0  0  0  0  0  0
    7.8082    0.4823    1.2718 O   0  0  0  0  0  0  0  0  0  0  0  0
    8.4007    1.9148    3.1655 C   0  0  2  0  0  0  0  0  0  0  0  0
    7.0198    2.3610    3.1436 N   0  3  0  0  0  0  0  0  0  0  0  0
    9.3184    3.0330    3.6737 C   0  0  1  0  0  0  0  0  0  0  0  0
   10.5191    2.4660    4.1735 O   0  0  0  0  0  0  0  0  0  0  0  0
    9.6483    4.0502    2.5847 C   0  0  2  0  0  0  0  0  0  0  0  0
    8.5036    4.8463    2.3011 O   0  0  0  0  0  0  0  0  0  0  0  0
   10.4944    4.3162    0.2357 C   0  0  0  0  0  0  0  0  0  0  0  0
   11.0219    3.6173   -0.9212 N   0  3  0  0  0  0  0  0  0  0  0  0
    6.3293   -6.2077   -4.4077 C   0  0  1  0  0  0  0  0  0  0  0  0
    6.2423   -5.0204   -3.5924 O   0  0  0  0  0  0  0  0  0  0  0  0
    6.8796   -5.1635   -2.3021 C   0  0  2  0  0  0  0  0  0  0  0  0
    8.3139   -5.3328   -2.4203 O   0  0  0  0  0  0  0  0  0  0  0  0
    6.2498   -6.3180   -1.5134 C   0  0  2  0  0  0  0  0  0  0  0  0
    7.0299   -6.5861   -0.3196 N   0  3  0  0  0  0  0  0  0  0  0  0
    6.1592   -7.5901   -2.3489 C   0  0  1  0  0  0  0  0  0  0  0  0
    5.3651   -8.5515   -1.6713 O   0  0  0  0  0  0  0  0  0  0  0  0
    5.5898   -7.3554   -3.7396 C   0  0  2  0  0  0  0  0  0  0  0  0
    5.7066   -8.5322   -4.5258 O   0  0  0  0  0  0  0  0  0  0  0  0
    5.6727   -5.9601   -5.7628 C   0  0  0  0  0  0  0  0  0  0  0  0
    5.9802   -4.6268   -6.2470 N   0  3  0  0  0  0  0  0  0  0  0  0
   11.7365   -2.9072   -3.1286 C   0  0  2  0  0  0  0  0  0  0  0  0
   10.6653   -2.9573   -4.2001 C   0  0  0  0  0  0  0  0  0  0  0  0
    9.7462   -4.1442   -3.9779 C   0  0  1  0  0  0  0  0  0  0  0  0
    9.0126   -4.0790   -2.6375 C   0  0  2  0  0  0  0  0  0  0  0  0
   10.0013   -3.8188   -1.4776 C   0  0  1  0  0  0  0  0  0  0  0  0
   11.1102   -2.7926   -1.7454 C   0  0  1  0  0  0  0  0  0  0  0  0
   12.6035   -1.7691   -3.3669 N   0  3  0  0  0  0  0  0  0  0  0  0
    8.7998   -4.2191   -5.0738 N   0  3  0  0  0  0  0  0  0  0  0  0
    9.3059   -3.4884   -0.2504 O   0  0  0  0  0  0  0  0  0  0  0  0
   12.1216   -2.9051   -0.7496 O   0  0  0  0  0  0  0  0  0  0  0  0
  1  2  1  0  0  0  0
  3  2  1  6  0  0  0
  3  4  1  0  0  0  0
  3  5  1  0  0  0  0
  4  8  1  0  0  0  0
  5  6  1  0  0  0  0
  5 12  1  1  0  0  0
  6  7  1  6  0  0  0
  6  8  1  0  0  0  0
  8 41  1  1  0  0  0
  9 10  1  0  0  0  0
  9 17  1  0  0  0  0
  9 19  1  6  0  0  0
 10 11  1  0  0  0  0
 11 12  1  6  0  0  0
 11 13  1  0  0  0  0
 13 14  1  6  0  0  0
 13 15  1  0  0  0  0
 15 16  1  6  0  0  0
 15 17  1  0  0  0  0
 17 18  1  6  0  0  0
 19 20  1  0  0  0  0
 21 22  1  0  0  0  0
 21 29  1  0  0  0  0
 21 31  1  6  0  0  0
 22 23  1  0  0  0  0
 23 24  1  6  0  0  0
 23 25  1  0  0  0  0
 25 26  1  1  0  0  0
 25 27  1  0  0  0  0
 27 28  1  1  0  0  0
 27 29  1  0  0  0  0
 29 30  1  6  0  0  0
 31 32  1  0  0  0  0
 33 34  1  0  0  0  0
 33 38  1  0  0  0  0
 33 39  1  6  0  0  0
 34 35  1  0  0  0  0
 35 36  1  0  0  0  0
 35 40  1  6  0  0  0
 36 24  1  1  0  0  0
 36 37  1  0  0  0  0
 37 38  1  0  0  0  0
 37 41  1  1  0  0  0
 38 42  1  1  0  0  0
M  CHG  6  14   1  20   1  26   1  32   1  39   1  40   1
M  END
>  <CHROM.1>
-60.72096612,-56.87258629,-113.49507227,-168.88473527,-37.19647306,-62.42466830
91.09947486,-52.39461413,-165.36580950,-167.70896456,-166.11914577,39.72585700
79.73117640,-119.19081212,-164.30078563,-175.24871748,-63.54794814,-22.77156779
-176.80417309,147.15529339,-31.92275263,-56.06795904,8.49707587,-2.01224443
-1.09930607,-1.25990741,-0.68954026,-2.40614354

>  <Name>


>  <RI>
0

>  <Rbt.Current_Directory>
/home/itssahil/PROJECTS/Mol_Feturizer/New_Systems/rnas/1qd3

>  <Rbt.Executable>
rbdock ($Id: //depot/dev/client3/rdock/2013.1/src/exe/rbdock.cxx#4 $)

>  <Rbt.Library>
libRbt.so (2013.1, Build901 2013/11/27)

>  <Rbt.Parameter_File>
/export/apps/rDock/src/rDock_2013.1_src/data/scripts/dock_solv.prm

>  <Rbt.Receptor>
prm/pocket_docking_2.prm

>  <SCORE>
-39.7083

>  <SCORE.INTER>
-38.1115

>  <SCORE.INTER.CONST>
1

>  <SCORE.INTER.POLAR>
-6.34241

>  <SCORE.INTER.ROT>
9

>  <SCORE.INTER.SOLV>
39.5003

>  <SCORE.INTER.VDW>
-27.033

>  <SCORE.INTER.norm>
-0.907416

>  <SCORE.INTRA>
-8.30852

>  <SCORE.INTRA.DIHEDRAL>
-4.62777

>  <SCORE.INTRA.DIHEDRAL.0>
40.6252

>  <SCORE.INTRA.POLAR>
0.63351

>  <SCORE.INTRA.POLAR.0>
-1.20161

>  <SCORE.INTRA.REPUL>
-0.115675

>  <SCORE.INTRA.REPUL.0>
0.115675

>  <SCORE.INTRA.SOLV>
-0.12674

>  <SCORE.INTRA.SOLV.lig_0>
-154.895

>  <SCORE.INTRA.VDW>
-7.50682

>  <SCORE.INTRA.VDW.0>
2.2925

>  <SCORE.INTRA.norm>
-0.197822

>  <SCORE.RESTR>
6.71166

>  <SCORE.RESTR.CAVITY>
6.71166

>  <SCORE.RESTR.norm>
0.159801

>  <SCORE.SYSTEM>
0

>  <SCORE.SYSTEM.CONST>
0

>  <SCORE.SYSTEM.DIHEDRAL>
0

>  <SCORE.SYSTEM.SOLV>
0

>  <SCORE.SYSTEM.norm>
0

>  <SCORE.heavy>
42

>  <SCORE.norm>
-0.945437

>  <RMSD>
9.167

$$$$

 OpenBabel11021811413D
libRbt.so/2013.1/901 2013/11/27
 42 45  0  0  0  0  0  0  0  0999 V2000
    8.6945    2.4413   -0.6926 O   0  0  0  0  0  0  0  0  0  0  0  0
    9.3802    1.2195   -0.9267 C   0  0  0  0  0  0  0  0  0  0  0  0
    8.4364    0.0413   -0.6825 C   0  0  1  0  0  0  0  0  0  0  0  0
    8.8168   -1.1081   -1.4699 O   0  0  0  0  0  0  0  0  0  0  0  0
    8.4242   -0.4328    0.7613 C   0  0  2  0  0  0  0  0  0  0  0  0
    7.8494   -1.8288    0.5897 C   0  0  1  0  0  0  0  0  0  0  0  0
    6.4424   -1.7484    0.3903 O   0  0  0  0  0  0  0  0  0  0  0  0
    8.5357   -2.3080   -0.7057 C   0  0  2  0  0  0  0  0  0  0  0  0
    9.2678    3.5590    2.3689 C   0  0  2  0  0  0  0  0  0  0  0  0
    8.4603    2.6092    1.6566 O   0  0  0  0  0  0  0  0  0  0  0  0
    8.3617    1.3556    2.3563 C   0  0  2  0  0  0  0  0  0  0  0  0
    7.5936    0.4067    1.5874 O   0  0  0  0  0  0  0  0  0  0  0  0
    7.7280    1.5565    3.7436 C   0  0  2  0  0  0  0  0  0  0  0  0
    6.2929    1.7416    3.6321 N   0  3  0  0  0  0  0  0  0  0  0  0
    8.3591    2.7119    4.5295 C   0  0  1  0  0  0  0  0  0  0  0  0
    9.6022    2.2911    5.0686 O   0  0  0  0  0  0  0  0  0  0  0  0
    8.5706    3.9519    3.6651 C   0  0  2  0  0  0  0  0  0  0  0  0
    7.3184    4.5652    3.3814 O   0  0  0  0  0  0  0  0  0  0  0  0
    9.5414    4.7871    1.5053 C   0  0  0  0  0  0  0  0  0  0  0  0
   10.7680    4.6124    0.7504 N   0  3  0  0  0  0  0  0  0  0  0  0
    7.7262   -7.8603   -0.0706 C   0  0  1  0  0  0  0  0  0  0  0  0
    7.5005   -6.4371   -0.1455 O   0  0  0  0  0  0  0  0  0  0  0  0
    8.7212   -5.6618   -0.1260 C   0  0  2  0  0  0  0  0  0  0  0  0
    9.5302   -5.8921   -1.3059 O   0  0  0  0  0  0  0  0  0  0  0  0
    9.5183   -5.9408    1.1540 C   0  0  2  0  0  0  0  0  0  0  0  0
   10.8293   -5.3251    1.0653 N   0  3  0  0  0  0  0  0  0  0  0  0
    9.6828   -7.4361    1.4025 C   0  0  1  0  0  0  0  0  0  0  0  0
   10.2118   -7.6492    2.7021 O   0  0  0  0  0  0  0  0  0  0  0  0
    8.3855   -8.2157    1.2520 C   0  0  2  0  0  0  0  0  0  0  0  0
    8.6393   -9.6118    1.3090 O   0  0  0  0  0  0  0  0  0  0  0  0
    6.3957   -8.6044   -0.1395 C   0  0  0  0  0  0  0  0  0  0  0  0
    5.7268   -8.5821    1.1484 N   0  3  0  0  0  0  0  0  0  0  0  0
   11.5354   -3.0344   -3.7373 C   0  0  2  0  0  0  0  0  0  0  0  0
   10.5323   -3.9561   -4.4023 C   0  0  0  0  0  0  0  0  0  0  0  0
   10.2254   -5.1423   -3.5070 C   0  0  1  0  0  0  0  0  0  0  0  0
    9.6099   -4.7281   -2.1697 C   0  0  2  0  0  0  0  0  0  0  0  0
   10.4534   -3.6246   -1.4904 C   0  0  1  0  0  0  0  0  0  0  0  0
   10.9978   -2.5219   -2.4080 C   0  0  1  0  0  0  0  0  0  0  0  0
   11.8155   -1.9136   -4.6145 N   0  3  0  0  0  0  0  0  0  0  0  0
    9.3440   -6.0508   -4.2142 N   0  3  0  0  0  0  0  0  0  0  0  0
    9.7522   -3.0345   -0.3683 O   0  0  0  0  0  0  0  0  0  0  0  0
   12.0128   -1.7885   -1.7303 O   0  0  0  0  0  0  0  0  0  0  0  0
  1  2  1  0  0  0  0
  3  2  1  1  0  0  0
  3  4  1  0  0  0  0
  3  5  1  0  0  0  0
  4  8  1  0  0  0  0
  5  6  1  0  0  0  0
  5 12  1  1  0  0  0
  6  7  1  6  0  0  0
  6  8  1  0  0  0  0
  8 41  1  1  0  0  0
  9 10  1  0  0  0  0
  9 17  1  0  0  0  0
  9 19  1  6  0  0  0
 10 11  1  0  0  0  0
 11 12  1  6  0  0  0
 11 13  1  0  0  0  0
 13 14  1  6  0  0  0
 13 15  1  0  0  0  0
 15 16  1  6  0  0  0
 15 17  1  0  0  0  0
 17 18  1  6  0  0  0
 19 20  1  0  0  0  0
 21 22  1  0  0  0  0
 21 29  1  0  0  0  0
 21 31  1  1  0  0  0
 22 23  1  0  0  0  0
 23 24  1  6  0  0  0
 23 25  1  0  0  0  0
 25 26  1  6  0  0  0
 25 27  1  0  0  0  0
 27 28  1  1  0  0  0
 27 29  1  0  0  0  0
 29 30  1  6  0  0  0
 31 32  1  0  0  0  0
 33 34  1  0  0  0  0
 33 38  1  0  0  0  0
 33 39  1  6  0  0  0
 34 35  1  0  0  0  0
 35 36  1  0  0  0  0
 35 40  1  6  0  0  0
 36 24  1  1  0  0  0
 36 37  1  0  0  0  0
 37 38  1  0  0  0  0
 37 41  1  1  0  0  0
 38 42  1  1  0  0  0
M  CHG  6  14   1  20   1  26   1  32   1  39   1  40   1
M  END
>  <CHROM.1>
-176.82348470,152.63602331,-100.49391061,72.22930653,-67.23242711,-90.95375208
93.67459754,-36.81741814,-83.95732156,46.00662177,48.29695731,-79.34559989
112.19616538,-168.34541020,-57.66526378,-169.00770490,-67.02816668,68.97859368
166.04343340,-164.38537927,-64.76171718,176.89837376,8.98196347,-2.19155925
0.27685086,-1.62394154,-1.09981831,-2.91577837

>  <Name>


>  <RI>
0

>  <Rbt.Current_Directory>
/home/itssahil/PROJECTS/Mol_Feturizer/New_Systems/rnas/1qd3

>  <Rbt.Executable>
rbdock ($Id: //depot/dev/client3/rdock/2013.1/src/exe/rbdock.cxx#4 $)

>  <Rbt.Library>
libRbt.so (2013.1, Build901 2013/11/27)

>  <Rbt.Parameter_File>
/export/apps/rDock/src/rDock_2013.1_src/data/scripts/dock_solv.prm

>  <Rbt.Receptor>
prm/pocket_docking_5.prm

>  <SCORE>
-36.8209

>  <SCORE.INTER>
-23.8778

>  <SCORE.INTER.CONST>
1

>  <SCORE.INTER.POLAR>
-3.76787

>  <SCORE.INTER.ROT>
9

>  <SCORE.INTER.SOLV>
32.8226

>  <SCORE.INTER.VDW>
-23.8998

>  <SCORE.INTER.norm>
-0.56852

>  <SCORE.INTRA>
-13.0319

>  <SCORE.INTRA.DIHEDRAL>
-8.89226

>  <SCORE.INTRA.DIHEDRAL.0>
40.6252

>  <SCORE.INTRA.POLAR>
0.263589

>  <SCORE.INTRA.POLAR.0>
-1.20161

>  <SCORE.INTRA.REPUL>
-0.112549

>  <SCORE.INTRA.REPUL.0>
0.115675

>  <SCORE.INTRA.SOLV>
-6.1412

>  <SCORE.INTRA.SOLV.lig_0>
-154.895

>  <SCORE.INTRA.VDW>
-5.84858

>  <SCORE.INTRA.VDW.0>
2.2925

>  <SCORE.INTRA.norm>
-0.310282

>  <SCORE.RESTR>
0.0888233

>  <SCORE.RESTR.CAVITY>
0.0888233

>  <SCORE.RESTR.norm>
0.00211484

>  <SCORE.SYSTEM>
0

>  <SCORE.SYSTEM.CONST>
0

>  <SCORE.SYSTEM.DIHEDRAL>
0

>  <SCORE.SYSTEM.SOLV>
0

>  <SCORE.SYSTEM.norm>
0

>  <SCORE.heavy>
42

>  <SCORE.norm>
-0.876688

>  <RMSD>
9.179

$$$$

 OpenBabel11021811413D
libRbt.so/2013.1/901 2013/11/27
 42 45  0  0  0  0  0  0  0  0999 V2000
    9.4178   -5.1675    0.5176 O   0  0  0  0  0  0  0  0  0  0  0  0
   10.2724   -6.2997    0.5936 C   0  0  0  0  0  0  0  0  0  0  0  0
   10.5640   -6.8235   -0.8131 C   0  0  1  0  0  0  0  0  0  0  0  0
    9.4567   -7.5959   -1.3258 O   0  0  0  0  0  0  0  0  0  0  0  0
   10.8040   -5.7200   -1.8301 C   0  0  2  0  0  0  0  0  0  0  0  0
   10.5579   -6.4776   -3.1241 C   0  0  1  0  0  0  0  0  0  0  0  0
   11.6886   -7.2858   -3.4307 O   0  0  0  0  0  0  0  0  0  0  0  0
    9.3578   -7.3734   -2.7554 C   0  0  2  0  0  0  0  0  0  0  0  0
   11.6935   -2.9090   -4.5515 C   0  0  2  0  0  0  0  0  0  0  0  0
   11.4925   -4.0530   -3.7075 O   0  0  0  0  0  0  0  0  0  0  0  0
   12.3296   -4.0119   -2.5378 C   0  0  2  0  0  0  0  0  0  0  0  0
   12.1458   -5.2016   -1.7426 O   0  0  0  0  0  0  0  0  0  0  0  0
   12.0297   -2.7574   -1.6994 C   0  0  2  0  0  0  0  0  0  0  0  0
   10.7949   -2.9195   -0.9541 N   0  3  0  0  0  0  0  0  0  0  0  0
   11.9876   -1.4731   -2.5357 C   0  0  1  0  0  0  0  0  0  0  0  0
   13.3124   -1.0590   -2.8297 O   0  0  0  0  0  0  0  0  0  0  0  0
   11.2087   -1.6547   -3.8357 C   0  0  2  0  0  0  0  0  0  0  0  0
    9.8170   -1.7564   -3.5577 O   0  0  0  0  0  0  0  0  0  0  0  0
   10.9696   -3.0889   -5.8828 C   0  0  0  0  0  0  0  0  0  0  0  0
   11.2667   -4.3912   -6.4490 N   0  3  0  0  0  0  0  0  0  0  0  0
    5.8321   -5.8089   -5.1351 C   0  0  1  0  0  0  0  0  0  0  0  0
    5.0102   -6.8556   -4.5776 O   0  0  0  0  0  0  0  0  0  0  0  0
    5.2654   -8.1551   -5.1586 C   0  0  2  0  0  0  0  0  0  0  0  0
    6.5979   -8.6351   -4.8524 O   0  0  0  0  0  0  0  0  0  0  0  0
    5.0220   -8.1275   -6.6725 C   0  0  2  0  0  0  0  0  0  0  0  0
    5.4809   -9.3674   -7.2707 N   0  3  0  0  0  0  0  0  0  0  0  0
    5.7353   -6.9559   -7.3382 C   0  0  1  0  0  0  0  0  0  0  0  0
    5.2966   -6.8305   -8.6821 O   0  0  0  0  0  0  0  0  0  0  0  0
    5.5250   -5.6352   -6.6136 C   0  0  2  0  0  0  0  0  0  0  0  0
    6.3597   -4.6294   -7.1687 O   0  0  0  0  0  0  0  0  0  0  0  0
    5.5319   -4.4835   -4.4410 C   0  0  0  0  0  0  0  0  0  0  0  0
    6.7069   -3.9888   -3.7473 N   0  3  0  0  0  0  0  0  0  0  0  0
    5.5968   -8.2741   -0.7333 C   0  0  2  0  0  0  0  0  0  0  0  0
    5.7450   -9.6680   -1.3104 C   0  0  0  0  0  0  0  0  0  0  0  0
    5.6982   -9.6234   -2.8265 C   0  0  1  0  0  0  0  0  0  0  0  0
    6.8281   -8.7858   -3.4270 C   0  0  2  0  0  0  0  0  0  0  0  0
    6.9030   -7.3950   -2.7554 C   0  0  1  0  0  0  0  0  0  0  0  0
    6.7091   -7.3625   -1.2337 C   0  0  1  0  0  0  0  0  0  0  0  0
    5.6390   -8.3450    0.7148 N   0  3  0  0  0  0  0  0  0  0  0  0
    5.7407  -10.9790   -3.3394 N   0  3  0  0  0  0  0  0  0  0  0  0
    8.1198   -6.6958   -3.1153 O   0  0  0  0  0  0  0  0  0  0  0  0
    6.4630   -6.0264   -0.8077 O   0  0  0  0  0  0  0  0  0  0  0  0
  1  2  1  0  0  0  0
  3  2  1  1  0  0  0
  3  4  1  0  0  0  0
  3  5  1  0  0  0  0
  4  8  1  0  0  0  0
  5  6  1  0  0  0  0
  5 12  1  6  0  0  0
  6  7  1  1  0  0  0
  6  8  1  0  0  0  0
  8 41  1  1  0  0  0
  9 10  1  0  0  0  0
  9 17  1  0  0  0  0
  9 19  1  6  0  0  0
 10 11  1  0  0  0  0
 11 12  1  1  0  0  0
 11 13  1  0  0  0  0
 13 14  1  6  0  0  0
 13 15  1  0  0  0  0
 15 16  1  6  0  0  0
 15 17  1  0  0  0  0
 17 18  1  1  0  0  0
 19 20  1  0  0  0  0
 21 22  1  0  0  0  0
 21 29  1  0  0  0  0
 21 31  1  1  0  0  0
 22 23  1  0  0  0  0
 23 24  1  6  0  0  0
 23 25  1  0  0  0  0
 25 26  1  6  0  0  0
 25 27  1  0  0  0  0
 27 28  1  6  0  0  0
 27 29  1  0  0  0  0
 29 30  1  6  0  0  0
 31 32  1  0  0  0  0
 33 34  1  0  0  0  0
 33 38  1  0  0  0  0
 33 39  1  1  0  0  0
 34 35  1  0  0  0  0
 35 36  1  0  0  0  0
 35 40  1  6  0  0  0
 36 24  1  6  0  0  0
 36 37  1  0  0  0  0
 37 38  1  0  0  0  0
 37 41  1  1  0  0  0
 38 42  1  6  0  0  0
M  CHG  6  14   1  20   1  26   1  32   1  39   1  40   1
M  END
>  <CHROM.1>
170.63870231,-78.34583711,-170.34702575,68.98699876,-59.84754958,-48.57262475
-31.88764360,165.75935494,67.25537168,-75.29432708,-52.52536120,117.26091982
60.66575298,51.62996098,-165.31161366,175.90523343,-172.64191739,-40.56358080
-173.41425578,82.62236927,-59.47878096,-65.58337058,8.40563309,-5.95553861
-3.41272520,-0.05584030,0.72207177,2.02674084

>  <Name>


>  <RI>
0

>  <Rbt.Current_Directory>
/home/itssahil/PROJECTS/Mol_Feturizer/New_Systems/rnas/1qd3

>  <Rbt.Executable>
rbdock ($Id: //depot/dev/client3/rdock/2013.1/src/exe/rbdock.cxx#4 $)

>  <Rbt.Library>
libRbt.so (2013.1, Build901 2013/11/27)

>  <Rbt.Parameter_File>
/export/apps/rDock/src/rDock_2013.1_src/data/scripts/dock_solv.prm

>  <Rbt.Receptor>
prm/pocket_docking_4.prm

>  <SCORE>
-53.1298

>  <SCORE.INTER>
-30.3912

>  <SCORE.INTER.CONST>
1

>  <SCORE.INTER.POLAR>
-5.5733

>  <SCORE.INTER.ROT>
9

>  <SCORE.INTER.SOLV>
22.0632

>  <SCORE.INTER.VDW>
-18.6376

>  <SCORE.INTER.norm>
-0.723601

>  <SCORE.INTRA>
-23.2709

>  <SCORE.INTRA.DIHEDRAL>
-22.0352

>  <SCORE.INTRA.DIHEDRAL.0>
40.6252

>  <SCORE.INTRA.POLAR>
-1.22076

>  <SCORE.INTRA.POLAR.0>
-1.20161

>  <SCORE.INTRA.REPUL>
-0.0968467

>  <SCORE.INTRA.REPUL.0>
0.115675

>  <SCORE.INTRA.SOLV>
-3.90324

>  <SCORE.INTRA.SOLV.lig_0>
-154.895

>  <SCORE.INTRA.VDW>
-5.66694

>  <SCORE.INTRA.VDW.0>
2.2925

>  <SCORE.INTRA.norm>
-0.55407

>  <SCORE.RESTR>
0.532352

>  <SCORE.RESTR.CAVITY>
0.532352

>  <SCORE.RESTR.norm>
0.012675

>  <SCORE.SYSTEM>
0

>  <SCORE.SYSTEM.CONST>
0

>  <SCORE.SYSTEM.DIHEDRAL>
0

>  <SCORE.SYSTEM.SOLV>
0

>  <SCORE.SYSTEM.norm>
0

>  <SCORE.heavy>
42

>  <SCORE.norm>
-1.265

>  <RMSD>
9.180

$$$$

 OpenBabel11021811413D
libRbt.so/2013.1/901 2013/11/27
 42 45  0  0  0  0  0  0  0  0999 V2000
    9.9362    3.0165   -0.8776 O   0  0  0  0  0  0  0  0  0  0  0  0
   10.2011    1.7289   -0.3394 C   0  0  0  0  0  0  0  0  0  0  0  0
    9.0386    0.7869   -0.6547 C   0  0  1  0  0  0  0  0  0  0  0  0
    9.4092   -0.1887   -1.6529 O   0  0  0  0  0  0  0  0  0  0  0  0
    8.5661   -0.0122    0.5485 C   0  0  2  0  0  0  0  0  0  0  0  0
    7.8257   -1.1441   -0.1440 C   0  0  1  0  0  0  0  0  0  0  0  0
    6.5560   -0.6840   -0.5936 O   0  0  0  0  0  0  0  0  0  0  0  0
    8.7354   -1.4376   -1.3543 C   0  0  2  0  0  0  0  0  0  0  0  0
    9.7763    3.5002    2.6656 C   0  0  2  0  0  0  0  0  0  0  0  0
    8.9868    2.7301    1.7461 O   0  0  0  0  0  0  0  0  0  0  0  0
    8.4424    1.5495    2.3629 C   0  0  2  0  0  0  0  0  0  0  0  0
    7.7046    0.7700    1.3988 O   0  0  0  0  0  0  0  0  0  0  0  0
    7.5391    1.9246    3.5502 C   0  0  2  0  0  0  0  0  0  0  0  0
    6.2552    2.4163    3.0851 N   0  3  0  0  0  0  0  0  0  0  0  0
    8.1888    2.9359    4.5020 C   0  0  1  0  0  0  0  0  0  0  0  0
    9.1319    2.2688    5.3256 O   0  0  0  0  0  0  0  0  0  0  0  0
    8.8781    4.0738    3.7541 C   0  0  2  0  0  0  0  0  0  0  0  0
    7.9042    4.9381    3.1805 O   0  0  0  0  0  0  0  0  0  0  0  0
   10.5215    4.6128    1.9338 C   0  0  0  0  0  0  0  0  0  0  0  0
    9.6528    5.2505    0.9623 N   0  3  0  0  0  0  0  0  0  0  0  0
    6.4654   -5.4217   -2.9949 C   0  0  1  0  0  0  0  0  0  0  0  0
    7.0744   -4.4808   -2.0861 O   0  0  0  0  0  0  0  0  0  0  0  0
    8.3428   -4.9330   -1.5586 C   0  0  2  0  0  0  0  0  0  0  0  0
    9.3540   -5.0389   -2.5911 O   0  0  0  0  0  0  0  0  0  0  0  0
    8.1746   -6.2614   -0.8111 C   0  0  2  0  0  0  0  0  0  0  0  0
    9.4757   -6.8072   -0.4720 N   0  3  0  0  0  0  0  0  0  0  0  0
    7.4034   -7.2825   -1.6401 C   0  0  1  0  0  0  0  0  0  0  0  0
    7.0678   -8.3993   -0.8312 O   0  0  0  0  0  0  0  0  0  0  0  0
    6.1389   -6.7151   -2.2664 C   0  0  2  0  0  0  0  0  0  0  0  0
    5.5724   -7.6525   -3.1703 O   0  0  0  0  0  0  0  0  0  0  0  0
    5.1573   -4.8525   -3.5368 C   0  0  0  0  0  0  0  0  0  0  0  0
    5.4060   -3.6751   -4.3483 N   0  3  0  0  0  0  0  0  0  0  0  0
   12.1135   -2.0813   -3.9093 C   0  0  2  0  0  0  0  0  0  0  0  0
   11.1792   -2.6912   -4.9356 C   0  0  0  0  0  0  0  0  0  0  0  0
   10.5685   -3.9740   -4.4026 C   0  0  1  0  0  0  0  0  0  0  0  0
    9.7350   -3.7501   -3.1400 C   0  0  2  0  0  0  0  0  0  0  0  0
   10.5303   -2.9434   -2.0877 C   0  0  1  0  0  0  0  0  0  0  0  0
   11.3678   -1.7722   -2.6181 C   0  0  1  0  0  0  0  0  0  0  0  0
   12.6874   -0.8616   -4.4448 N   0  3  0  0  0  0  0  0  0  0  0  0
    9.7628   -4.5807   -5.4442 N   0  3  0  0  0  0  0  0  0  0  0  0
    9.6770   -2.4932   -1.0069 O   0  0  0  0  0  0  0  0  0  0  0  0
   12.2909   -1.3490   -1.6202 O   0  0  0  0  0  0  0  0  0  0  0  0
  1  2  1  0  0  0  0
  3  2  1  1  0  0  0
  3  4  1  0  0  0  0
  3  5  1  0  0  0  0
  4  8  1  0  0  0  0
  5  6  1  0  0  0  0
  5 12  1  1  0  0  0
  6  7  1  6  0  0  0
  6  8  1  0  0  0  0
  8 41  1  1  0  0  0
  9 10  1  0  0  0  0
  9 17  1  0  0  0  0
  9 19  1  6  0  0  0
 10 11  1  0  0  0  0
 11 12  1  6  0  0  0
 11 13  1  0  0  0  0
 13 14  1  6  0  0  0
 13 15  1  0  0  0  0
 15 16  1  6  0  0  0
 15 17  1  0  0  0  0
 17 18  1  6  0  0  0
 19 20  1  0  0  0  0
 21 22  1  0  0  0  0
 21 29  1  0  0  0  0
 21 31  1  1  0  0  0
 22 23  1  0  0  0  0
 23 24  1  6  0  0  0
 23 25  1  0  0  0  0
 25 26  1  6  0  0  0
 25 27  1  0  0  0  0
 27 28  1  1  0  0  0
 27 29  1  0  0  0  0
 29 30  1  6  0  0  0
 31 32  1  0  0  0  0
 33 34  1  0  0  0  0
 33 38  1  0  0  0  0
 33 39  1  6  0  0  0
 34 35  1  0  0  0  0
 35 36  1  0  0  0  0
 35 40  1  6  0  0  0
 36 24  1  1  0  0  0
 36 37  1  0  0  0  0
 37 38  1  0  0  0  0
 37 41  1  1  0  0  0
 38 42  1  1  0  0  0
M  CHG  6  14   1  20   1  26   1  32   1  39   1  40   1
M  END
>  <CHROM.1>
-161.58801949,108.29851375,-86.37894356,-104.86960923,-67.62110440,42.61956783
78.84665531,91.69344267,65.21397162,61.32199168,163.16811089,65.07440994
67.23050296,-168.16736825,-171.81262925,61.94404577,61.50234679,56.81054372
75.67191671,70.35510367,-70.99737338,-59.13430619,8.76622058,-1.38408299
-0.73743448,-1.46787752,-0.72390013,-2.53020084

>  <Name>


>  <RI>
0

>  <Rbt.Current_Directory>
/home/itssahil/PROJECTS/Mol_Feturizer/New_Systems/rnas/1qd3

>  <Rbt.Executable>
rbdock ($Id: //depot/dev/client3/rdock/2013.1/src/exe/rbdock.cxx#4 $)

>  <Rbt.Library>
libRbt.so (2013.1, Build901 2013/11/27)

>  <Rbt.Parameter_File>
/export/apps/rDock/src/rDock_2013.1_src/data/scripts/dock_solv.prm

>  <Rbt.Receptor>
prm/pocket_docking_5.prm

>  <SCORE>
-56.0941

>  <SCORE.INTER>
-36.2485

>  <SCORE.INTER.CONST>
1

>  <SCORE.INTER.POLAR>
-6.17705

>  <SCORE.INTER.ROT>
9

>  <SCORE.INTER.SOLV>
41.7161

>  <SCORE.INTER.VDW>
-27.0809

>  <SCORE.INTER.norm>
-0.863061

>  <SCORE.INTRA>
-19.8455

>  <SCORE.INTRA.DIHEDRAL>
-16.4151

>  <SCORE.INTRA.DIHEDRAL.0>
40.6252

>  <SCORE.INTRA.POLAR>
0.254291

>  <SCORE.INTRA.POLAR.0>
-1.20161

>  <SCORE.INTRA.REPUL>
-0.115675

>  <SCORE.INTRA.REPUL.0>
0.115675

>  <SCORE.INTRA.SOLV>
-10.1411

>  <SCORE.INTRA.SOLV.lig_0>
-154.895

>  <SCORE.INTRA.VDW>
-6.85363

>  <SCORE.INTRA.VDW.0>
2.2925

>  <SCORE.INTRA.norm>
-0.472513

>  <SCORE.RESTR>
0

>  <SCORE.RESTR.CAVITY>
0

>  <SCORE.RESTR.norm>
0

>  <SCORE.SYSTEM>
0

>  <SCORE.SYSTEM.CONST>
0

>  <SCORE.SYSTEM.DIHEDRAL>
0

>  <SCORE.SYSTEM.SOLV>
0

>  <SCORE.SYSTEM.norm>
0

>  <SCORE.heavy>
42

>  <SCORE.norm>
-1.33557

>  <RMSD>
9.188

$$$$

 OpenBabel11021811413D
libRbt.so/2013.1/901 2013/11/27
 42 45  0  0  0  0  0  0  0  0999 V2000
   12.0416   -2.2653   -5.7547 O   0  0  0  0  0  0  0  0  0  0  0  0
   10.8088   -2.7229   -5.2176 C   0  0  0  0  0  0  0  0  0  0  0  0
   11.0725   -3.7748   -4.1394 C   0  0  1  0  0  0  0  0  0  0  0  0
    9.9932   -3.8265   -3.1812 O   0  0  0  0  0  0  0  0  0  0  0  0
   11.2030   -5.1847   -4.6912 C   0  0  2  0  0  0  0  0  0  0  0  0
   10.9491   -5.9990   -3.4336 C   0  0  1  0  0  0  0  0  0  0  0  0
   12.1127   -5.9931   -2.6139 O   0  0  0  0  0  0  0  0  0  0  0  0
    9.8216   -5.2000   -2.7488 C   0  0  2  0  0  0  0  0  0  0  0  0
   12.9031   -4.1194   -8.6357 C   0  0  2  0  0  0  0  0  0  0  0  0
   12.9498   -4.1609   -7.2013 O   0  0  0  0  0  0  0  0  0  0  0  0
   12.5099   -5.4303   -6.6856 C   0  0  2  0  0  0  0  0  0  0  0  0
   12.5137   -5.4184   -5.2429 O   0  0  0  0  0  0  0  0  0  0  0  0
   13.4004   -6.5685   -7.2128 C   0  0  2  0  0  0  0  0  0  0  0  0
   14.6723   -6.5927   -6.5142 N   0  3  0  0  0  0  0  0  0  0  0  0
   13.6214   -6.5041   -8.7286 C   0  0  1  0  0  0  0  0  0  0  0  0
   12.4664   -6.9903   -9.3939 O   0  0  0  0  0  0  0  0  0  0  0  0
   13.9295   -5.0883   -9.2086 C   0  0  2  0  0  0  0  0  0  0  0  0
   15.2396   -4.7117   -8.8006 O   0  0  0  0  0  0  0  0  0  0  0  0
   13.1533   -2.7014   -9.1412 C   0  0  0  0  0  0  0  0  0  0  0  0
   12.2133   -1.7753   -8.5381 N   0  3  0  0  0  0  0  0  0  0  0  0
    6.2789   -5.6249   -5.1106 C   0  0  1  0  0  0  0  0  0  0  0  0
    6.1764   -6.7499   -4.2128 O   0  0  0  0  0  0  0  0  0  0  0  0
    6.6134   -7.9956   -4.8033 C   0  0  2  0  0  0  0  0  0  0  0  0
    8.0313   -7.9877   -5.1017 O   0  0  0  0  0  0  0  0  0  0  0  0
    5.7870   -8.3202   -6.0537 C   0  0  2  0  0  0  0  0  0  0  0  0
    6.3681   -9.4520   -6.7516 N   0  3  0  0  0  0  0  0  0  0  0  0
    5.7102   -7.1309   -7.0046 C   0  0  1  0  0  0  0  0  0  0  0  0
    4.7531   -7.3915   -8.0196 O   0  0  0  0  0  0  0  0  0  0  0  0
    5.3618   -5.8255   -6.3060 C   0  0  2  0  0  0  0  0  0  0  0  0
    5.4904   -4.7345   -7.2060 O   0  0  0  0  0  0  0  0  0  0  0  0
    5.8406   -4.3477   -4.3998 C   0  0  0  0  0  0  0  0  0  0  0  0
    4.5279   -4.5158   -3.8036 N   0  3  0  0  0  0  0  0  0  0  0  0
    8.8118   -8.8833   -1.0166 C   0  0  2  0  0  0  0  0  0  0  0  0
    9.5506   -9.6799   -2.0738 C   0  0  0  0  0  0  0  0  0  0  0  0
    8.8760   -9.5249   -3.4242 C   0  0  1  0  0  0  0  0  0  0  0  0
    8.8575   -8.0753   -3.9112 C   0  0  2  0  0  0  0  0  0  0  0  0
    8.3073   -7.1310   -2.8174 C   0  0  1  0  0  0  0  0  0  0  0  0
    8.7759   -7.4055   -1.3823 C   0  0  1  0  0  0  0  0  0  0  0  0
    9.4723   -9.0526    0.2636 N   0  3  0  0  0  0  0  0  0  0  0  0
    9.5465  -10.3774   -4.3865 N   0  3  0  0  0  0  0  0  0  0  0  0
    8.5311   -5.7399   -3.1545 O   0  0  0  0  0  0  0  0  0  0  0  0
    7.9471   -6.7032   -0.4621 O   0  0  0  0  0  0  0  0  0  0  0  0
  1  2  1  0  0  0  0
  3  2  1  6  0  0  0
  3  4  1  0  0  0  0
  3  5  1  0  0  0  0
  4  8  1  0  0  0  0
  5  6  1  0  0  0  0
  5 12  1  1  0  0  0
  6  7  1  1  0  0  0
  6  8  1  0  0  0  0
  8 41  1  6  0  0  0
  9 10  1  0  0  0  0
  9 17  1  0  0  0  0
  9 19  1  6  0  0  0
 10 11  1  0  0  0  0
 11 12  1  1  0  0  0
 11 13  1  0  0  0  0
 13 14  1  1  0  0  0
 13 15  1  0  0  0  0
 15 16  1  6  0  0  0
 15 17  1  0  0  0  0
 17 18  1  1  0  0  0
 19 20  1  0  0  0  0
 21 22  1  0  0  0  0
 21 29  1  0  0  0  0
 21 31  1  1  0  0  0
 22 23  1  0  0  0  0
 23 24  1  6  0  0  0
 23 25  1  0  0  0  0
 25 26  1  6  0  0  0
 25 27  1  0  0  0  0
 27 28  1  6  0  0  0
 27 29  1  0  0  0  0
 29 30  1  6  0  0  0
 31 32  1  0  0  0  0
 33 34  1  0  0  0  0
 33 38  1  0  0  0  0
 33 39  1  1  0  0  0
 34 35  1  0  0  0  0
 35 36  1  0  0  0  0
 35 40  1  6  0  0  0
 36 24  1  6  0  0  0
 36 37  1  0  0  0  0
 37 38  1  0  0  0  0
 37 41  1  6  0  0  0
 38 42  1  1  0  0  0
M  CHG  6  14   1  20   1  26   1  32   1  39   1  40   1
M  END
>  <CHROM.1>
54.12416866,154.01281577,-105.52809425,-176.14458203,177.09433144,-55.33084612
99.20040892,76.91246162,61.30312420,-67.44442425,164.01561654,-52.79687492
72.54597497,77.74869572,-175.68439268,178.73058119,-67.04743312,-2.75216494
176.98620142,-166.04892465,-86.66722999,-58.14757823,9.69987214,-6.11773345
-5.20729592,0.66270154,-0.14075111,-1.11674657

>  <Name>


>  <RI>
0

>  <Rbt.Current_Directory>
/home/itssahil/PROJECTS/Mol_Feturizer/New_Systems/rnas/1qd3

>  <Rbt.Executable>
rbdock ($Id: //depot/dev/client3/rdock/2013.1/src/exe/rbdock.cxx#4 $)

>  <Rbt.Library>
libRbt.so (2013.1, Build901 2013/11/27)

>  <Rbt.Parameter_File>
/export/apps/rDock/src/rDock_2013.1_src/data/scripts/dock_solv.prm

>  <Rbt.Receptor>
prm/pocket_docking_7.prm

>  <SCORE>
-46.4992

>  <SCORE.INTER>
-25.5419

>  <SCORE.INTER.CONST>
1

>  <SCORE.INTER.POLAR>
-5.70915

>  <SCORE.INTER.ROT>
9

>  <SCORE.INTER.SOLV>
20.1946

>  <SCORE.INTER.VDW>
-14.329

>  <SCORE.INTER.norm>
-0.608141

>  <SCORE.INTRA>
-20.9666

>  <SCORE.INTRA.DIHEDRAL>
-15.532

>  <SCORE.INTRA.DIHEDRAL.0>
40.6252

>  <SCORE.INTRA.POLAR>
-0.948829

>  <SCORE.INTRA.POLAR.0>
-1.20161

>  <SCORE.INTRA.REPUL>
-0.115675

>  <SCORE.INTRA.REPUL.0>
0.115675

>  <SCORE.INTRA.SOLV>
-8.58618

>  <SCORE.INTRA.SOLV.lig_0>
-154.895

>  <SCORE.INTRA.VDW>
-5.10314

>  <SCORE.INTRA.VDW.0>
2.2925

>  <SCORE.INTRA.norm>
-0.499206

>  <SCORE.RESTR>
0.00935433

>  <SCORE.RESTR.CAVITY>
0.00935433

>  <SCORE.RESTR.norm>
0.000222722

>  <SCORE.SYSTEM>
0

>  <SCORE.SYSTEM.CONST>
0

>  <SCORE.SYSTEM.DIHEDRAL>
0

>  <SCORE.SYSTEM.SOLV>
0

>  <SCORE.SYSTEM.norm>
0

>  <SCORE.heavy>
42

>  <SCORE.norm>
-1.10712

>  <RMSD>
9.219

$$$$

 OpenBabel11021811413D
libRbt.so/2013.1/901 2013/11/27
 42 45  0  0  0  0  0  0  0  0999 V2000
   10.4576    2.4404   -0.6543 O   0  0  0  0  0  0  0  0  0  0  0  0
   10.1396    1.4889    0.3514 C   0  0  0  0  0  0  0  0  0  0  0  0
    8.9750    0.6138   -0.1136 C   0  0  1  0  0  0  0  0  0  0  0  0
    9.3535   -0.2102   -1.2376 O   0  0  0  0  0  0  0  0  0  0  0  0
    8.4782   -0.3467    0.9540 C   0  0  2  0  0  0  0  0  0  0  0  0
    7.7400   -1.3590    0.0942 C   0  0  1  0  0  0  0  0  0  0  0  0
    6.4809   -0.8263   -0.3016 O   0  0  0  0  0  0  0  0  0  0  0  0
    8.6659   -1.4826   -1.1330 C   0  0  2  0  0  0  0  0  0  0  0  0
    8.9838    3.5796    2.7834 C   0  0  2  0  0  0  0  0  0  0  0  0
    8.2526    2.5860    2.0487 O   0  0  0  0  0  0  0  0  0  0  0  0
    8.3036    1.2983    2.6889 C   0  0  2  0  0  0  0  0  0  0  0  0
    7.6097    0.3121    1.8967 O   0  0  0  0  0  0  0  0  0  0  0  0
    7.6993    1.3700    4.1017 C   0  0  2  0  0  0  0  0  0  0  0  0
    6.2499    1.4127    4.0401 N   0  3  0  0  0  0  0  0  0  0  0  0
    8.2369    2.5465    4.9249 C   0  0  1  0  0  0  0  0  0  0  0  0
    9.5331    2.2304    5.4073 O   0  0  0  0  0  0  0  0  0  0  0  0
    8.2939    3.8398    4.1164 C   0  0  2  0  0  0  0  0  0  0  0  0
    6.9778    4.3347    3.8985 O   0  0  0  0  0  0  0  0  0  0  0  0
    9.1039    4.8673    1.9733 C   0  0  0  0  0  0  0  0  0  0  0  0
    9.0208    4.5821    0.5532 N   0  3  0  0  0  0  0  0  0  0  0  0
    6.2825   -5.6350   -3.2687 C   0  0  1  0  0  0  0  0  0  0  0  0
    6.7066   -4.6955   -2.2590 O   0  0  0  0  0  0  0  0  0  0  0  0
    7.8984   -5.1119   -1.5536 C   0  0  2  0  0  0  0  0  0  0  0  0
    9.0579   -5.1516   -2.4217 O   0  0  0  0  0  0  0  0  0  0  0  0
    7.6752   -6.4650   -0.8672 C   0  0  2  0  0  0  0  0  0  0  0  0
    8.9317   -6.9688   -0.3448 N   0  3  0  0  0  0  0  0  0  0  0  0
    7.0822   -7.4930   -1.8243 C   0  0  1  0  0  0  0  0  0  0  0  0
    6.6753   -8.6428   -1.0986 O   0  0  0  0  0  0  0  0  0  0  0  0
    5.9043   -6.9587   -2.6245 C   0  0  2  0  0  0  0  0  0  0  0  0
    5.5213   -7.8933   -3.6227 O   0  0  0  0  0  0  0  0  0  0  0  0
    5.0487   -5.1028   -3.9920 C   0  0  0  0  0  0  0  0  0  0  0  0
    5.1662   -3.6752   -4.2265 N   0  3  0  0  0  0  0  0  0  0  0  0
   11.5762   -2.1970   -4.1619 C   0  0  2  0  0  0  0  0  0  0  0  0
   10.5054   -2.8228   -5.0336 C   0  0  0  0  0  0  0  0  0  0  0  0
    9.9872   -4.1021   -4.4031 C   0  0  1  0  0  0  0  0  0  0  0  0
    9.3464   -3.8675   -3.0344 C   0  0  2  0  0  0  0  0  0  0  0  0
   10.2825   -3.0452   -2.1188 C   0  0  1  0  0  0  0  0  0  0  0  0
   11.0260   -1.8765   -2.7788 C   0  0  1  0  0  0  0  0  0  0  0  0
   12.0580   -0.9809   -4.7888 N   0  3  0  0  0  0  0  0  0  0  0  0
    9.0413   -4.7244   -5.3088 N   0  3  0  0  0  0  0  0  0  0  0  0
    9.5941   -2.5865   -0.9294 O   0  0  0  0  0  0  0  0  0  0  0  0
   12.0828   -1.4377   -1.9316 O   0  0  0  0  0  0  0  0  0  0  0  0
  1  2  1  0  0  0  0
  3  2  1  1  0  0  0
  3  4  1  0  0  0  0
  3  5  1  0  0  0  0
  4  8  1  0  0  0  0
  5  6  1  0  0  0  0
  5 12  1  1  0  0  0
  6  7  1  6  0  0  0
  6  8  1  0  0  0  0
  8 41  1  1  0  0  0
  9 10  1  0  0  0  0
  9 17  1  0  0  0  0
  9 19  1  6  0  0  0
 10 11  1  0  0  0  0
 11 12  1  6  0  0  0
 11 13  1  0  0  0  0
 13 14  1  6  0  0  0
 13 15  1  0  0  0  0
 15 16  1  6  0  0  0
 15 17  1  0  0  0  0
 17 18  1  6  0  0  0
 19 20  1  0  0  0  0
 21 22  1  0  0  0  0
 21 29  1  0  0  0  0
 21 31  1  1  0  0  0
 22 23  1  0  0  0  0
 23 24  1  6  0  0  0
 23 25  1  0  0  0  0
 25 26  1  6  0  0  0
 25 27  1  0  0  0  0
 27 28  1  1  0  0  0
 27 29  1  0  0  0  0
 29 30  1  6  0  0  0
 31 32  1  0  0  0  0
 33 34  1  0  0  0  0
 33 38  1  0  0  0  0
 33 39  1  6  0  0  0
 34 35  1  0  0  0  0
 35 36  1  0  0  0  0
 35 40  1  6  0  0  0
 36 24  1  1  0  0  0
 36 37  1  0  0  0  0
 37 38  1  0  0  0  0
 37 41  1  1  0  0  0
 38 42  1  1  0  0  0
M  CHG  6  14   1  20   1  26   1  32   1  39   1  40   1
M  END
>  <CHROM.1>
-155.58946559,66.42714790,-66.42433552,-109.98827150,-78.56117620,-25.86442938
90.38372321,107.10457503,-63.64957172,-163.37168949,4.88341576,40.07469670
58.83673338,-149.30900846,-53.49186512,-163.64664213,-161.49982776,125.56318477
-23.39028639,98.99899189,-74.64975753,-178.17332953,8.46105070,-1.61156959
-0.62923706,-1.46318665,-0.80175198,-2.46200498

>  <Name>


>  <RI>
0

>  <Rbt.Current_Directory>
/home/itssahil/PROJECTS/Mol_Feturizer/New_Systems/rnas/1qd3

>  <Rbt.Executable>
rbdock ($Id: //depot/dev/client3/rdock/2013.1/src/exe/rbdock.cxx#4 $)

>  <Rbt.Library>
libRbt.so (2013.1, Build901 2013/11/27)

>  <Rbt.Parameter_File>
/export/apps/rDock/src/rDock_2013.1_src/data/scripts/dock_solv.prm

>  <Rbt.Receptor>
prm/pocket_docking_2.prm

>  <SCORE>
-45.1756

>  <SCORE.INTER>
-46.2857

>  <SCORE.INTER.CONST>
1

>  <SCORE.INTER.POLAR>
-8.746

>  <SCORE.INTER.ROT>
9

>  <SCORE.INTER.SOLV>
45.5419

>  <SCORE.INTER.VDW>
-26.4845

>  <SCORE.INTER.norm>
-1.10204

>  <SCORE.INTRA>
-8.75031

>  <SCORE.INTRA.DIHEDRAL>
2.33205

>  <SCORE.INTRA.DIHEDRAL.0>
40.6252

>  <SCORE.INTRA.POLAR>
0.368953

>  <SCORE.INTRA.POLAR.0>
-1.20161

>  <SCORE.INTRA.REPUL>
-0.115675

>  <SCORE.INTRA.REPUL.0>
0.115675

>  <SCORE.INTRA.SOLV>
-8.29841

>  <SCORE.INTRA.SOLV.lig_0>
-154.895

>  <SCORE.INTRA.VDW>
-6.4432

>  <SCORE.INTRA.VDW.0>
2.2925

>  <SCORE.INTRA.norm>
-0.208341

>  <SCORE.RESTR>
9.86039

>  <SCORE.RESTR.CAVITY>
9.86039

>  <SCORE.RESTR.norm>
0.234771

>  <SCORE.SYSTEM>
0

>  <SCORE.SYSTEM.CONST>
0

>  <SCORE.SYSTEM.DIHEDRAL>
0

>  <SCORE.SYSTEM.SOLV>
0

>  <SCORE.SYSTEM.norm>
0

>  <SCORE.heavy>
42

>  <SCORE.norm>
-1.07561

>  <RMSD>
9.226

$$$$

 OpenBabel11021811413D
libRbt.so/2013.1/901 2013/11/27
 42 45  0  0  0  0  0  0  0  0999 V2000
   10.8526    0.8979   -2.2199 O   0  0  0  0  0  0  0  0  0  0  0  0
   10.3527    0.2317   -1.0692 C   0  0  0  0  0  0  0  0  0  0  0  0
    8.9213   -0.2413   -1.3259 C   0  0  1  0  0  0  0  0  0  0  0  0
    8.8945   -1.3675   -2.2294 O   0  0  0  0  0  0  0  0  0  0  0  0
    8.2039   -0.7033   -0.0684 C   0  0  2  0  0  0  0  0  0  0  0  0
    7.0904   -1.5398   -0.6762 C   0  0  1  0  0  0  0  0  0  0  0  0
    6.0730   -0.6866   -1.1887 O   0  0  0  0  0  0  0  0  0  0  0  0
    7.8129   -2.2508   -1.8386 C   0  0  2  0  0  0  0  0  0  0  0  0
    9.5082    3.5562    1.1357 C   0  0  2  0  0  0  0  0  0  0  0  0
    8.4539    2.6553    0.7638 O   0  0  0  0  0  0  0  0  0  0  0  0
    8.7521    1.2969    1.1336 C   0  0  2  0  0  0  0  0  0  0  0  0
    7.7012    0.4113    0.6945 O   0  0  0  0  0  0  0  0  0  0  0  0
    8.9492    1.1791    2.6547 C   0  0  2  0  0  0  0  0  0  0  0  0
    7.6720    1.2101    3.3432 N   0  3  0  0  0  0  0  0  0  0  0  0
    9.8913    2.2475    3.2218 C   0  0  1  0  0  0  0  0  0  0  0  0
   11.2345    1.8894    2.9383 O   0  0  0  0  0  0  0  0  0  0  0  0
    9.6015    3.6344    2.6542 C   0  0  2  0  0  0  0  0  0  0  0  0
    8.3844    4.1356    3.1946 O   0  0  0  0  0  0  0  0  0  0  0  0
    9.2717    4.9385    0.5341 C   0  0  0  0  0  0  0  0  0  0  0  0
   10.4501    5.7695    0.6951 N   0  3  0  0  0  0  0  0  0  0  0  0
    8.1173   -7.2411   -0.1475 C   0  0  1  0  0  0  0  0  0  0  0  0
    8.1756   -7.4603   -1.5726 O   0  0  0  0  0  0  0  0  0  0  0  0
    6.9140   -7.2276   -2.2400 C   0  0  2  0  0  0  0  0  0  0  0  0
    6.5128   -5.8368   -2.1742 O   0  0  0  0  0  0  0  0  0  0  0  0
    5.8245   -8.1448   -1.6713 C   0  0  2  0  0  0  0  0  0  0  0  0
    4.5279   -7.7582   -2.1959 N   0  3  0  0  0  0  0  0  0  0  0  0
    5.7834   -8.0963   -0.1480 C   0  0  1  0  0  0  0  0  0  0  0  0
    4.9347   -9.1236    0.3402 O   0  0  0  0  0  0  0  0  0  0  0  0
    7.1560   -8.2284    0.4939 C   0  0  2  0  0  0  0  0  0  0  0  0
    7.0726   -7.9881    1.8910 O   0  0  0  0  0  0  0  0  0  0  0  0
    9.4936   -7.4656    0.4722 C   0  0  0  0  0  0  0  0  0  0  0  0
    9.9766   -8.8030    0.1808 N   0  3  0  0  0  0  0  0  0  0  0  0
    9.8250   -4.8137   -4.6404 C   0  0  2  0  0  0  0  0  0  0  0  0
    8.4863   -5.0542   -5.3099 C   0  0  0  0  0  0  0  0  0  0  0  0
    7.5455   -5.7850   -4.3699 C   0  0  1  0  0  0  0  0  0  0  0  0
    7.2536   -4.9932   -3.0945 C   0  0  2  0  0  0  0  0  0  0  0  0
    8.5641   -4.5119   -2.4298 C   0  0  1  0  0  0  0  0  0  0  0  0
    9.6532   -3.9858   -3.3740 C   0  0  1  0  0  0  0  0  0  0  0  0
   10.7061   -4.1200   -5.5604 N   0  3  0  0  0  0  0  0  0  0  0  0
    6.3152   -6.0870   -5.0752 N   0  3  0  0  0  0  0  0  0  0  0  0
    8.3050   -3.5439   -1.3835 O   0  0  0  0  0  0  0  0  0  0  0  0
   10.8942   -3.9055   -2.6809 O   0  0  0  0  0  0  0  0  0  0  0  0
  1  2  1  0  0  0  0
  3  2  1  1  0  0  0
  3  4  1  0  0  0  0
  3  5  1  0  0  0  0
  4  8  1  0  0  0  0
  5  6  1  0  0  0  0
  5 12  1  6  0  0  0
  6  7  1  6  0  0  0
  6  8  1  0  0  0  0
  8 41  1  1  0  0  0
  9 10  1  0  0  0  0
  9 17  1  0  0  0  0
  9 19  1  1  0  0  0
 10 11  1  0  0  0  0
 11 12  1  1  0  0  0
 11 13  1  0  0  0  0
 13 14  1  1  0  0  0
 13 15  1  0  0  0  0
 15 16  1  6  0  0  0
 15 17  1  0  0  0  0
 17 18  1  1  0  0  0
 19 20  1  0  0  0  0
 21 22  1  0  0  0  0
 21 29  1  0  0  0  0
 21 31  1  1  0  0  0
 22 23  1  0  0  0  0
 23 24  1  1  0  0  0
 23 25  1  0  0  0  0
 25 26  1  6  0  0  0
 25 27  1  0  0  0  0
 27 28  1  1  0  0  0
 27 29  1  0  0  0  0
 29 30  1  1  0  0  0
 31 32  1  0  0  0  0
 33 34  1  0  0  0  0
 33 38  1  0  0  0  0
 33 39  1  6  0  0  0
 34 35  1  0  0  0  0
 35 36  1  0  0  0  0
 35 40  1  6  0  0  0
 36 24  1  1  0  0  0
 36 37  1  0  0  0  0
 37 38  1  0  0  0  0
 37 41  1  1  0  0  0
 38 42  1  1  0  0  0
M  CHG  6  14   1  20   1  26   1  32   1  39   1  40   1
M  END
>  <CHROM.1>
62.60198894,72.91181297,-60.82707608,-135.61727482,-84.48156528,-169.21759361
127.96652430,-172.75450221,65.37505186,-173.12058947,84.80143717,-57.44006434
76.15628833,35.02821048,-161.61038280,-75.63253401,60.99241401,-62.17271351
30.62733455,-175.25379956,-68.99046695,-51.08803917,8.33219734,-2.67432841
-0.75746469,-1.04303234,-1.17732686,-2.33870175

>  <Name>


>  <RI>
0

>  <Rbt.Current_Directory>
/home/itssahil/PROJECTS/Mol_Feturizer/New_Systems/rnas/1qd3

>  <Rbt.Executable>
rbdock ($Id: //depot/dev/client3/rdock/2013.1/src/exe/rbdock.cxx#4 $)

>  <Rbt.Library>
libRbt.so (2013.1, Build901 2013/11/27)

>  <Rbt.Parameter_File>
/export/apps/rDock/src/rDock_2013.1_src/data/scripts/dock_solv.prm

>  <Rbt.Receptor>
prm/pocket_docking_5.prm

>  <SCORE>
-52.2848

>  <SCORE.INTER>
-39.9763

>  <SCORE.INTER.CONST>
1

>  <SCORE.INTER.POLAR>
-6.6113

>  <SCORE.INTER.ROT>
9

>  <SCORE.INTER.SOLV>
33.67

>  <SCORE.INTER.VDW>
-25.4365

>  <SCORE.INTER.norm>
-0.951817

>  <SCORE.INTRA>
-12.3358

>  <SCORE.INTRA.DIHEDRAL>
-12.7282

>  <SCORE.INTRA.DIHEDRAL.0>
40.6252

>  <SCORE.INTRA.POLAR>
1.15412

>  <SCORE.INTRA.POLAR.0>
-1.20161

>  <SCORE.INTRA.REPUL>
-0.115675

>  <SCORE.INTRA.REPUL.0>
0.115675

>  <SCORE.INTRA.SOLV>
-10.5339

>  <SCORE.INTRA.SOLV.lig_0>
-154.895

>  <SCORE.INTRA.VDW>
-4.05043

>  <SCORE.INTRA.VDW.0>
2.2925

>  <SCORE.INTRA.norm>
-0.29371

>  <SCORE.RESTR>
0.0273039

>  <SCORE.RESTR.CAVITY>
0.0273039

>  <SCORE.RESTR.norm>
0.000650094

>  <SCORE.SYSTEM>
0

>  <SCORE.SYSTEM.CONST>
0

>  <SCORE.SYSTEM.DIHEDRAL>
0

>  <SCORE.SYSTEM.SOLV>
0

>  <SCORE.SYSTEM.norm>
0

>  <SCORE.heavy>
42

>  <SCORE.norm>
-1.24488

>  <RMSD>
9.232

$$$$

 OpenBabel11021811413D
libRbt.so/2013.1/901 2013/11/27
 42 45  0  0  0  0  0  0  0  0999 V2000
   12.7149    1.8462   -2.1658 O   0  0  0  0  0  0  0  0  0  0  0  0
   11.7540    1.6743   -1.1339 C   0  0  0  0  0  0  0  0  0  0  0  0
   10.4548    1.1235   -1.7228 C   0  0  1  0  0  0  0  0  0  0  0  0
   10.7029   -0.0321   -2.5526 O   0  0  0  0  0  0  0  0  0  0  0  0
    9.4593    0.6689   -0.6684 C   0  0  2  0  0  0  0  0  0  0  0  0
    8.5708   -0.2409   -1.5001 C   0  0  1  0  0  0  0  0  0  0  0  0
    7.6850    0.5439   -2.2908 O   0  0  0  0  0  0  0  0  0  0  0  0
    9.5926   -0.9539   -2.4091 C   0  0  2  0  0  0  0  0  0  0  0  0
   10.2082    2.5921    3.1366 C   0  0  2  0  0  0  0  0  0  0  0  0
   10.0359    2.5611    1.7115 O   0  0  0  0  0  0  0  0  0  0  0  0
    8.8480    1.8446    1.3291 C   0  0  2  0  0  0  0  0  0  0  0  0
    8.7359    1.7822   -0.1079 O   0  0  0  0  0  0  0  0  0  0  0  0
    7.5973    2.5050    1.9343 C   0  0  2  0  0  0  0  0  0  0  0  0
    7.2473    3.7099    1.2047 N   0  3  0  0  0  0  0  0  0  0  0  0
    7.7426    2.8062    3.4306 C   0  0  1  0  0  0  0  0  0  0  0  0
    7.5681    1.6087    4.1711 O   0  0  0  0  0  0  0  0  0  0  0  0
    9.0977    3.4224    3.7675 C   0  0  2  0  0  0  0  0  0  0  0  0
    9.1549    4.7611    3.2889 O   0  0  0  0  0  0  0  0  0  0  0  0
   11.5799    3.1534    3.5004 C   0  0  0  0  0  0  0  0  0  0  0  0
   12.5767    2.7167    2.5409 N   0  3  0  0  0  0  0  0  0  0  0  0
    8.5815   -5.0486   -1.6686 C   0  0  1  0  0  0  0  0  0  0  0  0
    9.6893   -5.4138   -2.5181 O   0  0  0  0  0  0  0  0  0  0  0  0
    9.4270   -5.2013   -3.9243 C   0  0  2  0  0  0  0  0  0  0  0  0
    9.2664   -3.7965   -4.2409 O   0  0  0  0  0  0  0  0  0  0  0  0
    8.2064   -6.0127   -4.3751 C   0  0  2  0  0  0  0  0  0  0  0  0
    7.8283   -5.6314   -5.7232 N   0  3  0  0  0  0  0  0  0  0  0  0
    7.0165   -5.8079   -3.4441 C   0  0  1  0  0  0  0  0  0  0  0  0
    5.9985   -6.7464   -3.7559 O   0  0  0  0  0  0  0  0  0  0  0  0
    7.3789   -5.9273   -1.9718 C   0  0  2  0  0  0  0  0  0  0  0  0
    6.2789   -5.5430   -1.1600 O   0  0  0  0  0  0  0  0  0  0  0  0
    8.9537   -5.2623   -0.2042 C   0  0  0  0  0  0  0  0  0  0  0  0
    9.5616   -6.5664   -0.0133 N   0  3  0  0  0  0  0  0  0  0  0  0
   13.3652   -3.2838   -3.2227 C   0  0  2  0  0  0  0  0  0  0  0  0
   12.9562   -3.0577   -4.6648 C   0  0  0  0  0  0  0  0  0  0  0  0
   11.5894   -3.6611   -4.9306 C   0  0  1  0  0  0  0  0  0  0  0  0
   10.4915   -3.0370   -4.0682 C   0  0  2  0  0  0  0  0  0  0  0  0
   10.8986   -3.0258   -2.5766 C   0  0  1  0  0  0  0  0  0  0  0  0
   12.3560   -2.6551   -2.2714 C   0  0  1  0  0  0  0  0  0  0  0  0
   14.6752   -2.7035   -2.9967 N   0  3  0  0  0  0  0  0  0  0  0  0
   11.2759   -3.5158   -6.3388 N   0  3  0  0  0  0  0  0  0  0  0  0
   10.0027   -2.2055   -1.7871 O   0  0  0  0  0  0  0  0  0  0  0  0
   12.6734   -3.0122   -0.9302 O   0  0  0  0  0  0  0  0  0  0  0  0
  1  2  1  0  0  0  0
  3  2  1  1  0  0  0
  3  4  1  0  0  0  0
  3  5  1  0  0  0  0
  4  8  1  0  0  0  0
  5  6  1  0  0  0  0
  5 12  1  6  0  0  0
  6  7  1  6  0  0  0
  6  8  1  0  0  0  0
  8 41  1  1  0  0  0
  9 10  1  0  0  0  0
  9 17  1  0  0  0  0
  9 19  1  6  0  0  0
 10 11  1  0  0  0  0
 11 12  1  6  0  0  0
 11 13  1  0  0  0  0
 13 14  1  6  0  0  0
 13 15  1  0  0  0  0
 15 16  1  1  0  0  0
 15 17  1  0  0  0  0
 17 18  1  6  0  0  0
 19 20  1  0  0  0  0
 21 22  1  0  0  0  0
 21 29  1  0  0  0  0
 21 31  1  1  0  0  0
 22 23  1  0  0  0  0
 23 24  1  1  0  0  0
 23 25  1  0  0  0  0
 25 26  1  6  0  0  0
 25 27  1  0  0  0  0
 27 28  1  6  0  0  0
 27 29  1  0  0  0  0
 29 30  1  1  0  0  0
 31 32  1  0  0  0  0
 33 34  1  0  0  0  0
 33 38  1  0  0  0  0
 33 39  1  6  0  0  0
 34 35  1  0  0  0  0
 35 36  1  0  0  0  0
 35 40  1  6  0  0  0
 36 24  1  1  0  0  0
 36 37  1  0  0  0  0
 37 38  1  0  0  0  0
 37 41  1  1  0  0  0
 38 42  1  1  0  0  0
M  CHG  6  14   1  20   1  26   1  32   1  39   1  40   1
M  END
>  <CHROM.1>
-172.17485427,50.30491136,-124.51130853,-154.48611510,-67.03929834,-36.65029615
86.01343646,44.16706317,-172.59860892,177.12881743,31.84354996,-47.58114203
66.75685286,56.73428664,-31.50156078,-61.93943285,175.47973292,-160.28783981
174.74374784,82.80228534,-40.75489002,64.49782726,9.75729951,-1.39642431
-1.22252289,-1.55394237,-0.46904765,-2.49935802

>  <Name>


>  <RI>
0

>  <Rbt.Current_Directory>
/home/itssahil/PROJECTS/Mol_Feturizer/New_Systems/rnas/1qd3

>  <Rbt.Executable>
rbdock ($Id: //depot/dev/client3/rdock/2013.1/src/exe/rbdock.cxx#4 $)

>  <Rbt.Library>
libRbt.so (2013.1, Build901 2013/11/27)

>  <Rbt.Parameter_File>
/export/apps/rDock/src/rDock_2013.1_src/data/scripts/dock_solv.prm

>  <Rbt.Receptor>
prm/pocket_docking_5.prm

>  <SCORE>
-46.4225

>  <SCORE.INTER>
-27.1376

>  <SCORE.INTER.CONST>
1

>  <SCORE.INTER.POLAR>
-5.07665

>  <SCORE.INTER.ROT>
9

>  <SCORE.INTER.SOLV>
31.3504

>  <SCORE.INTER.VDW>
-21.2197

>  <SCORE.INTER.norm>
-0.646134

>  <SCORE.INTRA>
-19.2849

>  <SCORE.INTRA.DIHEDRAL>
-16.6805

>  <SCORE.INTRA.DIHEDRAL.0>
40.6252

>  <SCORE.INTRA.POLAR>
0.492223

>  <SCORE.INTRA.POLAR.0>
-1.20161

>  <SCORE.INTRA.REPUL>
-0.101153

>  <SCORE.INTRA.REPUL.0>
0.115675

>  <SCORE.INTRA.SOLV>
-10.6555

>  <SCORE.INTRA.SOLV.lig_0>
-154.895

>  <SCORE.INTRA.VDW>
-6.7847

>  <SCORE.INTRA.VDW.0>
2.2925

>  <SCORE.INTRA.norm>
-0.459164

>  <SCORE.RESTR>
0

>  <SCORE.RESTR.CAVITY>
0

>  <SCORE.RESTR.norm>
0

>  <SCORE.SYSTEM>
0

>  <SCORE.SYSTEM.CONST>
0

>  <SCORE.SYSTEM.DIHEDRAL>
0

>  <SCORE.SYSTEM.SOLV>
0

>  <SCORE.SYSTEM.norm>
0

>  <SCORE.heavy>
42

>  <SCORE.norm>
-1.1053

>  <RMSD>
9.233

$$$$

 OpenBabel11021811413D
libRbt.so/2013.1/901 2013/11/27
 42 45  0  0  0  0  0  0  0  0999 V2000
   11.8288   -0.3363   -0.7901 O   0  0  0  0  0  0  0  0  0  0  0  0
   10.9352   -0.1565   -1.8796 C   0  0  0  0  0  0  0  0  0  0  0  0
    9.6080   -0.8551   -1.5811 C   0  0  1  0  0  0  0  0  0  0  0  0
    9.7141   -2.2838   -1.7633 O   0  0  0  0  0  0  0  0  0  0  0  0
    9.1288   -0.6552   -0.1529 C   0  0  2  0  0  0  0  0  0  0  0  0
    8.1481   -1.8089   -0.0257 C   0  0  1  0  0  0  0  0  0  0  0  0
    6.9344   -1.4843   -0.6946 O   0  0  0  0  0  0  0  0  0  0  0  0
    8.8754   -2.9409   -0.7796 C   0  0  2  0  0  0  0  0  0  0  0  0
    9.7980    3.8726    1.0776 C   0  0  2  0  0  0  0  0  0  0  0  0
    8.9505    2.9155    0.4239 O   0  0  0  0  0  0  0  0  0  0  0  0
    9.3275    1.5622    0.7357 C   0  0  2  0  0  0  0  0  0  0  0  0
    8.4947    0.6276    0.0185 O   0  0  0  0  0  0  0  0  0  0  0  0
    9.2341    1.3079    2.2500 C   0  0  2  0  0  0  0  0  0  0  0  0
    7.8518    1.1418    2.6599 N   0  3  0  0  0  0  0  0  0  0  0  0
    9.9144    2.3995    3.0845 C   0  0  1  0  0  0  0  0  0  0  0  0
   11.3197    2.2065    3.0566 O   0  0  0  0  0  0  0  0  0  0  0  0
    9.5811    3.8023    2.5838 C   0  0  2  0  0  0  0  0  0  0  0  0
    8.2314    4.1227    2.8998 O   0  0  0  0  0  0  0  0  0  0  0  0
    9.5239    5.2796    0.5543 C   0  0  0  0  0  0  0  0  0  0  0  0
   10.6470    6.1533    0.8378 N   0  3  0  0  0  0  0  0  0  0  0  0
    6.8776   -7.7913   -1.5613 C   0  0  1  0  0  0  0  0  0  0  0  0
    7.0175   -6.4390   -1.0778 O   0  0  0  0  0  0  0  0  0  0  0  0
    7.8508   -6.3348    0.0995 C   0  0  2  0  0  0  0  0  0  0  0  0
    9.2281   -6.6908   -0.1763 O   0  0  0  0  0  0  0  0  0  0  0  0
    7.2792   -7.1820    1.2429 C   0  0  2  0  0  0  0  0  0  0  0  0
    8.2274   -7.2381    2.3399 N   0  3  0  0  0  0  0  0  0  0  0  0
    6.9551   -8.6006    0.7876 C   0  0  1  0  0  0  0  0  0  0  0  0
    6.2176   -9.2703    1.7985 O   0  0  0  0  0  0  0  0  0  0  0  0
    6.1784   -8.6488   -0.5192 C   0  0  2  0  0  0  0  0  0  0  0  0
    6.0735   -9.9873   -0.9818 O   0  0  0  0  0  0  0  0  0  0  0  0
    6.0222   -7.8084   -2.8248 C   0  0  0  0  0  0  0  0  0  0  0  0
    4.7141   -7.2344   -2.5678 N   0  3  0  0  0  0  0  0  0  0  0  0
   12.5158   -4.8101   -2.1137 C   0  0  2  0  0  0  0  0  0  0  0  0
   11.6640   -5.7667   -2.9245 C   0  0  0  0  0  0  0  0  0  0  0  0
   10.8184   -6.6323   -2.0088 C   0  0  1  0  0  0  0  0  0  0  0  0
    9.8513   -5.8145   -1.1516 C   0  0  2  0  0  0  0  0  0  0  0  0
   10.5894   -4.6633   -0.4299 C   0  0  1  0  0  0  0  0  0  0  0  0
   11.6421   -3.9083   -1.2521 C   0  0  1  0  0  0  0  0  0  0  0  0
   13.3172   -3.9996   -3.0108 N   0  3  0  0  0  0  0  0  0  0  0  0
   10.0953   -7.6002   -2.8104 N   0  3  0  0  0  0  0  0  0  0  0  0
    9.6588   -3.7256    0.1648 O   0  0  0  0  0  0  0  0  0  0  0  0
   12.4622   -3.1299   -0.3868 O   0  0  0  0  0  0  0  0  0  0  0  0
  1  2  1  0  0  0  0
  3  2  1  1  0  0  0
  3  4  1  0  0  0  0
  3  5  1  0  0  0  0
  4  8  1  0  0  0  0
  5  6  1  0  0  0  0
  5 12  1  6  0  0  0
  6  7  1  6  0  0  0
  6  8  1  0  0  0  0
  8 41  1  1  0  0  0
  9 10  1  0  0  0  0
  9 17  1  0  0  0  0
  9 19  1  6  0  0  0
 10 11  1  0  0  0  0
 11 12  1  6  0  0  0
 11 13  1  0  0  0  0
 13 14  1  1  0  0  0
 13 15  1  0  0  0  0
 15 16  1  6  0  0  0
 15 17  1  0  0  0  0
 17 18  1  6  0  0  0
 19 20  1  0  0  0  0
 21 22  1  0  0  0  0
 21 29  1  0  0  0  0
 21 31  1  6  0  0  0
 22 23  1  0  0  0  0
 23 24  1  6  0  0  0
 23 25  1  0  0  0  0
 25 26  1  1  0  0  0
 25 27  1  0  0  0  0
 27 28  1  1  0  0  0
 27 29  1  0  0  0  0
 29 30  1  6  0  0  0
 31 32  1  0  0  0  0
 33 34  1  0  0  0  0
 33 38  1  0  0  0  0
 33 39  1  6  0  0  0
 34 35  1  0  0  0  0
 35 36  1  0  0  0  0
 35 40  1  6  0  0  0
 36 24  1  1  0  0  0
 36 37  1  0  0  0  0
 37 38  1  0  0  0  0
 37 41  1  6  0  0  0
 38 42  1  1  0  0  0
M  CHG  6  14   1  20   1  26   1  32   1  39   1  40   1
M  END
>  <CHROM.1>
170.25458326,-76.96638703,-105.52490886,-104.53136049,-52.00230520,-160.02785757
156.32505292,72.68847915,-172.43253272,-172.98141390,60.89954821,-58.13479416
61.97693742,-144.88257084,139.89613067,72.35391563,-65.22246725,47.80563532
-55.29268895,-56.63742918,-67.97342336,-58.09215003,9.11519955,-2.80605814
-0.14868995,-1.35820517,-0.52780001,-2.83139412

>  <Name>


>  <RI>
0

>  <Rbt.Current_Directory>
/home/itssahil/PROJECTS/Mol_Feturizer/New_Systems/rnas/1qd3

>  <Rbt.Executable>
rbdock ($Id: //depot/dev/client3/rdock/2013.1/src/exe/rbdock.cxx#4 $)

>  <Rbt.Library>
libRbt.so (2013.1, Build901 2013/11/27)

>  <Rbt.Parameter_File>
/export/apps/rDock/src/rDock_2013.1_src/data/scripts/dock_solv.prm

>  <Rbt.Receptor>
prm/pocket_docking_4.prm

>  <SCORE>
-42.5971

>  <SCORE.INTER>
-29.0142

>  <SCORE.INTER.CONST>
1

>  <SCORE.INTER.POLAR>
-4.64079

>  <SCORE.INTER.ROT>
9

>  <SCORE.INTER.SOLV>
26.9645

>  <SCORE.INTER.VDW>
-22.4617

>  <SCORE.INTER.norm>
-0.690814

>  <SCORE.INTRA>
-14.9943

>  <SCORE.INTRA.DIHEDRAL>
-11.1351

>  <SCORE.INTRA.DIHEDRAL.0>
40.6252

>  <SCORE.INTRA.POLAR>
1.16834

>  <SCORE.INTRA.POLAR.0>
-1.20161

>  <SCORE.INTRA.REPUL>
-0.115675

>  <SCORE.INTRA.REPUL.0>
0.115675

>  <SCORE.INTRA.SOLV>
-9.80537

>  <SCORE.INTRA.SOLV.lig_0>
-154.895

>  <SCORE.INTRA.VDW>
-7.91798

>  <SCORE.INTRA.VDW.0>
2.2925

>  <SCORE.INTRA.norm>
-0.357006

>  <SCORE.RESTR>
1.41137

>  <SCORE.RESTR.CAVITY>
1.41137

>  <SCORE.RESTR.norm>
0.0336039

>  <SCORE.SYSTEM>
0

>  <SCORE.SYSTEM.CONST>
0

>  <SCORE.SYSTEM.DIHEDRAL>
0

>  <SCORE.SYSTEM.SOLV>
0

>  <SCORE.SYSTEM.norm>
0

>  <SCORE.heavy>
42

>  <SCORE.norm>
-1.01422

>  <RMSD>
9.246

$$$$

 OpenBabel11021811413D
libRbt.so/2013.1/901 2013/11/27
 42 45  0  0  0  0  0  0  0  0999 V2000
   13.1570   -1.5700   -3.3178 O   0  0  0  0  0  0  0  0  0  0  0  0
   13.0293   -2.8828   -3.8450 C   0  0  0  0  0  0  0  0  0  0  0  0
   11.5707   -3.1514   -4.2176 C   0  0  1  0  0  0  0  0  0  0  0  0
   11.3780   -4.5219   -4.6301 O   0  0  0  0  0  0  0  0  0  0  0  0
   10.6029   -2.9260   -3.0678 C   0  0  2  0  0  0  0  0  0  0  0  0
    9.4030   -3.7202   -3.5560 C   0  0  1  0  0  0  0  0  0  0  0  0
    8.7094   -2.9790   -4.5537 O   0  0  0  0  0  0  0  0  0  0  0  0
   10.0671   -4.9592   -4.1905 C   0  0  2  0  0  0  0  0  0  0  0  0
    9.4535    0.4326    0.0703 C   0  0  2  0  0  0  0  0  0  0  0  0
    9.9608    0.1308   -1.2386 O   0  0  0  0  0  0  0  0  0  0  0  0
    9.7311   -1.2428   -1.6005 C   0  0  2  0  0  0  0  0  0  0  0  0
   10.3033   -1.5271   -2.8942 O   0  0  0  0  0  0  0  0  0  0  0  0
    8.2258   -1.5597   -1.6010 C   0  0  2  0  0  0  0  0  0  0  0  0
    7.5860   -1.0180   -2.7857 N   0  3  0  0  0  0  0  0  0  0  0  0
    7.5104   -1.0745   -0.3347 C   0  0  1  0  0  0  0  0  0  0  0  0
    7.7813   -1.9702    0.7317 O   0  0  0  0  0  0  0  0  0  0  0  0
    7.9332    0.3369    0.0636 C   0  0  2  0  0  0  0  0  0  0  0  0
    7.3869    1.2829   -0.8481 O   0  0  0  0  0  0  0  0  0  0  0  0
    9.9087    1.8190    0.5170 C   0  0  0  0  0  0  0  0  0  0  0  0
   11.3553    1.9175    0.4681 N   0  3  0  0  0  0  0  0  0  0  0  0
    7.7124   -6.4235   -6.9571 C   0  0  1  0  0  0  0  0  0  0  0  0
    8.1671   -5.7195   -5.7825 O   0  0  0  0  0  0  0  0  0  0  0  0
    7.4594   -6.0964   -4.5790 C   0  0  2  0  0  0  0  0  0  0  0  0
    7.7112   -7.4748   -4.2096 O   0  0  0  0  0  0  0  0  0  0  0  0
    5.9568   -5.8301   -4.7297 C   0  0  2  0  0  0  0  0  0  0  0  0
    5.2370   -6.4033   -3.6077 N   0  3  0  0  0  0  0  0  0  0  0  0
    5.4072   -6.4118   -6.0275 C   0  0  1  0  0  0  0  0  0  0  0  0
    4.0841   -5.9437   -6.2385 O   0  0  0  0  0  0  0  0  0  0  0  0
    6.2596   -6.0795   -7.2425 C   0  0  2  0  0  0  0  0  0  0  0  0
    5.8032   -6.8005   -8.3776 O   0  0  0  0  0  0  0  0  0  0  0  0
    8.5354   -6.0008   -8.1707 C   0  0  0  0  0  0  0  0  0  0  0  0
    9.8701   -6.5678   -8.1094 N   0  3  0  0  0  0  0  0  0  0  0  0
    8.0523   -6.5712   -0.0663 C   0  0  2  0  0  0  0  0  0  0  0  0
    7.6212   -7.9712   -0.4565 C   0  0  0  0  0  0  0  0  0  0  0  0
    7.1672   -8.0035   -1.9042 C   0  0  1  0  0  0  0  0  0  0  0  0
    8.2767   -7.6066   -2.8791 C   0  0  2  0  0  0  0  0  0  0  0  0
    8.9375   -6.2752   -2.4531 C   0  0  1  0  0  0  0  0  0  0  0  0
    9.1953   -6.0929   -0.9515 C   0  0  1  0  0  0  0  0  0  0  0  0
    8.4754   -6.5664    1.3211 N   0  3  0  0  0  0  0  0  0  0  0  0
    6.6685   -9.3297   -2.2122 N   0  3  0  0  0  0  0  0  0  0  0  0
   10.1535   -6.0227   -3.1991 O   0  0  0  0  0  0  0  0  0  0  0  0
    9.4778   -4.7254   -0.6736 O   0  0  0  0  0  0  0  0  0  0  0  0
  1  2  1  0  0  0  0
  3  2  1  1  0  0  0
  3  4  1  0  0  0  0
  3  5  1  0  0  0  0
  4  8  1  0  0  0  0
  5  6  1  0  0  0  0
  5 12  1  6  0  0  0
  6  7  1  6  0  0  0
  6  8  1  0  0  0  0
  8 41  1  1  0  0  0
  9 10  1  0  0  0  0
  9 17  1  0  0  0  0
  9 19  1  6  0  0  0
 10 11  1  0  0  0  0
 11 12  1  6  0  0  0
 11 13  1  0  0  0  0
 13 14  1  6  0  0  0
 13 15  1  0  0  0  0
 15 16  1  1  0  0  0
 15 17  1  0  0  0  0
 17 18  1  6  0  0  0
 19 20  1  0  0  0  0
 21 22  1  0  0  0  0
 21 29  1  0  0  0  0
 21 31  1  6  0  0  0
 22 23  1  0  0  0  0
 23 24  1  6  0  0  0
 23 25  1  0  0  0  0
 25 26  1  1  0  0  0
 25 27  1  0  0  0  0
 27 28  1  6  0  0  0
 27 29  1  0  0  0  0
 29 30  1  6  0  0  0
 31 32  1  0  0  0  0
 33 34  1  0  0  0  0
 33 38  1  0  0  0  0
 33 39  1  1  0  0  0
 34 35  1  0  0  0  0
 35 36  1  0  0  0  0
 35 40  1  6  0  0  0
 36 24  1  6  0  0  0
 36 37  1  0  0  0  0
 37 38  1  0  0  0  0
 37 41  1  6  0  0  0
 38 42  1  6  0  0  0
M  CHG  6  14   1  20   1  26   1  32   1  39   1  40   1
M  END
>  <CHROM.1>
-62.94313727,-174.15581602,-162.51123648,80.07306380,164.41912580,-55.88938006
155.86411238,168.54055439,49.99262773,-178.06790437,-59.03501827,73.13967019
121.80908072,100.39378239,-55.21708139,-60.31365416,-95.71778619,56.41236231
60.25638451,70.25513817,107.93319268,66.30113021,8.59993540,-4.12667563,-3.06152261
-0.90643772,-1.04635946,-1.93051351

>  <Name>


>  <RI>
0

>  <Rbt.Current_Directory>
/home/itssahil/PROJECTS/Mol_Feturizer/New_Systems/rnas/1qd3

>  <Rbt.Executable>
rbdock ($Id: //depot/dev/client3/rdock/2013.1/src/exe/rbdock.cxx#4 $)

>  <Rbt.Library>
libRbt.so (2013.1, Build901 2013/11/27)

>  <Rbt.Parameter_File>
/export/apps/rDock/src/rDock_2013.1_src/data/scripts/dock_solv.prm

>  <Rbt.Receptor>
prm/pocket_docking_3.prm

>  <SCORE>
-40.28

>  <SCORE.INTER>
-31.9685

>  <SCORE.INTER.CONST>
1

>  <SCORE.INTER.POLAR>
-6.52358

>  <SCORE.INTER.ROT>
9

>  <SCORE.INTER.SOLV>
24.9181

>  <SCORE.INTER.VDW>
-17.4731

>  <SCORE.INTER.norm>
-0.761155

>  <SCORE.INTRA>
-9.37362

>  <SCORE.INTRA.DIHEDRAL>
-6.07029

>  <SCORE.INTRA.DIHEDRAL.0>
40.6252

>  <SCORE.INTRA.POLAR>
0.484576

>  <SCORE.INTRA.POLAR.0>
-1.20161

>  <SCORE.INTRA.REPUL>
-0.115675

>  <SCORE.INTRA.REPUL.0>
0.115675

>  <SCORE.INTRA.SOLV>
-5.17748

>  <SCORE.INTRA.SOLV.lig_0>
-154.895

>  <SCORE.INTRA.VDW>
-4.81892

>  <SCORE.INTRA.VDW.0>
2.2925

>  <SCORE.INTRA.norm>
-0.223181

>  <SCORE.RESTR>
1.06211

>  <SCORE.RESTR.CAVITY>
1.06211

>  <SCORE.RESTR.norm>
0.0252883

>  <SCORE.SYSTEM>
0

>  <SCORE.SYSTEM.CONST>
0

>  <SCORE.SYSTEM.DIHEDRAL>
0

>  <SCORE.SYSTEM.SOLV>
0

>  <SCORE.SYSTEM.norm>
0

>  <SCORE.heavy>
42

>  <SCORE.norm>
-0.959048

>  <RMSD>
9.248

$$$$

 OpenBabel11021811413D
libRbt.so/2013.1/901 2013/11/27
 42 45  0  0  0  0  0  0  0  0999 V2000
   10.4903    2.2339   -0.9551 O   0  0  0  0  0  0  0  0  0  0  0  0
    9.9337    1.5609    0.1652 C   0  0  0  0  0  0  0  0  0  0  0  0
    8.8941    0.5433   -0.3062 C   0  0  1  0  0  0  0  0  0  0  0  0
    9.4633   -0.3900   -1.2500 O   0  0  0  0  0  0  0  0  0  0  0  0
    8.3248   -0.3034    0.8199 C   0  0  2  0  0  0  0  0  0  0  0  0
    7.7662   -1.4753    0.0303 C   0  0  1  0  0  0  0  0  0  0  0  0
    6.5377   -1.1001   -0.5829 O   0  0  0  0  0  0  0  0  0  0  0  0
    8.8473   -1.6873   -1.0490 C   0  0  2  0  0  0  0  0  0  0  0  0
    7.5025    3.4985    3.4839 C   0  0  2  0  0  0  0  0  0  0  0  0
    6.9586    2.4883    2.6207 O   0  0  0  0  0  0  0  0  0  0  0  0
    7.8542    1.3723    2.4682 C   0  0  2  0  0  0  0  0  0  0  0  0
    7.3039    0.4043    1.5507 O   0  0  0  0  0  0  0  0  0  0  0  0
    8.1400    0.7156    3.8296 C   0  0  2  0  0  0  0  0  0  0  0  0
    7.0144   -0.0951    4.2566 N   0  3  0  0  0  0  0  0  0  0  0  0
    8.5153    1.7290    4.9173 C   0  0  1  0  0  0  0  0  0  0  0  0
    9.8631    2.1342    4.7385 O   0  0  0  0  0  0  0  0  0  0  0  0
    7.6068    2.9554    4.9034 C   0  0  2  0  0  0  0  0  0  0  0  0
    6.3159    2.6090    5.3914 O   0  0  0  0  0  0  0  0  0  0  0  0
    6.6423    4.7584    3.4461 C   0  0  0  0  0  0  0  0  0  0  0  0
    5.3427    4.5024    4.0382 N   0  3  0  0  0  0  0  0  0  0  0  0
    6.4237   -5.4320   -3.3436 C   0  0  1  0  0  0  0  0  0  0  0  0
    6.8537   -4.3864   -2.4469 O   0  0  0  0  0  0  0  0  0  0  0  0
    7.9357   -4.7882   -1.5755 C   0  0  2  0  0  0  0  0  0  0  0  0
    9.1535   -5.0613   -2.3117 O   0  0  0  0  0  0  0  0  0  0  0  0
    7.5232   -5.9939   -0.7224 C   0  0  2  0  0  0  0  0  0  0  0  0
    8.6760   -6.5156   -0.0120 N   0  3  0  0  0  0  0  0  0  0  0  0
    6.9128   -7.1040   -1.5706 C   0  0  1  0  0  0  0  0  0  0  0  0
    6.3351   -8.0878   -0.7264 O   0  0  0  0  0  0  0  0  0  0  0  0
    5.8641   -6.6022   -2.5513 C   0  0  2  0  0  0  0  0  0  0  0  0
    5.4744   -7.6446   -3.4334 O   0  0  0  0  0  0  0  0  0  0  0  0
    5.3131   -4.9155   -4.2537 C   0  0  0  0  0  0  0  0  0  0  0  0
    4.2118   -4.3852   -3.4709 N   0  3  0  0  0  0  0  0  0  0  0  0
   12.5337   -2.6534   -3.2478 C   0  0  2  0  0  0  0  0  0  0  0  0
   11.5986   -3.0377   -4.3774 C   0  0  0  0  0  0  0  0  0  0  0  0
   10.7090   -4.1944   -3.9608 C   0  0  1  0  0  0  0  0  0  0  0  0
    9.8211   -3.8538   -2.7631 C   0  0  2  0  0  0  0  0  0  0  0  0
   10.6554   -3.2504   -1.6096 C   0  0  1  0  0  0  0  0  0  0  0  0
   11.7452   -2.2472   -2.0100 C   0  0  1  0  0  0  0  0  0  0  0  0
   13.3755   -1.5514   -3.6729 N   0  3  0  0  0  0  0  0  0  0  0  0
    9.9016   -4.6001   -5.0948 N   0  3  0  0  0  0  0  0  0  0  0  0
    9.8078   -2.6783   -0.5833 O   0  0  0  0  0  0  0  0  0  0  0  0
   12.6366   -2.0428   -0.9187 O   0  0  0  0  0  0  0  0  0  0  0  0
  1  2  1  0  0  0  0
  3  2  1  1  0  0  0
  3  4  1  0  0  0  0
  3  5  1  0  0  0  0
  4  8  1  0  0  0  0
  5  6  1  0  0  0  0
  5 12  1  6  0  0  0
  6  7  1  6  0  0  0
  6  8  1  0  0  0  0
  8 41  1  1  0  0  0
  9 10  1  0  0  0  0
  9 17  1  0  0  0  0
  9 19  1  1  0  0  0
 10 11  1  0  0  0  0
 11 12  1  6  0  0  0
 11 13  1  0  0  0  0
 13 14  1  1  0  0  0
 13 15  1  0  0  0  0
 15 16  1  6  0  0  0
 15 17  1  0  0  0  0
 17 18  1  6  0  0  0
 19 20  1  0  0  0  0
 21 22  1  0  0  0  0
 21 29  1  0  0  0  0
 21 31  1  6  0  0  0
 22 23  1  0  0  0  0
 23 24  1  6  0  0  0
 23 25  1  0  0  0  0
 25 26  1  6  0  0  0
 25 27  1  0  0  0  0
 27 28  1  1  0  0  0
 27 29  1  0  0  0  0
 29 30  1  6  0  0  0
 31 32  1  0  0  0  0
 33 34  1  0  0  0  0
 33 38  1  0  0  0  0
 33 39  1  6  0  0  0
 34 35  1  0  0  0  0
 35 36  1  0  0  0  0
 35 40  1  6  0  0  0
 36 24  1  1  0  0  0
 36 37  1  0  0  0  0
 37 38  1  0  0  0  0
 37 41  1  1  0  0  0
 38 42  1  1  0  0  0
M  CHG  6  14   1  20   1  26   1  32   1  39   1  40   1
M  END
>  <CHROM.1>
56.09852402,56.27200266,-77.51504969,-78.79393548,-79.48909182,67.11077855
148.95028141,-145.40159884,64.15381911,-169.44338043,38.27456932,-55.71134849
75.09832682,-156.88856599,175.30538370,168.46691093,-69.52011826,76.96118055
70.50545394,-142.97714160,-54.69851024,176.10162890,8.36654601,-1.77046806
-0.27468540,-1.63083128,-0.48219795,-2.48417491

>  <Name>


>  <RI>
0

>  <Rbt.Current_Directory>
/home/itssahil/PROJECTS/Mol_Feturizer/New_Systems/rnas/1qd3

>  <Rbt.Executable>
rbdock ($Id: //depot/dev/client3/rdock/2013.1/src/exe/rbdock.cxx#4 $)

>  <Rbt.Library>
libRbt.so (2013.1, Build901 2013/11/27)

>  <Rbt.Parameter_File>
/export/apps/rDock/src/rDock_2013.1_src/data/scripts/dock_solv.prm

>  <Rbt.Receptor>
prm/pocket_docking_3.prm

>  <SCORE>
-70.8373

>  <SCORE.INTER>
-50.6444

>  <SCORE.INTER.CONST>
1

>  <SCORE.INTER.POLAR>
-8.20648

>  <SCORE.INTER.ROT>
9

>  <SCORE.INTER.SOLV>
49.4443

>  <SCORE.INTER.VDW>
-32.4894

>  <SCORE.INTER.norm>
-1.20582

>  <SCORE.INTRA>
-20.2387

>  <SCORE.INTRA.DIHEDRAL>
-19.8108

>  <SCORE.INTRA.DIHEDRAL.0>
40.6252

>  <SCORE.INTRA.POLAR>
0.21274

>  <SCORE.INTRA.POLAR.0>
-1.20161

>  <SCORE.INTRA.REPUL>
-0.115675

>  <SCORE.INTRA.REPUL.0>
0.115675

>  <SCORE.INTRA.SOLV>
-8.76046

>  <SCORE.INTRA.SOLV.lig_0>
-154.895

>  <SCORE.INTRA.VDW>
-6.09802

>  <SCORE.INTRA.VDW.0>
2.2925

>  <SCORE.INTRA.norm>
-0.481874

>  <SCORE.RESTR>
0.0457667

>  <SCORE.RESTR.CAVITY>
0.0457667

>  <SCORE.RESTR.norm>
0.00108968

>  <SCORE.SYSTEM>
0

>  <SCORE.SYSTEM.CONST>
0

>  <SCORE.SYSTEM.DIHEDRAL>
0

>  <SCORE.SYSTEM.SOLV>
0

>  <SCORE.SYSTEM.norm>
0

>  <SCORE.heavy>
42

>  <SCORE.norm>
-1.6866

>  <RMSD>
9.265

$$$$

 OpenBabel11021811413D
libRbt.so/2013.1/901 2013/11/27
 42 45  0  0  0  0  0  0  0  0999 V2000
    9.0558   -6.7911    0.5104 O   0  0  0  0  0  0  0  0  0  0  0  0
    9.8463   -5.6113    0.5413 C   0  0  0  0  0  0  0  0  0  0  0  0
   10.8347   -5.6197   -0.6255 C   0  0  1  0  0  0  0  0  0  0  0  0
   10.9339   -6.9320   -1.2201 O   0  0  0  0  0  0  0  0  0  0  0  0
   10.4420   -4.6827   -1.7556 C   0  0  2  0  0  0  0  0  0  0  0  0
   11.2628   -5.2635   -2.8949 C   0  0  1  0  0  0  0  0  0  0  0  0
   12.6220   -4.8626   -2.7615 O   0  0  0  0  0  0  0  0  0  0  0  0
   11.1373   -6.7807   -2.6479 C   0  0  2  0  0  0  0  0  0  0  0  0
    8.9168   -0.2405   -0.8793 C   0  0  2  0  0  0  0  0  0  0  0  0
   10.0458   -1.1142   -1.0318 O   0  0  0  0  0  0  0  0  0  0  0  0
    9.6465   -2.4542   -1.3720 C   0  0  2  0  0  0  0  0  0  0  0  0
   10.7988   -3.3180   -1.4603 O   0  0  0  0  0  0  0  0  0  0  0  0
    8.8658   -2.4680   -2.6974 C   0  0  2  0  0  0  0  0  0  0  0  0
    9.7660   -2.3238   -3.8267 N   0  3  0  0  0  0  0  0  0  0  0  0
    7.7600   -1.4074   -2.7532 C   0  0  1  0  0  0  0  0  0  0  0  0
    6.6440   -1.8505   -1.9974 O   0  0  0  0  0  0  0  0  0  0  0  0
    8.2294   -0.0542   -2.2260 C   0  0  2  0  0  0  0  0  0  0  0  0
    9.1258    0.5444   -3.1548 O   0  0  0  0  0  0  0  0  0  0  0  0
    9.3508    1.1031   -0.3004 C   0  0  0  0  0  0  0  0  0  0  0  0
   10.4238    1.6734   -1.0932 N   0  3  0  0  0  0  0  0  0  0  0  0
    6.7102   -6.4276   -4.1060 C   0  0  1  0  0  0  0  0  0  0  0  0
    7.4818   -7.4286   -4.8024 O   0  0  0  0  0  0  0  0  0  0  0  0
    8.0146   -6.9655   -6.0645 C   0  0  2  0  0  0  0  0  0  0  0  0
    8.9939   -5.9123   -5.8873 O   0  0  0  0  0  0  0  0  0  0  0  0
    6.8828   -6.5169   -6.9970 C   0  0  2  0  0  0  0  0  0  0  0  0
    7.4359   -5.8625   -8.1682 N   0  3  0  0  0  0  0  0  0  0  0  0
    5.9195   -5.5638   -6.2985 C   0  0  1  0  0  0  0  0  0  0  0  0
    4.7725   -5.3637   -7.1101 O   0  0  0  0  0  0  0  0  0  0  0  0
    5.4861   -6.0493   -4.9238 C   0  0  2  0  0  0  0  0  0  0  0  0
    4.7471   -5.0386   -4.2537 O   0  0  0  0  0  0  0  0  0  0  0  0
    6.2220   -6.9804   -2.7701 C   0  0  0  0  0  0  0  0  0  0  0  0
    5.5384   -8.2471   -2.9568 N   0  3  0  0  0  0  0  0  0  0  0  0
   12.0946   -8.8044   -6.2357 C   0  0  2  0  0  0  0  0  0  0  0  0
   12.2613   -7.4897   -6.9719 C   0  0  0  0  0  0  0  0  0  0  0  0
   10.9318   -6.7653   -7.0738 C   0  0  1  0  0  0  0  0  0  0  0  0
   10.3413   -6.4214   -5.7056 C   0  0  2  0  0  0  0  0  0  0  0  0
   10.3154   -7.6641   -4.7858 C   0  0  1  0  0  0  0  0  0  0  0  0
   11.5521   -8.5711   -4.8321 C   0  0  1  0  0  0  0  0  0  0  0  0
   13.3765   -9.4786   -6.1571 N   0  3  0  0  0  0  0  0  0  0  0  0
   11.1086   -5.5656   -7.8687 N   0  3  0  0  0  0  0  0  0  0  0  0
   10.0153   -7.3045   -3.4149 O   0  0  0  0  0  0  0  0  0  0  0  0
   11.2562   -9.8211   -4.2179 O   0  0  0  0  0  0  0  0  0  0  0  0
  1  2  1  0  0  0  0
  3  2  1  1  0  0  0
  3  4  1  0  0  0  0
  3  5  1  0  0  0  0
  4  8  1  0  0  0  0
  5  6  1  0  0  0  0
  5 12  1  1  0  0  0
  6  7  1  1  0  0  0
  6  8  1  0  0  0  0
  8 41  1  6  0  0  0
  9 10  1  0  0  0  0
  9 17  1  0  0  0  0
  9 19  1  6  0  0  0
 10 11  1  0  0  0  0
 11 12  1  6  0  0  0
 11 13  1  0  0  0  0
 13 14  1  6  0  0  0
 13 15  1  0  0  0  0
 15 16  1  1  0  0  0
 15 17  1  0  0  0  0
 17 18  1  6  0  0  0
 19 20  1  0  0  0  0
 21 22  1  0  0  0  0
 21 29  1  0  0  0  0
 21 31  1  1  0  0  0
 22 23  1  0  0  0  0
 23 24  1  1  0  0  0
 23 25  1  0  0  0  0
 25 26  1  6  0  0  0
 25 27  1  0  0  0  0
 27 28  1  6  0  0  0
 27 29  1  0  0  0  0
 29 30  1  1  0  0  0
 31 32  1  0  0  0  0
 33 34  1  0  0  0  0
 33 38  1  0  0  0  0
 33 39  1  1  0  0  0
 34 35  1  0  0  0  0
 35 36  1  0  0  0  0
 35 40  1  6  0  0  0
 36 24  1  6  0  0  0
 36 37  1  0  0  0  0
 37 38  1  0  0  0  0
 37 41  1  1  0  0  0
 38 42  1  6  0  0  0
M  CHG  6  14   1  20   1  26   1  32   1  39   1  40   1
M  END
>  <CHROM.1>
73.17926832,-14.52280085,-116.95582394,69.08493992,-157.59453794,53.35283923
178.05221073,-134.49233288,60.82341199,176.53493805,66.49873769,-52.33640479
88.32625631,80.89570853,64.97567070,-59.39483444,-130.73687117,-176.88771544
53.63392616,56.06785950,-80.02536900,-168.84040243,9.21204581,-5.05199422
-3.70422717,-1.64800839,0.44253332,-2.55277797

>  <Name>


>  <RI>
0

>  <Rbt.Current_Directory>
/home/itssahil/PROJECTS/Mol_Feturizer/New_Systems/rnas/1qd3

>  <Rbt.Executable>
rbdock ($Id: //depot/dev/client3/rdock/2013.1/src/exe/rbdock.cxx#4 $)

>  <Rbt.Library>
libRbt.so (2013.1, Build901 2013/11/27)

>  <Rbt.Parameter_File>
/export/apps/rDock/src/rDock_2013.1_src/data/scripts/dock_solv.prm

>  <Rbt.Receptor>
prm/pocket_docking_5.prm

>  <SCORE>
-55.1631

>  <SCORE.INTER>
-45.3246

>  <SCORE.INTER.CONST>
1

>  <SCORE.INTER.POLAR>
-8.50112

>  <SCORE.INTER.ROT>
9

>  <SCORE.INTER.SOLV>
27.2533

>  <SCORE.INTER.VDW>
-20.5638

>  <SCORE.INTER.norm>
-1.07916

>  <SCORE.INTRA>
-9.9196

>  <SCORE.INTRA.DIHEDRAL>
-6.49858

>  <SCORE.INTRA.DIHEDRAL.0>
40.6252

>  <SCORE.INTRA.POLAR>
0.706565

>  <SCORE.INTRA.POLAR.0>
-1.20161

>  <SCORE.INTRA.REPUL>
0.000583626

>  <SCORE.INTRA.REPUL.0>
0.115675

>  <SCORE.INTRA.SOLV>
-6.06985

>  <SCORE.INTRA.SOLV.lig_0>
-154.895

>  <SCORE.INTRA.VDW>
-6.04063

>  <SCORE.INTRA.VDW.0>
2.2925

>  <SCORE.INTRA.norm>
-0.236181

>  <SCORE.RESTR>
0.0811524

>  <SCORE.RESTR.CAVITY>
0.0811524

>  <SCORE.RESTR.norm>
0.0019322

>  <SCORE.SYSTEM>
0

>  <SCORE.SYSTEM.CONST>
0

>  <SCORE.SYSTEM.DIHEDRAL>
0

>  <SCORE.SYSTEM.SOLV>
0

>  <SCORE.SYSTEM.norm>
0

>  <SCORE.heavy>
42

>  <SCORE.norm>
-1.31341

>  <RMSD>
9.267

$$$$

 OpenBabel11021811413D
libRbt.so/2013.1/901 2013/11/27
 42 45  0  0  0  0  0  0  0  0999 V2000
   10.7083    1.1216   -0.5665 O   0  0  0  0  0  0  0  0  0  0  0  0
    9.3291    1.4166   -0.7352 C   0  0  0  0  0  0  0  0  0  0  0  0
    8.5088    0.1298   -0.6380 C   0  0  1  0  0  0  0  0  0  0  0  0
    8.9533   -0.8503   -1.6011 O   0  0  0  0  0  0  0  0  0  0  0  0
    8.6092   -0.5487    0.7181 C   0  0  2  0  0  0  0  0  0  0  0  0
    8.1555   -1.9538    0.3592 C   0  0  1  0  0  0  0  0  0  0  0  0
    6.7390   -1.9816    0.2224 O   0  0  0  0  0  0  0  0  0  0  0  0
    8.8192   -2.1704   -1.0161 C   0  0  2  0  0  0  0  0  0  0  0  0
    9.0439    3.4335    2.3223 C   0  0  2  0  0  0  0  0  0  0  0  0
    8.3459    2.3676    1.6603 O   0  0  0  0  0  0  0  0  0  0  0  0
    8.4065    1.1395    2.4078 C   0  0  2  0  0  0  0  0  0  0  0  0
    7.7467    0.0769    1.6885 O   0  0  0  0  0  0  0  0  0  0  0  0
    7.7719    1.3179    3.7977 C   0  0  2  0  0  0  0  0  0  0  0  0
    6.3235    1.3272    3.7050 N   0  3  0  0  0  0  0  0  0  0  0  0
    8.2713    2.5697    4.5288 C   0  0  1  0  0  0  0  0  0  0  0  0
    9.5627    2.3205    5.0609 O   0  0  0  0  0  0  0  0  0  0  0  0
    8.3221    3.7913    3.6152 C   0  0  2  0  0  0  0  0  0  0  0  0
    7.0022    4.2405    3.3312 O   0  0  0  0  0  0  0  0  0  0  0  0
    9.1579    4.6506    1.4089 C   0  0  0  0  0  0  0  0  0  0  0  0
    9.8837    5.7166    2.0737 N   0  3  0  0  0  0  0  0  0  0  0  0
    7.3143   -6.3377   -2.3328 C   0  0  1  0  0  0  0  0  0  0  0  0
    7.8753   -5.3068   -1.4934 O   0  0  0  0  0  0  0  0  0  0  0  0
    9.2756   -5.5102   -1.1949 C   0  0  2  0  0  0  0  0  0  0  0  0
   10.1043   -5.4065   -2.3791 O   0  0  0  0  0  0  0  0  0  0  0  0
    9.4878   -6.8542   -0.4876 C   0  0  2  0  0  0  0  0  0  0  0  0
   10.9065   -7.1411   -0.3841 N   0  3  0  0  0  0  0  0  0  0  0  0
    8.7982   -7.9962   -1.2257 C   0  0  1  0  0  0  0  0  0  0  0  0
    8.8183   -9.1658   -0.4221 O   0  0  0  0  0  0  0  0  0  0  0  0
    7.3635   -7.6779   -1.6175 C   0  0  2  0  0  0  0  0  0  0  0  0
    6.8438   -8.6973   -2.4585 O   0  0  0  0  0  0  0  0  0  0  0  0
    5.8509   -6.0271   -2.6342 C   0  0  0  0  0  0  0  0  0  0  0  0
    5.3563   -6.8716   -3.7060 N   0  3  0  0  0  0  0  0  0  0  0  0
   11.8600   -1.9361   -4.1036 C   0  0  2  0  0  0  0  0  0  0  0  0
   10.9259   -2.7639   -4.9640 C   0  0  0  0  0  0  0  0  0  0  0  0
   10.7201   -4.1384   -4.3548 C   0  0  1  0  0  0  0  0  0  0  0  0
   10.0857   -4.0782   -2.9645 C   0  0  2  0  0  0  0  0  0  0  0  0
   10.8466   -3.0892   -2.0514 C   0  0  1  0  0  0  0  0  0  0  0  0
   11.2956   -1.7725   -2.6988 C   0  0  1  0  0  0  0  0  0  0  0  0
   12.0443   -0.6314   -4.7099 N   0  3  0  0  0  0  0  0  0  0  0  0
    9.9060   -4.9346   -5.2524 N   0  3  0  0  0  0  0  0  0  0  0  0
   10.1113   -2.8172   -0.8331 O   0  0  0  0  0  0  0  0  0  0  0  0
   12.2561   -1.1297   -1.8673 O   0  0  0  0  0  0  0  0  0  0  0  0
  1  2  1  0  0  0  0
  3  2  1  1  0  0  0
  3  4  1  0  0  0  0
  3  5  1  0  0  0  0
  4  8  1  0  0  0  0
  5  6  1  0  0  0  0
  5 12  1  1  0  0  0
  6  7  1  6  0  0  0
  6  8  1  0  0  0  0
  8 41  1  1  0  0  0
  9 10  1  0  0  0  0
  9 17  1  0  0  0  0
  9 19  1  6  0  0  0
 10 11  1  0  0  0  0
 11 12  1  6  0  0  0
 11 13  1  0  0  0  0
 13 14  1  6  0  0  0
 13 15  1  0  0  0  0
 15 16  1  6  0  0  0
 15 17  1  0  0  0  0
 17 18  1  6  0  0  0
 19 20  1  0  0  0  0
 21 22  1  0  0  0  0
 21 29  1  0  0  0  0
 21 31  1  1  0  0  0
 22 23  1  0  0  0  0
 23 24  1  6  0  0  0
 23 25  1  0  0  0  0
 25 26  1  6  0  0  0
 25 27  1  0  0  0  0
 27 28  1  1  0  0  0
 27 29  1  0  0  0  0
 29 30  1  6  0  0  0
 31 32  1  0  0  0  0
 33 34  1  0  0  0  0
 33 38  1  0  0  0  0
 33 39  1  6  0  0  0
 34 35  1  0  0  0  0
 35 36  1  0  0  0  0
 35 40  1  6  0  0  0
 36 24  1  1  0  0  0
 36 37  1  0  0  0  0
 37 38  1  0  0  0  0
 37 41  1  1  0  0  0
 38 42  1  1  0  0  0
M  CHG  6  14   1  20   1  26   1  32   1  39   1  40   1
M  END
>  <CHROM.1>
53.80294912,-56.51165339,-90.39601138,-151.46556029,-63.44336965,-179.02862171
84.18239867,-147.42283108,-79.40489550,-55.64225283,-178.34927137,167.10481257
64.36192745,-167.55489372,-168.65732148,-169.05074409,69.98762369,84.26470630
-168.04199325,96.17230115,-62.84587035,-50.66785711,8.98578781,-1.95536151
-0.51950496,-1.59187569,-0.87675881,-2.65971048

>  <Name>


>  <RI>
0

>  <Rbt.Current_Directory>
/home/itssahil/PROJECTS/Mol_Feturizer/New_Systems/rnas/1qd3

>  <Rbt.Executable>
rbdock ($Id: //depot/dev/client3/rdock/2013.1/src/exe/rbdock.cxx#4 $)

>  <Rbt.Library>
libRbt.so (2013.1, Build901 2013/11/27)

>  <Rbt.Parameter_File>
/export/apps/rDock/src/rDock_2013.1_src/data/scripts/dock_solv.prm

>  <Rbt.Receptor>
prm/pocket_docking_5.prm

>  <SCORE>
-65.561

>  <SCORE.INTER>
-42.2364

>  <SCORE.INTER.CONST>
1

>  <SCORE.INTER.POLAR>
-7.48046

>  <SCORE.INTER.ROT>
9

>  <SCORE.INTER.SOLV>
31.9037

>  <SCORE.INTER.VDW>
-23.4573

>  <SCORE.INTER.norm>
-1.00563

>  <SCORE.INTRA>
-23.3302

>  <SCORE.INTRA.DIHEDRAL>
-19.79

>  <SCORE.INTRA.DIHEDRAL.0>
40.6252

>  <SCORE.INTRA.POLAR>
0.0652336

>  <SCORE.INTRA.POLAR.0>
-1.20161

>  <SCORE.INTRA.REPUL>
-0.115675

>  <SCORE.INTRA.REPUL.0>
0.115675

>  <SCORE.INTRA.SOLV>
-10.9111

>  <SCORE.INTRA.SOLV.lig_0>
-154.895

>  <SCORE.INTRA.VDW>
-7.62304

>  <SCORE.INTRA.VDW.0>
2.2925

>  <SCORE.INTRA.norm>
-0.555481

>  <SCORE.RESTR>
0.00557431

>  <SCORE.RESTR.CAVITY>
0.00557431

>  <SCORE.RESTR.norm>
0.000132722

>  <SCORE.SYSTEM>
0

>  <SCORE.SYSTEM.CONST>
0

>  <SCORE.SYSTEM.DIHEDRAL>
0

>  <SCORE.SYSTEM.SOLV>
0

>  <SCORE.SYSTEM.norm>
0

>  <SCORE.heavy>
42

>  <SCORE.norm>
-1.56098

>  <RMSD>
9.272

$$$$

 OpenBabel11021811413D
libRbt.so/2013.1/901 2013/11/27
 42 45  0  0  0  0  0  0  0  0999 V2000
    7.7974   -0.1577   -3.5059 O   0  0  0  0  0  0  0  0  0  0  0  0
    8.3319    0.1053   -2.2164 C   0  0  0  0  0  0  0  0  0  0  0  0
    7.7713   -0.8992   -1.2089 C   0  0  1  0  0  0  0  0  0  0  0  0
    8.0724   -2.2569   -1.5982 O   0  0  0  0  0  0  0  0  0  0  0  0
    8.3427   -0.7341    0.1895 C   0  0  2  0  0  0  0  0  0  0  0  0
    8.0215   -2.0957    0.7826 C   0  0  1  0  0  0  0  0  0  0  0  0
    6.6430   -2.1550    1.1321 O   0  0  0  0  0  0  0  0  0  0  0  0
    8.3031   -3.0428   -0.4016 C   0  0  2  0  0  0  0  0  0  0  0  0
    9.3648    3.5449    1.4632 C   0  0  2  0  0  0  0  0  0  0  0  0
    8.4029    2.6017    0.9666 O   0  0  0  0  0  0  0  0  0  0  0  0
    8.6463    1.2734    1.4638 C   0  0  2  0  0  0  0  0  0  0  0  0
    7.6995    0.3417    0.9009 O   0  0  0  0  0  0  0  0  0  0  0  0
    8.5730    1.2469    3.0002 C   0  0  2  0  0  0  0  0  0  0  0  0
    7.1939    1.2896    3.4505 N   0  3  0  0  0  0  0  0  0  0  0  0
    9.3880    2.3660    3.6589 C   0  0  1  0  0  0  0  0  0  0  0  0
   10.7642    2.0214    3.6377 O   0  0  0  0  0  0  0  0  0  0  0  0
    9.1876    3.7116    2.9670 C   0  0  2  0  0  0  0  0  0  0  0  0
    7.8886    4.2165    3.2541 O   0  0  0  0  0  0  0  0  0  0  0  0
    9.2228    4.8853    0.7475 C   0  0  0  0  0  0  0  0  0  0  0  0
   10.3535    5.7429    1.0491 N   0  3  0  0  0  0  0  0  0  0  0  0
    6.8764   -5.3533   -4.1941 C   0  0  1  0  0  0  0  0  0  0  0  0
    6.9856   -5.0484   -2.7880 O   0  0  0  0  0  0  0  0  0  0  0  0
    8.0110   -5.8137   -2.1139 C   0  0  2  0  0  0  0  0  0  0  0  0
    9.3386   -5.4808   -2.5894 O   0  0  0  0  0  0  0  0  0  0  0  0
    7.7375   -7.3169   -2.2451 C   0  0  2  0  0  0  0  0  0  0  0  0
    8.8743   -8.0722   -1.7521 N   0  3  0  0  0  0  0  0  0  0  0  0
    7.4589   -7.7165   -3.6899 C   0  0  1  0  0  0  0  0  0  0  0  0
    6.9831   -9.0529   -3.7329 O   0  0  0  0  0  0  0  0  0  0  0  0
    6.4601   -6.8029   -4.3833 C   0  0  2  0  0  0  0  0  0  0  0  0
    6.3877   -7.1112   -5.7676 O   0  0  0  0  0  0  0  0  0  0  0  0
    5.8058   -4.4764   -4.8370 C   0  0  0  0  0  0  0  0  0  0  0  0
    5.9078   -4.5183   -6.2843 N   0  3  0  0  0  0  0  0  0  0  0  0
   11.6577   -1.9637   -3.1824 C   0  0  2  0  0  0  0  0  0  0  0  0
   10.6426   -2.3347   -4.2454 C   0  0  0  0  0  0  0  0  0  0  0  0
   10.2104   -3.7806   -4.0861 C   0  0  1  0  0  0  0  0  0  0  0  0
    9.5412   -4.0509   -2.7378 C   0  0  2  0  0  0  0  0  0  0  0  0
   10.4075   -3.5178   -1.5732 C   0  0  1  0  0  0  0  0  0  0  0  0
   11.0726   -2.1520   -1.7892 C   0  0  1  0  0  0  0  0  0  0  0  0
   12.0580   -0.5809   -3.3601 N   0  3  0  0  0  0  0  0  0  0  0  0
    9.3200   -4.1291   -5.1760 N   0  3  0  0  0  0  0  0  0  0  0  0
    9.6766   -3.5211   -0.3223 O   0  0  0  0  0  0  0  0  0  0  0  0
   12.0872   -1.9500   -0.8110 O   0  0  0  0  0  0  0  0  0  0  0  0
  1  2  1  0  0  0  0
  3  2  1  6  0  0  0
  3  4  1  0  0  0  0
  3  5  1  0  0  0  0
  4  8  1  0  0  0  0
  5  6  1  0  0  0  0
  5 12  1  1  0  0  0
  6  7  1  6  0  0  0
  6  8  1  0  0  0  0
  8 41  1  1  0  0  0
  9 10  1  0  0  0  0
  9 17  1  0  0  0  0
  9 19  1  6  0  0  0
 10 11  1  0  0  0  0
 11 12  1  6  0  0  0
 11 13  1  0  0  0  0
 13 14  1  6  0  0  0
 13 15  1  0  0  0  0
 15 16  1  6  0  0  0
 15 17  1  0  0  0  0
 17 18  1  6  0  0  0
 19 20  1  0  0  0  0
 21 22  1  0  0  0  0
 21 29  1  0  0  0  0
 21 31  1  1  0  0  0
 22 23  1  0  0  0  0
 23 24  1  6  0  0  0
 23 25  1  0  0  0  0
 25 26  1  6  0  0  0
 25 27  1  0  0  0  0
 27 28  1  1  0  0  0
 27 29  1  0  0  0  0
 29 30  1  6  0  0  0
 31 32  1  0  0  0  0
 33 34  1  0  0  0  0
 33 38  1  0  0  0  0
 33 39  1  6  0  0  0
 34 35  1  0  0  0  0
 35 36  1  0  0  0  0
 35 40  1  6  0  0  0
 36 24  1  1  0  0  0
 36 37  1  0  0  0  0
 37 38  1  0  0  0  0
 37 41  1  1  0  0  0
 38 42  1  1  0  0  0
M  CHG  6  14   1  20   1  26   1  32   1  39   1  40   1
M  END
>  <CHROM.1>
-173.86606594,58.08191962,-128.54812377,174.57052365,-18.96800965,-168.48098545
122.11371961,-126.22451247,-173.57429292,-175.99480759,-62.83170136,165.63214882
43.93899370,-133.93674360,95.60529437,-171.96165470,60.00950956,73.70104124
47.44193823,-178.01687973,-43.17761810,-167.07107761,8.64421670,-1.95847547
-1.24741770,-1.35512116,-0.94412741,-2.38103536

>  <Name>


>  <RI>
0

>  <Rbt.Current_Directory>
/home/itssahil/PROJECTS/Mol_Feturizer/New_Systems/rnas/1qd3

>  <Rbt.Executable>
rbdock ($Id: //depot/dev/client3/rdock/2013.1/src/exe/rbdock.cxx#4 $)

>  <Rbt.Library>
libRbt.so (2013.1, Build901 2013/11/27)

>  <Rbt.Parameter_File>
/export/apps/rDock/src/rDock_2013.1_src/data/scripts/dock_solv.prm

>  <Rbt.Receptor>
prm/pocket_docking_2.prm

>  <SCORE>
-28.8306

>  <SCORE.INTER>
-28.643

>  <SCORE.INTER.CONST>
1

>  <SCORE.INTER.POLAR>
-5.10445

>  <SCORE.INTER.ROT>
9

>  <SCORE.INTER.SOLV>
35.5922

>  <SCORE.INTER.VDW>
-23.5445

>  <SCORE.INTER.norm>
-0.681975

>  <SCORE.INTRA>
-7.87781

>  <SCORE.INTRA.DIHEDRAL>
-3.00531

>  <SCORE.INTRA.DIHEDRAL.0>
40.6252

>  <SCORE.INTRA.POLAR>
0.916223

>  <SCORE.INTRA.POLAR.0>
-1.20161

>  <SCORE.INTRA.REPUL>
-0.0764208

>  <SCORE.INTRA.REPUL.0>
0.115675

>  <SCORE.INTRA.SOLV>
-4.36289

>  <SCORE.INTRA.SOLV.lig_0>
-154.895

>  <SCORE.INTRA.VDW>
-6.92676

>  <SCORE.INTRA.VDW.0>
2.2925

>  <SCORE.INTRA.norm>
-0.187567

>  <SCORE.RESTR>
7.69013

>  <SCORE.RESTR.CAVITY>
7.69013

>  <SCORE.RESTR.norm>
0.183098

>  <SCORE.SYSTEM>
0

>  <SCORE.SYSTEM.CONST>
0

>  <SCORE.SYSTEM.DIHEDRAL>
0

>  <SCORE.SYSTEM.SOLV>
0

>  <SCORE.SYSTEM.norm>
0

>  <SCORE.heavy>
42

>  <SCORE.norm>
-0.686444

>  <RMSD>
9.274

$$$$

 OpenBabel11021811413D
libRbt.so/2013.1/901 2013/11/27
 42 45  0  0  0  0  0  0  0  0999 V2000
   12.3853   -4.2375   -1.2953 O   0  0  0  0  0  0  0  0  0  0  0  0
   13.2003   -3.8264   -2.3837 C   0  0  0  0  0  0  0  0  0  0  0  0
   12.4516   -4.0387   -3.7001 C   0  0  1  0  0  0  0  0  0  0  0  0
   12.5917   -5.3968   -4.1707 O   0  0  0  0  0  0  0  0  0  0  0  0
   10.9561   -3.7918   -3.5903 C   0  0  2  0  0  0  0  0  0  0  0  0
   10.4614   -4.5372   -4.8185 C   0  0  1  0  0  0  0  0  0  0  0  0
   10.7104   -3.7608   -5.9851 O   0  0  0  0  0  0  0  0  0  0  0  0
   11.3582   -5.7919   -4.8228 C   0  0  2  0  0  0  0  0  0  0  0  0
    7.0504   -2.9979   -3.4323 C   0  0  2  0  0  0  0  0  0  0  0  0
    8.4439   -3.2537   -3.6652 O   0  0  0  0  0  0  0  0  0  0  0  0
    9.2614   -2.1153   -3.3386 C   0  0  2  0  0  0  0  0  0  0  0  0
   10.6466   -2.3851   -3.6385 O   0  0  0  0  0  0  0  0  0  0  0  0
    9.0995   -1.7381   -1.8561 C   0  0  2  0  0  0  0  0  0  0  0  0
    9.8350   -2.6575   -1.0076 N   0  3  0  0  0  0  0  0  0  0  0  0
    7.6334   -1.6558   -1.4148 C   0  0  1  0  0  0  0  0  0  0  0  0
    7.0723   -0.4350   -1.8707 O   0  0  0  0  0  0  0  0  0  0  0  0
    6.8052   -2.8259   -1.9387 C   0  0  2  0  0  0  0  0  0  0  0  0
    7.1551   -4.0176   -1.2444 O   0  0  0  0  0  0  0  0  0  0  0  0
    6.1944   -4.1282   -3.9968 C   0  0  0  0  0  0  0  0  0  0  0  0
    6.3676   -4.2255   -5.4339 N   0  3  0  0  0  0  0  0  0  0  0  0
    5.6123   -8.0971   -4.9881 C   0  0  1  0  0  0  0  0  0  0  0  0
    6.7103   -7.1726   -4.8394 O   0  0  0  0  0  0  0  0  0  0  0  0
    7.7192   -7.6266   -3.9080 C   0  0  2  0  0  0  0  0  0  0  0  0
    8.3997   -8.8154   -4.3809 O   0  0  0  0  0  0  0  0  0  0  0  0
    7.1096   -7.8540   -2.5194 C   0  0  2  0  0  0  0  0  0  0  0  0
    8.0759   -8.5056   -1.6548 N   0  3  0  0  0  0  0  0  0  0  0  0
    5.8461   -8.7045   -2.5892 C   0  0  1  0  0  0  0  0  0  0  0  0
    5.1911   -8.6916   -1.3302 O   0  0  0  0  0  0  0  0  0  0  0  0
    4.8751   -8.2491   -3.6676 C   0  0  2  0  0  0  0  0  0  0  0  0
    3.8171   -9.1861   -3.8066 O   0  0  0  0  0  0  0  0  0  0  0  0
    4.6172   -7.5652   -6.0155 C   0  0  0  0  0  0  0  0  0  0  0  0
    5.2610   -7.3703   -7.3017 N   0  3  0  0  0  0  0  0  0  0  0  0
   11.9947   -9.4816   -6.5560 C   0  0  2  0  0  0  0  0  0  0  0  0
   10.6789   -9.6196   -7.2961 C   0  0  0  0  0  0  0  0  0  0  0  0
    9.5285   -9.7507   -6.3151 C   0  0  1  0  0  0  0  0  0  0  0  0
    9.3861   -8.5287   -5.4066 C   0  0  2  0  0  0  0  0  0  0  0  0
   10.7385   -8.1663   -4.7505 C   0  0  1  0  0  0  0  0  0  0  0  0
   11.9779   -8.2575   -5.6505 C   0  0  1  0  0  0  0  0  0  0  0  0
   13.0768   -9.3639   -7.5148 N   0  3  0  0  0  0  0  0  0  0  0  0
    8.3028   -9.9818   -7.0544 N   0  3  0  0  0  0  0  0  0  0  0  0
   10.6868   -6.8688   -4.1079 O   0  0  0  0  0  0  0  0  0  0  0  0
   13.1562   -8.2351   -4.8516 O   0  0  0  0  0  0  0  0  0  0  0  0
  1  2  1  0  0  0  0
  3  2  1  1  0  0  0
  3  4  1  0  0  0  0
  3  5  1  0  0  0  0
  4  8  1  0  0  0  0
  5  6  1  0  0  0  0
  5 12  1  6  0  0  0
  6  7  1  6  0  0  0
  6  8  1  0  0  0  0
  8 41  1  1  0  0  0
  9 10  1  0  0  0  0
  9 17  1  0  0  0  0
  9 19  1  1  0  0  0
 10 11  1  0  0  0  0
 11 12  1  1  0  0  0
 11 13  1  0  0  0  0
 13 14  1  1  0  0  0
 13 15  1  0  0  0  0
 15 16  1  6  0  0  0
 15 17  1  0  0  0  0
 17 18  1  1  0  0  0
 19 20  1  0  0  0  0
 21 22  1  0  0  0  0
 21 29  1  0  0  0  0
 21 31  1  6  0  0  0
 22 23  1  0  0  0  0
 23 24  1  6  0  0  0
 23 25  1  0  0  0  0
 25 26  1  1  0  0  0
 25 27  1  0  0  0  0
 27 28  1  1  0  0  0
 27 29  1  0  0  0  0
 29 30  1  6  0  0  0
 31 32  1  0  0  0  0
 33 34  1  0  0  0  0
 33 38  1  0  0  0  0
 33 39  1  6  0  0  0
 34 35  1  0  0  0  0
 35 36  1  0  0  0  0
 35 40  1  6  0  0  0
 36 24  1  1  0  0  0
 36 37  1  0  0  0  0
 37 38  1  0  0  0  0
 37 41  1  6  0  0  0
 38 42  1  1  0  0  0
M  CHG  6  14   1  20   1  26   1  32   1  39   1  40   1
M  END
>  <CHROM.1>
175.82330735,-84.11603160,-171.39829969,179.39554709,-107.59335652,-62.01460455
-26.26509873,161.26278824,174.06213517,-171.62079375,135.47508606,58.93436847
77.26452888,-151.62774858,78.96312777,-173.21649760,-159.95537702,-106.99707607
-173.20914724,-39.44975631,-104.55126978,-56.15549903,8.85615643,-6.05298906
-4.04293570,-1.46378898,-0.18459234,-2.66477655

>  <Name>


>  <RI>
0

>  <Rbt.Current_Directory>
/home/itssahil/PROJECTS/Mol_Feturizer/New_Systems/rnas/1qd3

>  <Rbt.Executable>
rbdock ($Id: //depot/dev/client3/rdock/2013.1/src/exe/rbdock.cxx#4 $)

>  <Rbt.Library>
libRbt.so (2013.1, Build901 2013/11/27)

>  <Rbt.Parameter_File>
/export/apps/rDock/src/rDock_2013.1_src/data/scripts/dock_solv.prm

>  <Rbt.Receptor>
prm/pocket_docking_4.prm

>  <SCORE>
-33.7418

>  <SCORE.INTER>
-19.2583

>  <SCORE.INTER.CONST>
1

>  <SCORE.INTER.POLAR>
-4.27461

>  <SCORE.INTER.ROT>
9

>  <SCORE.INTER.SOLV>
19.1122

>  <SCORE.INTER.VDW>
-14.5609

>  <SCORE.INTER.norm>
-0.458532

>  <SCORE.INTRA>
-14.5728

>  <SCORE.INTRA.DIHEDRAL>
-4.87033

>  <SCORE.INTRA.DIHEDRAL.0>
40.6252

>  <SCORE.INTRA.POLAR>
-0.93051

>  <SCORE.INTRA.POLAR.0>
-1.20161

>  <SCORE.INTRA.REPUL>
-0.115675

>  <SCORE.INTRA.REPUL.0>
0.115675

>  <SCORE.INTRA.SOLV>
-2.56172

>  <SCORE.INTRA.SOLV.lig_0>
-154.895

>  <SCORE.INTRA.VDW>
-7.11468

>  <SCORE.INTRA.VDW.0>
2.2925

>  <SCORE.INTRA.norm>
-0.346972

>  <SCORE.RESTR>
0.0893848

>  <SCORE.RESTR.CAVITY>
0.0893848

>  <SCORE.RESTR.norm>
0.00212821

>  <SCORE.SYSTEM>
0

>  <SCORE.SYSTEM.CONST>
0

>  <SCORE.SYSTEM.DIHEDRAL>
0

>  <SCORE.SYSTEM.SOLV>
0

>  <SCORE.SYSTEM.norm>
0

>  <SCORE.heavy>
42

>  <SCORE.norm>
-0.803376

>  <RMSD>
9.281

$$$$

 OpenBabel11021811413D
libRbt.so/2013.1/901 2013/11/27
 42 45  0  0  0  0  0  0  0  0999 V2000
   13.1320    2.4364    0.4184 O   0  0  0  0  0  0  0  0  0  0  0  0
   12.9173    1.1043   -0.0255 C   0  0  0  0  0  0  0  0  0  0  0  0
   11.6467    1.0399   -0.8739 C   0  0  1  0  0  0  0  0  0  0  0  0
   11.6258   -0.1451   -1.6991 O   0  0  0  0  0  0  0  0  0  0  0  0
   10.3718    0.9908   -0.0483 C   0  0  2  0  0  0  0  0  0  0  0  0
    9.3973    0.4399   -1.0758 C   0  0  1  0  0  0  0  0  0  0  0  0
    9.0154    1.4721   -1.9783 O   0  0  0  0  0  0  0  0  0  0  0  0
   10.2563   -0.6084   -1.8120 C   0  0  2  0  0  0  0  0  0  0  0  0
    7.5503    0.9180    2.7600 C   0  0  2  0  0  0  0  0  0  0  0  0
    8.7362    1.0069    1.9554 O   0  0  0  0  0  0  0  0  0  0  0  0
    8.8238    2.2662    1.2645 C   0  0  2  0  0  0  0  0  0  0  0  0
    9.9943    2.2999    0.4216 O   0  0  0  0  0  0  0  0  0  0  0  0
    8.8528    3.4338    2.2656 C   0  0  2  0  0  0  0  0  0  0  0  0
   10.1604    3.5488    2.8848 N   0  3  0  0  0  0  0  0  0  0  0  0
    7.7588    3.3339    3.3352 C   0  0  1  0  0  0  0  0  0  0  0  0
    6.5174    3.7358    2.7781 O   0  0  0  0  0  0  0  0  0  0  0  0
    7.6315    1.9226    3.9022 C   0  0  2  0  0  0  0  0  0  0  0  0
    8.7490    1.6304    4.7331 O   0  0  0  0  0  0  0  0  0  0  0  0
    7.3686   -0.4996    3.2951 C   0  0  0  0  0  0  0  0  0  0  0  0
    6.0628   -1.0155    2.9295 N   0  3  0  0  0  0  0  0  0  0  0  0
    7.4760   -5.7630   -4.9135 C   0  0  1  0  0  0  0  0  0  0  0  0
    8.0135   -4.4812   -5.3010 O   0  0  0  0  0  0  0  0  0  0  0  0
    7.9703   -3.4980   -4.2413 C   0  0  2  0  0  0  0  0  0  0  0  0
    8.8338   -3.8545   -3.1336 O   0  0  0  0  0  0  0  0  0  0  0  0
    6.5284   -3.2755   -3.7689 C   0  0  2  0  0  0  0  0  0  0  0  0
    6.5200   -2.4527   -2.5737 N   0  3  0  0  0  0  0  0  0  0  0  0
    5.8204   -4.5934   -3.4750 C   0  0  1  0  0  0  0  0  0  0  0  0
    4.4356   -4.3574   -3.2730 O   0  0  0  0  0  0  0  0  0  0  0  0
    6.0005   -5.6296   -4.5737 C   0  0  2  0  0  0  0  0  0  0  0  0
    5.4818   -6.8846   -4.1584 O   0  0  0  0  0  0  0  0  0  0  0  0
    7.5974   -6.7514   -6.0698 C   0  0  0  0  0  0  0  0  0  0  0  0
    8.3649   -6.1763   -7.1593 N   0  3  0  0  0  0  0  0  0  0  0  0
   13.0570   -3.7949   -2.6230 C   0  0  2  0  0  0  0  0  0  0  0  0
   12.5112   -3.8223   -4.0370 C   0  0  0  0  0  0  0  0  0  0  0  0
   11.0532   -4.2429   -4.0359 C   0  0  1  0  0  0  0  0  0  0  0  0
   10.1625   -3.2809   -3.2485 C   0  0  2  0  0  0  0  0  0  0  0  0
   10.7447   -3.0141   -1.8411 C   0  0  1  0  0  0  0  0  0  0  0  0
   12.2649   -2.8236   -1.7582 C   0  0  1  0  0  0  0  0  0  0  0  0
   14.4513   -3.3961   -2.6523 N   0  3  0  0  0  0  0  0  0  0  0  0
   10.5943   -4.3560   -5.4067 N   0  3  0  0  0  0  0  0  0  0  0  0
   10.0704   -1.9110   -1.1873 O   0  0  0  0  0  0  0  0  0  0  0  0
   12.6907   -2.9297   -0.4037 O   0  0  0  0  0  0  0  0  0  0  0  0
  1  2  1  0  0  0  0
  3  2  1  1  0  0  0
  3  4  1  0  0  0  0
  3  5  1  0  0  0  0
  4  8  1  0  0  0  0
  5  6  1  0  0  0  0
  5 12  1  6  0  0  0
  6  7  1  6  0  0  0
  6  8  1  0  0  0  0
  8 41  1  1  0  0  0
  9 10  1  0  0  0  0
  9 17  1  0  0  0  0
  9 19  1  1  0  0  0
 10 11  1  0  0  0  0
 11 12  1  1  0  0  0
 11 13  1  0  0  0  0
 13 14  1  1  0  0  0
 13 15  1  0  0  0  0
 15 16  1  6  0  0  0
 15 17  1  0  0  0  0
 17 18  1  1  0  0  0
 19 20  1  0  0  0  0
 21 22  1  0  0  0  0
 21 29  1  0  0  0  0
 21 31  1  6  0  0  0
 22 23  1  0  0  0  0
 23 24  1  1  0  0  0
 23 25  1  0  0  0  0
 25 26  1  1  0  0  0
 25 27  1  0  0  0  0
 27 28  1  6  0  0  0
 27 29  1  0  0  0  0
 29 30  1  1  0  0  0
 31 32  1  0  0  0  0
 33 34  1  0  0  0  0
 33 38  1  0  0  0  0
 33 39  1  6  0  0  0
 34 35  1  0  0  0  0
 35 36  1  0  0  0  0
 35 40  1  6  0  0  0
 36 24  1  1  0  0  0
 36 37  1  0  0  0  0
 37 38  1  0  0  0  0
 37 41  1  6  0  0  0
 38 42  1  1  0  0  0
M  CHG  6  14   1  20   1  26   1  32   1  39   1  40   1
M  END
>  <CHROM.1>
-174.66242793,160.67899298,-177.04501723,173.91558166,-67.50922000,-124.85126195
29.13814312,-53.94453910,175.96045884,-66.79263853,154.54281953,7.21224021
92.54413320,-88.82591299,-139.05778624,170.62101082,63.25558165,72.66674208
-50.44688848,-45.38426512,-65.77858296,80.14925196,9.21476481,-1.47431795
-1.28323466,-1.49470286,-0.18205498,-2.35666409

>  <Name>


>  <RI>
0

>  <Rbt.Current_Directory>
/home/itssahil/PROJECTS/Mol_Feturizer/New_Systems/rnas/1qd3

>  <Rbt.Executable>
rbdock ($Id: //depot/dev/client3/rdock/2013.1/src/exe/rbdock.cxx#4 $)

>  <Rbt.Library>
libRbt.so (2013.1, Build901 2013/11/27)

>  <Rbt.Parameter_File>
/export/apps/rDock/src/rDock_2013.1_src/data/scripts/dock_solv.prm

>  <Rbt.Receptor>
prm/pocket_docking_5.prm

>  <SCORE>
-43.0678

>  <SCORE.INTER>
-29.7228

>  <SCORE.INTER.CONST>
1

>  <SCORE.INTER.POLAR>
-4.77116

>  <SCORE.INTER.ROT>
9

>  <SCORE.INTER.SOLV>
38.6353

>  <SCORE.INTER.VDW>
-26.3898

>  <SCORE.INTER.norm>
-0.707687

>  <SCORE.INTRA>
-13.345

>  <SCORE.INTRA.DIHEDRAL>
-8.66991

>  <SCORE.INTRA.DIHEDRAL.0>
40.6252

>  <SCORE.INTRA.POLAR>
-0.0368228

>  <SCORE.INTRA.POLAR.0>
-1.20161

>  <SCORE.INTRA.REPUL>
-0.115675

>  <SCORE.INTRA.REPUL.0>
0.115675

>  <SCORE.INTRA.SOLV>
-5.24593

>  <SCORE.INTRA.SOLV.lig_0>
-154.895

>  <SCORE.INTRA.VDW>
-5.68351

>  <SCORE.INTRA.VDW.0>
2.2925

>  <SCORE.INTRA.norm>
-0.317738

>  <SCORE.RESTR>
0

>  <SCORE.RESTR.CAVITY>
0

>  <SCORE.RESTR.norm>
0

>  <SCORE.SYSTEM>
0

>  <SCORE.SYSTEM.CONST>
0

>  <SCORE.SYSTEM.DIHEDRAL>
0

>  <SCORE.SYSTEM.SOLV>
0

>  <SCORE.SYSTEM.norm>
0

>  <SCORE.heavy>
42

>  <SCORE.norm>
-1.02542

>  <RMSD>
9.290

$$$$

 OpenBabel11021811413D
libRbt.so/2013.1/901 2013/11/27
 42 45  0  0  0  0  0  0  0  0999 V2000
   10.3482    2.3712   -0.1219 O   0  0  0  0  0  0  0  0  0  0  0  0
   10.5739    0.9750   -0.2536 C   0  0  0  0  0  0  0  0  0  0  0  0
    9.2885    0.2835   -0.7098 C   0  0  1  0  0  0  0  0  0  0  0  0
    9.5755   -0.8690   -1.5314 O   0  0  0  0  0  0  0  0  0  0  0  0
    8.4389   -0.2304    0.4406 C   0  0  2  0  0  0  0  0  0  0  0  0
    7.5747   -1.2474   -0.2860 C   0  0  1  0  0  0  0  0  0  0  0  0
    6.5501   -0.5769   -1.0116 O   0  0  0  0  0  0  0  0  0  0  0  0
    8.5781   -1.8879   -1.2667 C   0  0  2  0  0  0  0  0  0  0  0  0
    9.2198    3.9404    2.1430 C   0  0  2  0  0  0  0  0  0  0  0  0
    8.3888    3.0533    1.3788 O   0  0  0  0  0  0  0  0  0  0  0  0
    8.4606    1.6997    1.8620 C   0  0  2  0  0  0  0  0  0  0  0  0
    7.6613    0.8258    1.0379 O   0  0  0  0  0  0  0  0  0  0  0  0
    7.9996    1.6212    3.3275 C   0  0  2  0  0  0  0  0  0  0  0  0
    6.5532    1.7010    3.4172 N   0  3  0  0  0  0  0  0  0  0  0  0
    8.6525    2.6839    4.2193 C   0  0  1  0  0  0  0  0  0  0  0  0
    9.9787    2.2874    4.5304 O   0  0  0  0  0  0  0  0  0  0  0  0
    8.6720    4.0600    3.5594 C   0  0  2  0  0  0  0  0  0  0  0  0
    7.3575    4.6040    3.5319 O   0  0  0  0  0  0  0  0  0  0  0  0
    9.3017    5.3098    1.4747 C   0  0  0  0  0  0  0  0  0  0  0  0
   10.3360    5.3159    0.4573 N   0  3  0  0  0  0  0  0  0  0  0  0
    6.1468   -5.9465   -3.5854 C   0  0  1  0  0  0  0  0  0  0  0  0
    6.4495   -4.9020   -2.6369 O   0  0  0  0  0  0  0  0  0  0  0  0
    7.2971   -5.3424   -1.5511 C   0  0  2  0  0  0  0  0  0  0  0  0
    8.6205   -5.7128   -2.0105 O   0  0  0  0  0  0  0  0  0  0  0  0
    6.6365   -6.4932   -0.7824 C   0  0  2  0  0  0  0  0  0  0  0  0
    7.5786   -7.0627    0.1631 N   0  3  0  0  0  0  0  0  0  0  0  0
    6.1433   -7.5895   -1.7202 C   0  0  1  0  0  0  0  0  0  0  0  0
    5.3382   -8.5091   -0.9989 O   0  0  0  0  0  0  0  0  0  0  0  0
    5.3576   -7.0548   -2.9077 C   0  0  2  0  0  0  0  0  0  0  0  0
    5.0915   -8.0981   -3.8335 O   0  0  0  0  0  0  0  0  0  0  0  0
    5.2870   -5.3911   -4.7172 C   0  0  0  0  0  0  0  0  0  0  0  0
    5.0397   -3.9736   -4.5269 N   0  3  0  0  0  0  0  0  0  0  0  0
   12.1083   -3.5029   -3.0356 C   0  0  2  0  0  0  0  0  0  0  0  0
   11.2683   -4.0704   -4.1627 C   0  0  0  0  0  0  0  0  0  0  0  0
   10.3269   -5.1388   -3.6381 C   0  0  1  0  0  0  0  0  0  0  0  0
    9.3445   -4.5997   -2.5974 C   0  0  2  0  0  0  0  0  0  0  0  0
   10.0858   -3.8121   -1.4924 C   0  0  1  0  0  0  0  0  0  0  0  0
   11.2226   -2.8926   -1.9578 C   0  0  1  0  0  0  0  0  0  0  0  0
   13.0019   -2.4897   -3.5637 N   0  3  0  0  0  0  0  0  0  0  0  0
    9.6141   -5.7283   -4.7546 N   0  3  0  0  0  0  0  0  0  0  0  0
    9.1622   -3.0738   -0.6553 O   0  0  0  0  0  0  0  0  0  0  0  0
   12.0194   -2.5088   -0.8420 O   0  0  0  0  0  0  0  0  0  0  0  0
  1  2  1  0  0  0  0
  3  2  1  1  0  0  0
  3  4  1  0  0  0  0
  3  5  1  0  0  0  0
  4  8  1  0  0  0  0
  5  6  1  0  0  0  0
  5 12  1  6  0  0  0
  6  7  1  6  0  0  0
  6  8  1  0  0  0  0
  8 41  1  1  0  0  0
  9 10  1  0  0  0  0
  9 17  1  0  0  0  0
  9 19  1  6  0  0  0
 10 11  1  0  0  0  0
 11 12  1  6  0  0  0
 11 13  1  0  0  0  0
 13 14  1  6  0  0  0
 13 15  1  0  0  0  0
 15 16  1  6  0  0  0
 15 17  1  0  0  0  0
 17 18  1  6  0  0  0
 19 20  1  0  0  0  0
 21 22  1  0  0  0  0
 21 29  1  0  0  0  0
 21 31  1  6  0  0  0
 22 23  1  0  0  0  0
 23 24  1  6  0  0  0
 23 25  1  0  0  0  0
 25 26  1  1  0  0  0
 25 27  1  0  0  0  0
 27 28  1  1  0  0  0
 27 29  1  0  0  0  0
 29 30  1  6  0  0  0
 31 32  1  0  0  0  0
 33 34  1  0  0  0  0
 33 38  1  0  0  0  0
 33 39  1  6  0  0  0
 34 35  1  0  0  0  0
 35 36  1  0  0  0  0
 35 40  1  6  0  0  0
 36 24  1  1  0  0  0
 36 37  1  0  0  0  0
 37 38  1  0  0  0  0
 37 41  1  6  0  0  0
 38 42  1  1  0  0  0
M  CHG  6  14   1  20   1  26   1  32   1  39   1  40   1
M  END
>  <CHROM.1>
167.73003787,148.28696132,-74.99637290,-115.64274024,-65.66905919,-84.68700901
120.80740485,-31.94838977,69.07344987,-178.50264309,43.77628820,0.91482261
62.83884817,-151.55954410,-41.62991291,-61.00688631,-173.15428932,-97.28000559
173.77282622,77.54273175,-73.80555462,-64.25605423,8.48183874,-1.83896645
-0.70187447,-1.39981894,-0.46644875,-2.56726087

>  <Name>


>  <RI>
0

>  <Rbt.Current_Directory>
/home/itssahil/PROJECTS/Mol_Feturizer/New_Systems/rnas/1qd3

>  <Rbt.Executable>
rbdock ($Id: //depot/dev/client3/rdock/2013.1/src/exe/rbdock.cxx#4 $)

>  <Rbt.Library>
libRbt.so (2013.1, Build901 2013/11/27)

>  <Rbt.Parameter_File>
/export/apps/rDock/src/rDock_2013.1_src/data/scripts/dock_solv.prm

>  <Rbt.Receptor>
prm/pocket_docking_2.prm

>  <SCORE>
-37.9945

>  <SCORE.INTER>
-31.1962

>  <SCORE.INTER.CONST>
1

>  <SCORE.INTER.POLAR>
-4.8204

>  <SCORE.INTER.ROT>
9

>  <SCORE.INTER.SOLV>
35.3547

>  <SCORE.INTER.VDW>
-26.1144

>  <SCORE.INTER.norm>
-0.742767

>  <SCORE.INTRA>
-14.6977

>  <SCORE.INTRA.DIHEDRAL>
-3.30061

>  <SCORE.INTRA.DIHEDRAL.0>
40.6252

>  <SCORE.INTRA.POLAR>
-0.245574

>  <SCORE.INTRA.POLAR.0>
-1.20161

>  <SCORE.INTRA.REPUL>
-0.115675

>  <SCORE.INTRA.REPUL.0>
0.115675

>  <SCORE.INTRA.SOLV>
-8.81081

>  <SCORE.INTRA.SOLV.lig_0>
-154.895

>  <SCORE.INTRA.VDW>
-7.22865

>  <SCORE.INTRA.VDW.0>
2.2925

>  <SCORE.INTRA.norm>
-0.349945

>  <SCORE.RESTR>
7.89941

>  <SCORE.RESTR.CAVITY>
7.89941

>  <SCORE.RESTR.norm>
0.188081

>  <SCORE.SYSTEM>
0

>  <SCORE.SYSTEM.CONST>
0

>  <SCORE.SYSTEM.DIHEDRAL>
0

>  <SCORE.SYSTEM.SOLV>
0

>  <SCORE.SYSTEM.norm>
0

>  <SCORE.heavy>
42

>  <SCORE.norm>
-0.904631

>  <RMSD>
9.295

$$$$

 OpenBabel11021811413D
libRbt.so/2013.1/901 2013/11/27
 42 45  0  0  0  0  0  0  0  0999 V2000
    9.2362    3.5219    0.4197 O   0  0  0  0  0  0  0  0  0  0  0  0
    9.8866    2.4366   -0.2258 C   0  0  0  0  0  0  0  0  0  0  0  0
    8.8529    1.3939   -0.6534 C   0  0  1  0  0  0  0  0  0  0  0  0
    9.4294    0.4205   -1.5511 O   0  0  0  0  0  0  0  0  0  0  0  0
    8.2829    0.5976    0.5086 C   0  0  2  0  0  0  0  0  0  0  0  0
    7.7321   -0.6118   -0.2281 C   0  0  1  0  0  0  0  0  0  0  0  0
    6.5043   -0.2706   -0.8622 O   0  0  0  0  0  0  0  0  0  0  0  0
    8.8180   -0.8688   -1.2926 C   0  0  2  0  0  0  0  0  0  0  0  0
    7.3434    3.7223    3.9663 C   0  0  2  0  0  0  0  0  0  0  0  0
    6.8512    3.0202    2.8146 O   0  0  0  0  0  0  0  0  0  0  0  0
    7.7517    1.9797    2.3938 C   0  0  2  0  0  0  0  0  0  0  0  0
    7.2565    1.3339    1.2024 O   0  0  0  0  0  0  0  0  0  0  0  0
    7.9515    0.9476    3.5170 C   0  0  2  0  0  0  0  0  0  0  0  0
    6.7998    0.0706    3.6212 N   0  3  0  0  0  0  0  0  0  0  0  0
    8.2617    1.5905    4.8739 C   0  0  1  0  0  0  0  0  0  0  0  0
    9.6189    2.0028    4.9005 O   0  0  0  0  0  0  0  0  0  0  0  0
    7.3588    2.7856    5.1676 C   0  0  2  0  0  0  0  0  0  0  0  0
    6.0395    2.3380    5.4567 O   0  0  0  0  0  0  0  0  0  0  0  0
    6.4902    4.9554    4.2498 C   0  0  0  0  0  0  0  0  0  0  0  0
    5.6051    4.7116    5.3732 N   0  3  0  0  0  0  0  0  0  0  0  0
    6.7752   -5.3101   -3.0749 C   0  0  1  0  0  0  0  0  0  0  0  0
    7.0817   -4.1315   -2.3008 O   0  0  0  0  0  0  0  0  0  0  0  0
    8.2314   -4.2953   -1.4390 C   0  0  2  0  0  0  0  0  0  0  0  0
    9.4551   -4.4760   -2.1937 O   0  0  0  0  0  0  0  0  0  0  0  0
    8.0108   -5.4532   -0.4580 C   0  0  2  0  0  0  0  0  0  0  0  0
    9.2427   -5.7421    0.2525 N   0  3  0  0  0  0  0  0  0  0  0  0
    7.5357   -6.7147   -1.1704 C   0  0  1  0  0  0  0  0  0  0  0  0
    7.1209   -7.6768   -0.2130 O   0  0  0  0  0  0  0  0  0  0  0  0
    6.4024   -6.4588   -2.1519 C   0  0  2  0  0  0  0  0  0  0  0  0
    6.1357   -7.6274   -2.9134 O   0  0  0  0  0  0  0  0  0  0  0  0
    5.5804   -5.0409   -3.9852 C   0  0  0  0  0  0  0  0  0  0  0  0
    4.5592   -4.2851   -3.2832 N   0  3  0  0  0  0  0  0  0  0  0  0
   12.4167   -1.7296   -3.5300 C   0  0  2  0  0  0  0  0  0  0  0  0
   11.5265   -2.3791   -4.5712 C   0  0  0  0  0  0  0  0  0  0  0  0
   10.8289   -3.5950   -3.9901 C   0  0  1  0  0  0  0  0  0  0  0  0
    9.9249   -3.2468   -2.8067 C   0  0  2  0  0  0  0  0  0  0  0  0
   10.6832   -2.3940   -1.7633 C   0  0  1  0  0  0  0  0  0  0  0  0
   11.6020   -1.2976   -2.3183 C   0  0  1  0  0  0  0  0  0  0  0  0
   13.0751   -0.5754   -4.1114 N   0  3  0  0  0  0  0  0  0  0  0  0
   10.0681   -4.2474   -5.0380 N   0  3  0  0  0  0  0  0  0  0  0  0
    9.7809   -1.8331   -0.7783 O   0  0  0  0  0  0  0  0  0  0  0  0
   12.4751   -0.8358   -1.2927 O   0  0  0  0  0  0  0  0  0  0  0  0
  1  2  1  0  0  0  0
  3  2  1  1  0  0  0
  3  4  1  0  0  0  0
  3  5  1  0  0  0  0
  4  8  1  0  0  0  0
  5  6  1  0  0  0  0
  5 12  1  6  0  0  0
  6  7  1  6  0  0  0
  6  8  1  0  0  0  0
  8 41  1  1  0  0  0
  9 10  1  0  0  0  0
  9 17  1  0  0  0  0
  9 19  1  1  0  0  0
 10 11  1  0  0  0  0
 11 12  1  6  0  0  0
 11 13  1  0  0  0  0
 13 14  1  1  0  0  0
 13 15  1  0  0  0  0
 15 16  1  6  0  0  0
 15 17  1  0  0  0  0
 17 18  1  6  0  0  0
 19 20  1  0  0  0  0
 21 22  1  0  0  0  0
 21 29  1  0  0  0  0
 21 31  1  6  0  0  0
 22 23  1  0  0  0  0
 23 24  1  6  0  0  0
 23 25  1  0  0  0  0
 25 26  1  6  0  0  0
 25 27  1  0  0  0  0
 27 28  1  1  0  0  0
 27 29  1  0  0  0  0
 29 30  1  6  0  0  0
 31 32  1  0  0  0  0
 33 34  1  0  0  0  0
 33 38  1  0  0  0  0
 33 39  1  6  0  0  0
 34 35  1  0  0  0  0
 35 36  1  0  0  0  0
 35 40  1  6  0  0  0
 36 24  1  1  0  0  0
 36 37  1  0  0  0  0
 37 38  1  0  0  0  0
 37 41  1  1  0  0  0
 38 42  1  1  0  0  0
M  CHG  6  14   1  20   1  26   1  32   1  39   1  40   1
M  END
>  <CHROM.1>
-174.14230385,167.92569335,-98.55307302,66.54787368,-76.26411467,103.63590879
161.75216921,53.51206431,-139.76010717,46.02977122,-109.25159396,-41.65640595
73.99357127,-157.36118051,-37.96946159,48.71914088,-65.45580934,-177.16653164
164.15672789,-154.45805108,-65.07790469,-54.93481916,8.41327806,-1.26348562
-0.20455936,-1.70812945,-0.66976586,-2.52661381

>  <Name>


>  <RI>
0

>  <Rbt.Current_Directory>
/home/itssahil/PROJECTS/Mol_Feturizer/New_Systems/rnas/1qd3

>  <Rbt.Executable>
rbdock ($Id: //depot/dev/client3/rdock/2013.1/src/exe/rbdock.cxx#4 $)

>  <Rbt.Library>
libRbt.so (2013.1, Build901 2013/11/27)

>  <Rbt.Parameter_File>
/export/apps/rDock/src/rDock_2013.1_src/data/scripts/dock_solv.prm

>  <Rbt.Receptor>
prm/pocket_docking_3.prm

>  <SCORE>
-63.5857

>  <SCORE.INTER>
-54.279

>  <SCORE.INTER.CONST>
1

>  <SCORE.INTER.POLAR>
-7.86854

>  <SCORE.INTER.ROT>
9

>  <SCORE.INTER.SOLV>
48.4604

>  <SCORE.INTER.VDW>
-35.711

>  <SCORE.INTER.norm>
-1.29236

>  <SCORE.INTRA>
-10.1049

>  <SCORE.INTRA.DIHEDRAL>
-9.28246

>  <SCORE.INTRA.DIHEDRAL.0>
40.6252

>  <SCORE.INTRA.POLAR>
0.59665

>  <SCORE.INTRA.POLAR.0>
-1.20161

>  <SCORE.INTRA.REPUL>
-0.110515

>  <SCORE.INTRA.REPUL.0>
0.115675

>  <SCORE.INTRA.SOLV>
-7.81521

>  <SCORE.INTRA.SOLV.lig_0>
-154.895

>  <SCORE.INTRA.VDW>
-3.03212

>  <SCORE.INTRA.VDW.0>
2.2925

>  <SCORE.INTRA.norm>
-0.240593

>  <SCORE.RESTR>
0.798278

>  <SCORE.RESTR.CAVITY>
0.798278

>  <SCORE.RESTR.norm>
0.0190066

>  <SCORE.SYSTEM>
0

>  <SCORE.SYSTEM.CONST>
0

>  <SCORE.SYSTEM.DIHEDRAL>
0

>  <SCORE.SYSTEM.SOLV>
0

>  <SCORE.SYSTEM.norm>
0

>  <SCORE.heavy>
42

>  <SCORE.norm>
-1.51394

>  <RMSD>
9.298

$$$$

 OpenBabel11021811413D
libRbt.so/2013.1/901 2013/11/27
 42 45  0  0  0  0  0  0  0  0999 V2000
   11.3562   -0.5636   -4.1010 O   0  0  0  0  0  0  0  0  0  0  0  0
   11.1337   -0.6265   -2.6995 C   0  0  0  0  0  0  0  0  0  0  0  0
    9.7162   -0.1511   -2.3784 C   0  0  1  0  0  0  0  0  0  0  0  0
    8.7264   -0.9586   -3.0521 O   0  0  0  0  0  0  0  0  0  0  0  0
    9.3747   -0.2273   -0.8996 C   0  0  2  0  0  0  0  0  0  0  0  0
    7.8568   -0.1968   -0.9639 C   0  0  1  0  0  0  0  0  0  0  0  0
    7.4124    1.1334   -1.2068 O   0  0  0  0  0  0  0  0  0  0  0  0
    7.5639   -1.0801   -2.1938 C   0  0  2  0  0  0  0  0  0  0  0  0
    7.8064    1.1485    2.7991 C   0  0  2  0  0  0  0  0  0  0  0  0
    8.7945    0.6295    1.8959 O   0  0  0  0  0  0  0  0  0  0  0  0
    8.9619    1.4712    0.7408 C   0  0  2  0  0  0  0  0  0  0  0  0
    9.9173    0.8923   -0.1723 O   0  0  0  0  0  0  0  0  0  0  0  0
    9.4092    2.8827    1.1579 C   0  0  2  0  0  0  0  0  0  0  0  0
   10.8160    2.8926    1.5149 N   0  3  0  0  0  0  0  0  0  0  0  0
    8.5627    3.4688    2.2940 C   0  0  1  0  0  0  0  0  0  0  0  0
    7.3258    3.9271    1.7715 O   0  0  0  0  0  0  0  0  0  0  0  0
    8.3038    2.4546    3.4049 C   0  0  2  0  0  0  0  0  0  0  0  0
    9.4985    2.2282    4.1437 O   0  0  0  0  0  0  0  0  0  0  0  0
    7.4874    0.1303    3.8901 C   0  0  0  0  0  0  0  0  0  0  0  0
    6.7846    0.7675    4.9878 N   0  3  0  0  0  0  0  0  0  0  0  0
    7.0167   -6.3626   -2.7717 C   0  0  1  0  0  0  0  0  0  0  0  0
    8.1227   -6.1767   -3.6796 O   0  0  0  0  0  0  0  0  0  0  0  0
    7.8085   -5.3124   -4.7957 C   0  0  2  0  0  0  0  0  0  0  0  0
    7.5458   -3.9518   -4.3723 O   0  0  0  0  0  0  0  0  0  0  0  0
    6.6329   -5.8772   -5.6023 C   0  0  2  0  0  0  0  0  0  0  0  0
    6.1934   -4.9041   -6.5851 N   0  3  0  0  0  0  0  0  0  0  0  0
    5.4579   -6.2481   -4.7044 C   0  0  1  0  0  0  0  0  0  0  0  0
    4.4967   -6.9774   -5.4517 O   0  0  0  0  0  0  0  0  0  0  0  0
    5.8677   -7.0576   -3.4836 C   0  0  2  0  0  0  0  0  0  0  0  0
    4.7671   -7.2077   -2.5988 O   0  0  0  0  0  0  0  0  0  0  0  0
    7.4423   -7.2489   -1.6046 C   0  0  0  0  0  0  0  0  0  0  0  0
    7.9163   -8.5350   -2.0820 N   0  3  0  0  0  0  0  0  0  0  0  0
   10.8418   -3.9780   -1.6825 C   0  0  2  0  0  0  0  0  0  0  0  0
   11.1212   -3.7103   -3.1483 C   0  0  0  0  0  0  0  0  0  0  0  0
    9.9375   -4.1296   -4.0002 C   0  0  1  0  0  0  0  0  0  0  0  0
    8.6616   -3.3596   -3.6568 C   0  0  2  0  0  0  0  0  0  0  0  0
    8.3885   -3.3916   -2.1353 C   0  0  1  0  0  0  0  0  0  0  0  0
    9.6078   -3.2146   -1.2208 C   0  0  1  0  0  0  0  0  0  0  0  0
   11.9889   -3.5744   -0.8918 N   0  3  0  0  0  0  0  0  0  0  0  0
   10.2778   -3.9543   -5.3987 N   0  3  0  0  0  0  0  0  0  0  0  0
    7.3486   -2.4544   -1.7620 O   0  0  0  0  0  0  0  0  0  0  0  0
    9.2737   -3.6009    0.1082 O   0  0  0  0  0  0  0  0  0  0  0  0
  1  2  1  0  0  0  0
  3  2  1  1  0  0  0
  3  4  1  0  0  0  0
  3  5  1  0  0  0  0
  4  8  1  0  0  0  0
  5  6  1  0  0  0  0
  5 12  1  1  0  0  0
  6  7  1  6  0  0  0
  6  8  1  0  0  0  0
  8 41  1  1  0  0  0
  9 10  1  0  0  0  0
  9 17  1  0  0  0  0
  9 19  1  1  0  0  0
 10 11  1  0  0  0  0
 11 12  1  6  0  0  0
 11 13  1  0  0  0  0
 13 14  1  1  0  0  0
 13 15  1  0  0  0  0
 15 16  1  6  0  0  0
 15 17  1  0  0  0  0
 17 18  1  6  0  0  0
 19 20  1  0  0  0  0
 21 22  1  0  0  0  0
 21 29  1  0  0  0  0
 21 31  1  1  0  0  0
 22 23  1  0  0  0  0
 23 24  1  1  0  0  0
 23 25  1  0  0  0  0
 25 26  1  6  0  0  0
 25 27  1  0  0  0  0
 27 28  1  6  0  0  0
 27 29  1  0  0  0  0
 29 30  1  1  0  0  0
 31 32  1  0  0  0  0
 33 34  1  0  0  0  0
 33 38  1  0  0  0  0
 33 39  1  1  0  0  0
 34 35  1  0  0  0  0
 35 36  1  0  0  0  0
 35 40  1  6  0  0  0
 36 24  1  6  0  0  0
 36 37  1  0  0  0  0
 37 38  1  0  0  0  0
 37 41  1  6  0  0  0
 38 42  1  1  0  0  0
M  CHG  6  14   1  20   1  26   1  32   1  39   1  40   1
M  END
>  <CHROM.1>
78.63472595,59.02252999,134.66530792,-170.75189490,6.44905227,164.49551361
74.80416405,-164.52877949,-174.84116375,-170.27955573,-66.33720546,-58.10183802
58.30366337,20.63784667,169.18332749,-58.47506848,-63.75702153,-173.69095180
-59.74257181,87.05600454,-53.98808904,63.18280279,8.41732446,-2.16356699
-1.42904601,-1.35808524,-0.75033104,-2.32776755

>  <Name>


>  <RI>
0

>  <Rbt.Current_Directory>
/home/itssahil/PROJECTS/Mol_Feturizer/New_Systems/rnas/1qd3

>  <Rbt.Executable>
rbdock ($Id: //depot/dev/client3/rdock/2013.1/src/exe/rbdock.cxx#4 $)

>  <Rbt.Library>
libRbt.so (2013.1, Build901 2013/11/27)

>  <Rbt.Parameter_File>
/export/apps/rDock/src/rDock_2013.1_src/data/scripts/dock_solv.prm

>  <Rbt.Receptor>
prm/pocket_docking_2.prm

>  <SCORE>
-33.5292

>  <SCORE.INTER>
-34.9248

>  <SCORE.INTER.CONST>
1

>  <SCORE.INTER.POLAR>
-5.32651

>  <SCORE.INTER.ROT>
9

>  <SCORE.INTER.SOLV>
38.5297

>  <SCORE.INTER.VDW>
-27.9714

>  <SCORE.INTER.norm>
-0.831542

>  <SCORE.INTRA>
-3.23725

>  <SCORE.INTRA.DIHEDRAL>
-13.8652

>  <SCORE.INTRA.DIHEDRAL.0>
40.6252

>  <SCORE.INTRA.POLAR>
1.18558

>  <SCORE.INTRA.POLAR.0>
-1.20161

>  <SCORE.INTRA.REPUL>
-0.115675

>  <SCORE.INTRA.REPUL.0>
0.115675

>  <SCORE.INTRA.SOLV>
-6.72801

>  <SCORE.INTRA.SOLV.lig_0>
-154.895

>  <SCORE.INTRA.VDW>
3.60676

>  <SCORE.INTRA.VDW.0>
2.2925

>  <SCORE.INTRA.norm>
-0.0770774

>  <SCORE.RESTR>
4.63284

>  <SCORE.RESTR.CAVITY>
4.63284

>  <SCORE.RESTR.norm>
0.110306

>  <SCORE.SYSTEM>
0

>  <SCORE.SYSTEM.CONST>
0

>  <SCORE.SYSTEM.DIHEDRAL>
0

>  <SCORE.SYSTEM.SOLV>
0

>  <SCORE.SYSTEM.norm>
0

>  <SCORE.heavy>
42

>  <SCORE.norm>
-0.798314

>  <RMSD>
9.304

$$$$

 OpenBabel11021811413D
libRbt.so/2013.1/901 2013/11/27
 42 45  0  0  0  0  0  0  0  0999 V2000
   10.2711    0.7005   -0.1075 O   0  0  0  0  0  0  0  0  0  0  0  0
    9.0147    0.8809   -0.7452 C   0  0  0  0  0  0  0  0  0  0  0  0
    8.1132   -0.3215   -0.4622 C   0  0  1  0  0  0  0  0  0  0  0  0
    8.4317   -1.4320   -1.3287 O   0  0  0  0  0  0  0  0  0  0  0  0
    8.2437   -0.8530    0.9555 C   0  0  2  0  0  0  0  0  0  0  0  0
    7.6728   -2.2503    0.7812 C   0  0  1  0  0  0  0  0  0  0  0  0
    6.2523   -2.1851    0.7186 O   0  0  0  0  0  0  0  0  0  0  0  0
    8.2393   -2.6660   -0.5917 C   0  0  2  0  0  0  0  0  0  0  0  0
    9.1684    3.1690    2.1771 C   0  0  2  0  0  0  0  0  0  0  0  0
    8.3414    2.1310    1.6293 O   0  0  0  0  0  0  0  0  0  0  0  0
    8.2741    0.9838    2.4954 C   0  0  2  0  0  0  0  0  0  0  0  0
    7.4845   -0.0610    1.8901 O   0  0  0  0  0  0  0  0  0  0  0  0
    7.6887    1.3708    3.8644 C   0  0  2  0  0  0  0  0  0  0  0  0
    6.2495    1.5382    3.7801 N   0  3  0  0  0  0  0  0  0  0  0  0
    8.3409    2.6223    4.4635 C   0  0  1  0  0  0  0  0  0  0  0  0
    9.6044    2.2791    5.0100 O   0  0  0  0  0  0  0  0  0  0  0  0
    8.5152    3.7338    3.4321 C   0  0  2  0  0  0  0  0  0  0  0  0
    7.2506    4.3023    3.1126 O   0  0  0  0  0  0  0  0  0  0  0  0
    9.4049    4.2687    1.1458 C   0  0  0  0  0  0  0  0  0  0  0  0
   10.4091    3.8541    0.1843 N   0  3  0  0  0  0  0  0  0  0  0  0
    6.6817   -6.3819   -4.5187 C   0  0  1  0  0  0  0  0  0  0  0  0
    6.5135   -5.1636   -3.7639 O   0  0  0  0  0  0  0  0  0  0  0  0
    7.0873   -5.2275   -2.4380 C   0  0  2  0  0  0  0  0  0  0  0  0
    8.5305   -5.3513   -2.4758 O   0  0  0  0  0  0  0  0  0  0  0  0
    6.4556   -6.3676   -1.6301 C   0  0  2  0  0  0  0  0  0  0  0  0
    7.1811   -6.5554   -0.3875 N   0  3  0  0  0  0  0  0  0  0  0  0
    6.4504   -7.6775   -2.4101 C   0  0  1  0  0  0  0  0  0  0  0  0
    5.6542   -8.6356   -1.7302 O   0  0  0  0  0  0  0  0  0  0  0  0
    5.9466   -7.5244   -3.8370 C   0  0  2  0  0  0  0  0  0  0  0  0
    6.1427   -8.7298   -4.5617 O   0  0  0  0  0  0  0  0  0  0  0  0
    6.0886   -6.2173   -5.9151 C   0  0  0  0  0  0  0  0  0  0  0  0
    6.1949   -4.8397   -6.3596 N   0  3  0  0  0  0  0  0  0  0  0  0
   11.8866   -2.8774   -3.3220 C   0  0  2  0  0  0  0  0  0  0  0  0
   10.8096   -3.0029   -4.3814 C   0  0  0  0  0  0  0  0  0  0  0  0
    9.9219   -4.2005   -4.0976 C   0  0  1  0  0  0  0  0  0  0  0  0
    9.1963   -4.0919   -2.7558 C   0  0  2  0  0  0  0  0  0  0  0  0
   10.1863   -3.7546   -1.6170 C   0  0  1  0  0  0  0  0  0  0  0  0
   11.2674   -2.7149   -1.9404 C   0  0  1  0  0  0  0  0  0  0  0  0
   12.7234   -1.7305   -3.6190 N   0  3  0  0  0  0  0  0  0  0  0  0
    8.9701   -4.3489   -5.1813 N   0  3  0  0  0  0  0  0  0  0  0  0
    9.4914   -3.3854   -0.4006 O   0  0  0  0  0  0  0  0  0  0  0  0
   12.2882   -2.7567   -0.9488 O   0  0  0  0  0  0  0  0  0  0  0  0
  1  2  1  0  0  0  0
  3  2  1  1  0  0  0
  3  4  1  0  0  0  0
  3  5  1  0  0  0  0
  4  8  1  0  0  0  0
  5  6  1  0  0  0  0
  5 12  1  1  0  0  0
  6  7  1  6  0  0  0
  6  8  1  0  0  0  0
  8 41  1  1  0  0  0
  9 10  1  0  0  0  0
  9 17  1  0  0  0  0
  9 19  1  6  0  0  0
 10 11  1  0  0  0  0
 11 12  1  6  0  0  0
 11 13  1  0  0  0  0
 13 14  1  6  0  0  0
 13 15  1  0  0  0  0
 15 16  1  6  0  0  0
 15 17  1  0  0  0  0
 17 18  1  6  0  0  0
 19 20  1  0  0  0  0
 21 22  1  0  0  0  0
 21 29  1  0  0  0  0
 21 31  1  6  0  0  0
 22 23  1  0  0  0  0
 23 24  1  6  0  0  0
 23 25  1  0  0  0  0
 25 26  1  1  0  0  0
 25 27  1  0  0  0  0
 27 28  1  1  0  0  0
 27 29  1  0  0  0  0
 29 30  1  6  0  0  0
 31 32  1  0  0  0  0
 33 34  1  0  0  0  0
 33 38  1  0  0  0  0
 33 39  1  6  0  0  0
 34 35  1  0  0  0  0
 35 36  1  0  0  0  0
 35 40  1  6  0  0  0
 36 24  1  1  0  0  0
 36 37  1  0  0  0  0
 37 38  1  0  0  0  0
 37 41  1  1  0  0  0
 38 42  1  1  0  0  0
M  CHG  6  14   1  20   1  26   1  32   1  39   1  40   1
M  END
>  <CHROM.1>
61.74791870,-80.38506484,-92.98828949,-64.53134515,-58.90912327,-77.89463278
82.66101485,94.07278106,-76.11220870,50.43235917,29.12556283,30.92342084
77.93706524,-115.51401700,82.82144204,-64.88089437,56.72740601,-179.59836738
-68.09541759,-111.82630609,-34.08646723,-174.90595118,8.39171945,-2.12298699
-0.85354720,-1.41789034,-0.66260158,-2.42043249

>  <Name>


>  <RI>
0

>  <Rbt.Current_Directory>
/home/itssahil/PROJECTS/Mol_Feturizer/New_Systems/rnas/1qd3

>  <Rbt.Executable>
rbdock ($Id: //depot/dev/client3/rdock/2013.1/src/exe/rbdock.cxx#4 $)

>  <Rbt.Library>
libRbt.so (2013.1, Build901 2013/11/27)

>  <Rbt.Parameter_File>
/export/apps/rDock/src/rDock_2013.1_src/data/scripts/dock_solv.prm

>  <Rbt.Receptor>
prm/pocket_docking_3.prm

>  <SCORE>
-58.3396

>  <SCORE.INTER>
-43.9044

>  <SCORE.INTER.CONST>
1

>  <SCORE.INTER.POLAR>
-7.97656

>  <SCORE.INTER.ROT>
9

>  <SCORE.INTER.SOLV>
39.7912

>  <SCORE.INTER.VDW>
-25.5448

>  <SCORE.INTER.norm>
-1.04534

>  <SCORE.INTRA>
-14.6277

>  <SCORE.INTRA.DIHEDRAL>
-7.69025

>  <SCORE.INTRA.DIHEDRAL.0>
40.6252

>  <SCORE.INTRA.POLAR>
-0.444105

>  <SCORE.INTRA.POLAR.0>
-1.20161

>  <SCORE.INTRA.REPUL>
-0.115675

>  <SCORE.INTRA.REPUL.0>
0.115675

>  <SCORE.INTRA.SOLV>
-1.56092

>  <SCORE.INTRA.SOLV.lig_0>
-154.895

>  <SCORE.INTRA.VDW>
-7.91378

>  <SCORE.INTRA.VDW.0>
2.2925

>  <SCORE.INTRA.norm>
-0.348278

>  <SCORE.RESTR>
0.192569

>  <SCORE.RESTR.CAVITY>
0.192569

>  <SCORE.RESTR.norm>
0.00458497

>  <SCORE.SYSTEM>
0

>  <SCORE.SYSTEM.CONST>
0

>  <SCORE.SYSTEM.DIHEDRAL>
0

>  <SCORE.SYSTEM.SOLV>
0

>  <SCORE.SYSTEM.norm>
0

>  <SCORE.heavy>
42

>  <SCORE.norm>
-1.38904

>  <RMSD>
9.307

$$$$

 OpenBabel11021811413D
libRbt.so/2013.1/901 2013/11/27
 42 45  0  0  0  0  0  0  0  0999 V2000
    8.5016   -4.2960    0.2447 O   0  0  0  0  0  0  0  0  0  0  0  0
    9.3010   -3.7551   -0.7975 C   0  0  0  0  0  0  0  0  0  0  0  0
    8.4888   -3.6884   -2.0914 C   0  0  1  0  0  0  0  0  0  0  0  0
    9.2664   -3.1268   -3.1711 O   0  0  0  0  0  0  0  0  0  0  0  0
    8.0229   -5.0491   -2.5822 C   0  0  2  0  0  0  0  0  0  0  0  0
    7.7279   -4.7321   -4.0387 C   0  0  1  0  0  0  0  0  0  0  0  0
    6.4861   -4.0438   -4.1391 O   0  0  0  0  0  0  0  0  0  0  0  0
    8.8852   -3.7817   -4.4074 C   0  0  2  0  0  0  0  0  0  0  0  0
    6.7370   -8.3842    0.3683 C   0  0  2  0  0  0  0  0  0  0  0  0
    6.5959   -7.0275   -0.0799 O   0  0  0  0  0  0  0  0  0  0  0  0
    6.9504   -6.8799   -1.4668 C   0  0  2  0  0  0  0  0  0  0  0  0
    6.8537   -5.4976   -1.8688 O   0  0  0  0  0  0  0  0  0  0  0  0
    6.0510   -7.7582   -2.3534 C   0  0  2  0  0  0  0  0  0  0  0  0
    4.7366   -7.1615   -2.5044 N   0  3  0  0  0  0  0  0  0  0  0  0
    5.9313   -9.1996   -1.8447 C   0  0  1  0  0  0  0  0  0  0  0  0
    7.1065   -9.9180   -2.1848 O   0  0  0  0  0  0  0  0  0  0  0  0
    5.7118   -9.2640   -0.3357 C   0  0  2  0  0  0  0  0  0  0  0  0
    4.3942   -8.8311   -0.0178 O   0  0  0  0  0  0  0  0  0  0  0  0
    6.5770   -8.4694    1.8835 C   0  0  0  0  0  0  0  0  0  0  0  0
    7.5160   -7.5815    2.5428 N   0  3  0  0  0  0  0  0  0  0  0  0
   11.0642   -5.6458   -7.6769 C   0  0  1  0  0  0  0  0  0  0  0  0
   12.2052   -4.8980   -7.2067 O   0  0  0  0  0  0  0  0  0  0  0  0
   12.2190   -3.5262   -7.6643 C   0  0  2  0  0  0  0  0  0  0  0  0
   11.1196   -2.7588   -7.1147 O   0  0  0  0  0  0  0  0  0  0  0  0
   12.2224   -3.4677   -9.1968 C   0  0  2  0  0  0  0  0  0  0  0  0
   12.0239   -2.1005   -9.6408 N   0  3  0  0  0  0  0  0  0  0  0  0
   11.1364   -4.3526   -9.7984 C   0  0  1  0  0  0  0  0  0  0  0  0
   11.3250   -4.4538  -11.2014 O   0  0  0  0  0  0  0  0  0  0  0  0
   11.0950   -5.7474   -9.1932 C   0  0  2  0  0  0  0  0  0  0  0  0
    9.9529   -6.4528   -9.6565 O   0  0  0  0  0  0  0  0  0  0  0  0
   11.1029   -7.0648   -7.1169 C   0  0  0  0  0  0  0  0  0  0  0  0
   12.3807   -7.6935   -7.3974 N   0  3  0  0  0  0  0  0  0  0  0  0
   13.0625   -3.0138   -3.3385 C   0  0  2  0  0  0  0  0  0  0  0  0
   12.8353   -1.6370   -3.9307 C   0  0  0  0  0  0  0  0  0  0  0  0
   12.5162   -1.7409   -5.4106 C   0  0  1  0  0  0  0  0  0  0  0  0
   11.2434   -2.5434   -5.6844 C   0  0  2  0  0  0  0  0  0  0  0  0
   11.2769   -3.9024   -4.9477 C   0  0  1  0  0  0  0  0  0  0  0  0
   11.8278   -3.8872   -3.5157 C   0  0  1  0  0  0  0  0  0  0  0  0
   13.3709   -2.8864   -1.9269 N   0  3  0  0  0  0  0  0  0  0  0  0
   12.4054   -0.4052   -5.9637 N   0  3  0  0  0  0  0  0  0  0  0  0
    9.9828   -4.5534   -4.9742 O   0  0  0  0  0  0  0  0  0  0  0  0
   12.1161   -5.2169   -3.0962 O   0  0  0  0  0  0  0  0  0  0  0  0
  1  2  1  0  0  0  0
  3  2  1  1  0  0  0
  3  4  1  0  0  0  0
  3  5  1  0  0  0  0
  4  8  1  0  0  0  0
  5  6  1  0  0  0  0
  5 12  1  1  0  0  0
  6  7  1  1  0  0  0
  6  8  1  0  0  0  0
  8 41  1  1  0  0  0
  9 10  1  0  0  0  0
  9 17  1  0  0  0  0
  9 19  1  1  0  0  0
 10 11  1  0  0  0  0
 11 12  1  6  0  0  0
 11 13  1  0  0  0  0
 13 14  1  1  0  0  0
 13 15  1  0  0  0  0
 15 16  1  1  0  0  0
 15 17  1  0  0  0  0
 17 18  1  6  0  0  0
 19 20  1  0  0  0  0
 21 22  1  0  0  0  0
 21 29  1  0  0  0  0
 21 31  1  1  0  0  0
 22 23  1  0  0  0  0
 23 24  1  6  0  0  0
 23 25  1  0  0  0  0
 25 26  1  1  0  0  0
 25 27  1  0  0  0  0
 27 28  1  6  0  0  0
 27 29  1  0  0  0  0
 29 30  1  6  0  0  0
 31 32  1  0  0  0  0
 33 34  1  0  0  0  0
 33 38  1  0  0  0  0
 33 39  1  1  0  0  0
 34 35  1  0  0  0  0
 35 36  1  0  0  0  0
 35 40  1  1  0  0  0
 36 24  1  6  0  0  0
 36 37  1  0  0  0  0
 37 38  1  0  0  0  0
 37 41  1  1  0  0  0
 38 42  1  6  0  0  0
M  CHG  6  14   1  20   1  26   1  32   1  39   1  40   1
M  END
>  <CHROM.1>
178.58049114,179.28671327,-134.92183775,-56.51464342,-43.04220886,-55.56214521
131.62463907,128.16163096,-174.19328464,-174.75134793,-78.88405688,-52.91526124
68.33015078,61.81683827,72.66941771,-176.12458617,-171.02635347,-67.57904272
56.22642065,86.50321745,-57.34936839,62.73071812,9.51878288,-5.16345743,-4.14671162
-2.51425703,-0.84253310,-1.89073190

>  <Name>


>  <RI>
0

>  <Rbt.Current_Directory>
/home/itssahil/PROJECTS/Mol_Feturizer/New_Systems/rnas/1qd3

>  <Rbt.Executable>
rbdock ($Id: //depot/dev/client3/rdock/2013.1/src/exe/rbdock.cxx#4 $)

>  <Rbt.Library>
libRbt.so (2013.1, Build901 2013/11/27)

>  <Rbt.Parameter_File>
/export/apps/rDock/src/rDock_2013.1_src/data/scripts/dock_solv.prm

>  <Rbt.Receptor>
prm/pocket_docking_7.prm

>  <SCORE>
-49.8563

>  <SCORE.INTER>
-31.5278

>  <SCORE.INTER.CONST>
1

>  <SCORE.INTER.POLAR>
-4.85795

>  <SCORE.INTER.ROT>
9

>  <SCORE.INTER.SOLV>
30.8342

>  <SCORE.INTER.VDW>
-24.7034

>  <SCORE.INTER.norm>
-0.750663

>  <SCORE.INTRA>
-18.3285

>  <SCORE.INTRA.DIHEDRAL>
-18.4472

>  <SCORE.INTRA.DIHEDRAL.0>
40.6252

>  <SCORE.INTRA.POLAR>
1.18996

>  <SCORE.INTRA.POLAR.0>
-1.20161

>  <SCORE.INTRA.REPUL>
-0.115675

>  <SCORE.INTRA.REPUL.0>
0.115675

>  <SCORE.INTRA.SOLV>
-9.92663

>  <SCORE.INTRA.SOLV.lig_0>
-154.895

>  <SCORE.INTRA.VDW>
-7.60902

>  <SCORE.INTRA.VDW.0>
2.2925

>  <SCORE.INTRA.norm>
-0.436392

>  <SCORE.RESTR>
0

>  <SCORE.RESTR.CAVITY>
0

>  <SCORE.RESTR.norm>
0

>  <SCORE.SYSTEM>
0

>  <SCORE.SYSTEM.CONST>
0

>  <SCORE.SYSTEM.DIHEDRAL>
0

>  <SCORE.SYSTEM.SOLV>
0

>  <SCORE.SYSTEM.norm>
0

>  <SCORE.heavy>
42

>  <SCORE.norm>
-1.18705

>  <RMSD>
9.338

$$$$

 OpenBabel11021811413D
libRbt.so/2013.1/901 2013/11/27
 42 45  0  0  0  0  0  0  0  0999 V2000
    9.1703   -0.4580   -2.2963 O   0  0  0  0  0  0  0  0  0  0  0  0
    7.8327    0.0003   -2.1607 C   0  0  0  0  0  0  0  0  0  0  0  0
    7.2148   -0.5758   -0.8860 C   0  0  1  0  0  0  0  0  0  0  0  0
    7.1022   -2.0136   -0.9606 O   0  0  0  0  0  0  0  0  0  0  0  0
    8.0317   -0.2897    0.3631 C   0  0  2  0  0  0  0  0  0  0  0  0
    7.4858   -1.3534    1.3008 C   0  0  1  0  0  0  0  0  0  0  0  0
    6.2126   -0.9519    1.7943 O   0  0  0  0  0  0  0  0  0  0  0  0
    7.3252   -2.5661    0.3615 C   0  0  2  0  0  0  0  0  0  0  0  0
   11.0678    2.6027    0.3462 C   0  0  2  0  0  0  0  0  0  0  0  0
    9.8142    1.9800    0.0264 O   0  0  0  0  0  0  0  0  0  0  0  0
    9.0258    1.7236    1.2026 C   0  0  2  0  0  0  0  0  0  0  0  0
    7.8010    1.0462    0.8523 O   0  0  0  0  0  0  0  0  0  0  0  0
    8.7173    3.0347    1.9458 C   0  0  2  0  0  0  0  0  0  0  0  0
    7.6736    3.7789    1.2652 N   0  3  0  0  0  0  0  0  0  0  0  0
    9.9567    3.9134    2.1514 C   0  0  1  0  0  0  0  0  0  0  0  0
   10.7300    3.3939    3.2215 O   0  0  0  0  0  0  0  0  0  0  0  0
   10.8180    4.0019    0.8944 C   0  0  2  0  0  0  0  0  0  0  0  0
   10.1669    4.8027   -0.0849 O   0  0  0  0  0  0  0  0  0  0  0  0
   11.9717    2.6539   -0.8823 C   0  0  0  0  0  0  0  0  0  0  0  0
   13.3063    3.0856   -0.5116 N   0  3  0  0  0  0  0  0  0  0  0  0
    9.5468   -5.7272   -4.3140 C   0  0  1  0  0  0  0  0  0  0  0  0
    9.7364   -4.6486   -3.3745 O   0  0  0  0  0  0  0  0  0  0  0  0
    8.5148   -4.2406   -2.7167 C   0  0  2  0  0  0  0  0  0  0  0  0
    7.9835   -5.2831   -1.8619 O   0  0  0  0  0  0  0  0  0  0  0  0
    7.4731   -3.7850   -3.7458 C   0  0  2  0  0  0  0  0  0  0  0  0
    6.1915   -3.5811   -3.0964 N   0  3  0  0  0  0  0  0  0  0  0  0
    7.3087   -4.8006   -4.8710 C   0  0  1  0  0  0  0  0  0  0  0  0
    6.5224   -4.2391   -5.9105 O   0  0  0  0  0  0  0  0  0  0  0  0
    8.6331   -5.2813   -5.4438 C   0  0  2  0  0  0  0  0  0  0  0  0
    8.4190   -6.3548   -6.3485 O   0  0  0  0  0  0  0  0  0  0  0  0
   10.8852   -6.1245   -4.9301 C   0  0  0  0  0  0  0  0  0  0  0  0
   11.7726   -4.9790   -5.0142 N   0  3  0  0  0  0  0  0  0  0  0  0
    8.8484   -6.8297    2.0058 C   0  0  2  0  0  0  0  0  0  0  0  0
    9.5621   -7.4436    0.8177 C   0  0  0  0  0  0  0  0  0  0  0  0
    8.8593   -7.0718   -0.4748 C   0  0  1  0  0  0  0  0  0  0  0  0
    8.8346   -5.5624   -0.7195 C   0  0  2  0  0  0  0  0  0  0  0  0
    8.3107   -4.8086    0.5247 C   0  0  1  0  0  0  0  0  0  0  0  0
    8.8090   -5.3122    1.8858 C   0  0  1  0  0  0  0  0  0  0  0  0
    9.5356   -7.2044    3.2271 N   0  3  0  0  0  0  0  0  0  0  0  0
    9.5066   -7.7563   -1.5770 N   0  3  0  0  0  0  0  0  0  0  0  0
    8.5313   -3.3810    0.4133 O   0  0  0  0  0  0  0  0  0  0  0  0
    8.0020   -4.7691    2.9255 O   0  0  0  0  0  0  0  0  0  0  0  0
  1  2  1  0  0  0  0
  3  2  1  6  0  0  0
  3  4  1  0  0  0  0
  3  5  1  0  0  0  0
  4  8  1  0  0  0  0
  5  6  1  0  0  0  0
  5 12  1  1  0  0  0
  6  7  1  6  0  0  0
  6  8  1  0  0  0  0
  8 41  1  6  0  0  0
  9 10  1  0  0  0  0
  9 17  1  0  0  0  0
  9 19  1  6  0  0  0
 10 11  1  0  0  0  0
 11 12  1  6  0  0  0
 11 13  1  0  0  0  0
 13 14  1  6  0  0  0
 13 15  1  0  0  0  0
 15 16  1  1  0  0  0
 15 17  1  0  0  0  0
 17 18  1  6  0  0  0
 19 20  1  0  0  0  0
 21 22  1  0  0  0  0
 21 29  1  0  0  0  0
 21 31  1  6  0  0  0
 22 23  1  0  0  0  0
 23 24  1  6  0  0  0
 23 25  1  0  0  0  0
 25 26  1  1  0  0  0
 25 27  1  0  0  0  0
 27 28  1  6  0  0  0
 27 29  1  0  0  0  0
 29 30  1  6  0  0  0
 31 32  1  0  0  0  0
 33 34  1  0  0  0  0
 33 38  1  0  0  0  0
 33 39  1  1  0  0  0
 34 35  1  0  0  0  0
 35 36  1  0  0  0  0
 35 40  1  6  0  0  0
 36 24  1  6  0  0  0
 36 37  1  0  0  0  0
 37 38  1  0  0  0  0
 37 41  1  6  0  0  0
 38 42  1  1  0  0  0
M  CHG  6  14   1  20   1  26   1  32   1  39   1  40   1
M  END
>  <CHROM.1>
174.34137319,-64.61566594,-134.63503077,-178.71253271,-108.24015643,-170.95958996
67.32185438,-144.24472466,-62.71161448,-70.58584029,65.04675004,-30.92829843
66.77440370,-140.48418921,60.91655296,-50.55150761,178.94559872,-31.74519709
-62.77227468,-64.84649887,115.93691280,-135.38521155,8.89247946,-2.15127876
-0.84191233,-0.82609449,-1.40906093,-2.01033577

>  <Name>


>  <RI>
0

>  <Rbt.Current_Directory>
/home/itssahil/PROJECTS/Mol_Feturizer/New_Systems/rnas/1qd3

>  <Rbt.Executable>
rbdock ($Id: //depot/dev/client3/rdock/2013.1/src/exe/rbdock.cxx#4 $)

>  <Rbt.Library>
libRbt.so (2013.1, Build901 2013/11/27)

>  <Rbt.Parameter_File>
/export/apps/rDock/src/rDock_2013.1_src/data/scripts/dock_solv.prm

>  <Rbt.Receptor>
prm/pocket_docking_5.prm

>  <SCORE>
-54.8671

>  <SCORE.INTER>
-40.1096

>  <SCORE.INTER.CONST>
1

>  <SCORE.INTER.POLAR>
-6.34825

>  <SCORE.INTER.ROT>
9

>  <SCORE.INTER.SOLV>
29.3483

>  <SCORE.INTER.VDW>
-24.9617

>  <SCORE.INTER.norm>
-0.954992

>  <SCORE.INTRA>
-14.7574

>  <SCORE.INTRA.DIHEDRAL>
-0.91705

>  <SCORE.INTRA.DIHEDRAL.0>
40.6252

>  <SCORE.INTRA.POLAR>
0.0349408

>  <SCORE.INTRA.POLAR.0>
-1.20161

>  <SCORE.INTRA.REPUL>
-0.115675

>  <SCORE.INTRA.REPUL.0>
0.115675

>  <SCORE.INTRA.SOLV>
-7.68811

>  <SCORE.INTRA.SOLV.lig_0>
-154.895

>  <SCORE.INTRA.VDW>
-9.99529

>  <SCORE.INTRA.VDW.0>
2.2925

>  <SCORE.INTRA.norm>
-0.351368

>  <SCORE.RESTR>
0

>  <SCORE.RESTR.CAVITY>
0

>  <SCORE.RESTR.norm>
0

>  <SCORE.SYSTEM>
0

>  <SCORE.SYSTEM.CONST>
0

>  <SCORE.SYSTEM.DIHEDRAL>
0

>  <SCORE.SYSTEM.SOLV>
0

>  <SCORE.SYSTEM.norm>
0

>  <SCORE.heavy>
42

>  <SCORE.norm>
-1.30636

>  <RMSD>
9.343

$$$$

 OpenBabel11021811413D
libRbt.so/2013.1/901 2013/11/27
 42 45  0  0  0  0  0  0  0  0999 V2000
   10.4221    2.8119   -0.0242 O   0  0  0  0  0  0  0  0  0  0  0  0
    9.7944    1.9547    0.9186 C   0  0  0  0  0  0  0  0  0  0  0  0
    8.8250    1.0158    0.1994 C   0  0  1  0  0  0  0  0  0  0  0  0
    9.4869    0.2861   -0.8565 O   0  0  0  0  0  0  0  0  0  0  0  0
    8.2169   -0.0372    1.1109 C   0  0  2  0  0  0  0  0  0  0  0  0
    7.7532   -1.0575    0.0848 C   0  0  1  0  0  0  0  0  0  0  0  0
    6.5531   -0.6064   -0.5335 O   0  0  0  0  0  0  0  0  0  0  0  0
    8.9077   -1.0409   -0.9377 C   0  0  2  0  0  0  0  0  0  0  0  0
    6.9380    3.5003    3.9609 C   0  0  2  0  0  0  0  0  0  0  0  0
    6.5174    2.4590    3.0663 O   0  0  0  0  0  0  0  0  0  0  0  0
    7.5616    1.4970    2.8323 C   0  0  2  0  0  0  0  0  0  0  0  0
    7.1264    0.4988    1.8858 O   0  0  0  0  0  0  0  0  0  0  0  0
    7.9919    0.8313    4.1506 C   0  0  2  0  0  0  0  0  0  0  0  0
    7.0152   -0.1562    4.5715 N   0  3  0  0  0  0  0  0  0  0  0  0
    8.2539    1.8407    5.2746 C   0  0  1  0  0  0  0  0  0  0  0  0
    9.5195    2.4500    5.0748 O   0  0  0  0  0  0  0  0  0  0  0  0
    7.1744    2.9172    5.3483 C   0  0  2  0  0  0  0  0  0  0  0  0
    5.9680    2.3610    5.8579 O   0  0  0  0  0  0  0  0  0  0  0  0
    5.9004    4.6181    4.0110 C   0  0  0  0  0  0  0  0  0  0  0  0
    6.5507    5.9068    4.1566 N   0  3  0  0  0  0  0  0  0  0  0  0
    6.8754   -6.2445   -2.1207 C   0  0  1  0  0  0  0  0  0  0  0  0
    6.9222   -4.8245   -1.8687 O   0  0  0  0  0  0  0  0  0  0  0  0
    8.1731   -4.3863   -1.2901 C   0  0  2  0  0  0  0  0  0  0  0  0
    9.2843   -4.5580   -2.2041 O   0  0  0  0  0  0  0  0  0  0  0  0
    8.4346   -5.1048    0.0393 C   0  0  2  0  0  0  0  0  0  0  0  0
    9.7799   -4.8177    0.5013 N   0  3  0  0  0  0  0  0  0  0  0  0
    8.2607   -6.6139   -0.0903 C   0  0  1  0  0  0  0  0  0  0  0  0
    8.2778   -7.2093    1.1979 O   0  0  0  0  0  0  0  0  0  0  0  0
    6.9824   -7.0109   -0.8125 C   0  0  2  0  0  0  0  0  0  0  0  0
    6.9721   -8.4083   -1.0654 O   0  0  0  0  0  0  0  0  0  0  0  0
    5.5444   -6.6165   -2.7678 C   0  0  0  0  0  0  0  0  0  0  0  0
    5.5464   -8.0066   -3.1851 N   0  3  0  0  0  0  0  0  0  0  0  0
   12.2689   -1.8412   -3.5496 C   0  0  2  0  0  0  0  0  0  0  0  0
   11.2599   -2.3484   -4.5609 C   0  0  0  0  0  0  0  0  0  0  0  0
   10.5481   -3.5790   -4.0303 C   0  0  1  0  0  0  0  0  0  0  0  0
    9.7675   -3.3004   -2.7450 C   0  0  2  0  0  0  0  0  0  0  0  0
   10.6566   -2.5851   -1.7016 C   0  0  1  0  0  0  0  0  0  0  0  0
   11.5842   -1.4861   -2.2366 C   0  0  1  0  0  0  0  0  0  0  0  0
   12.9383   -0.6699   -4.0825 N   0  3  0  0  0  0  0  0  0  0  0  0
    9.6670   -4.0945   -5.0600 N   0  3  0  0  0  0  0  0  0  0  0  0
    9.8726   -2.0766   -0.5945 O   0  0  0  0  0  0  0  0  0  0  0  0
   12.5645   -1.1633   -1.2559 O   0  0  0  0  0  0  0  0  0  0  0  0
  1  2  1  0  0  0  0
  3  2  1  1  0  0  0
  3  4  1  0  0  0  0
  3  5  1  0  0  0  0
  4  8  1  0  0  0  0
  5  6  1  0  0  0  0
  5 12  1  6  0  0  0
  6  7  1  6  0  0  0
  6  8  1  0  0  0  0
  8 41  1  1  0  0  0
  9 10  1  0  0  0  0
  9 17  1  0  0  0  0
  9 19  1  1  0  0  0
 10 11  1  0  0  0  0
 11 12  1  6  0  0  0
 11 13  1  0  0  0  0
 13 14  1  1  0  0  0
 13 15  1  0  0  0  0
 15 16  1  6  0  0  0
 15 17  1  0  0  0  0
 17 18  1  6  0  0  0
 19 20  1  0  0  0  0
 21 22  1  0  0  0  0
 21 29  1  0  0  0  0
 21 31  1  1  0  0  0
 22 23  1  0  0  0  0
 23 24  1  6  0  0  0
 23 25  1  0  0  0  0
 25 26  1  6  0  0  0
 25 27  1  0  0  0  0
 27 28  1  1  0  0  0
 27 29  1  0  0  0  0
 29 30  1  6  0  0  0
 31 32  1  0  0  0  0
 33 34  1  0  0  0  0
 33 38  1  0  0  0  0
 33 39  1  6  0  0  0
 34 35  1  0  0  0  0
 35 36  1  0  0  0  0
 35 40  1  6  0  0  0
 36 24  1  1  0  0  0
 36 37  1  0  0  0  0
 37 38  1  0  0  0  0
 37 41  1  1  0  0  0
 38 42  1  1  0  0  0
M  CHG  6  14   1  20   1  26   1  32   1  39   1  40   1
M  END
>  <CHROM.1>
-173.97301481,54.74408114,-66.19503297,-173.11571867,-89.19247004,-144.61812245
150.23399911,-145.26842858,-62.67080732,-61.43585200,-94.77591149,172.65704006
107.42646000,-159.60272484,165.62265979,52.32538486,-173.22740526,-67.31976467
68.45809719,-130.32005902,-64.04775498,-57.22509292,8.53286485,-1.54499832
0.17541410,-1.72459314,-0.80236496,-2.60735188

>  <Name>


>  <RI>
0

>  <Rbt.Current_Directory>
/home/itssahil/PROJECTS/Mol_Feturizer/New_Systems/rnas/1qd3

>  <Rbt.Executable>
rbdock ($Id: //depot/dev/client3/rdock/2013.1/src/exe/rbdock.cxx#4 $)

>  <Rbt.Library>
libRbt.so (2013.1, Build901 2013/11/27)

>  <Rbt.Parameter_File>
/export/apps/rDock/src/rDock_2013.1_src/data/scripts/dock_solv.prm

>  <Rbt.Receptor>
prm/pocket_docking_3.prm

>  <SCORE>
-56.892

>  <SCORE.INTER>
-38.1495

>  <SCORE.INTER.CONST>
1

>  <SCORE.INTER.POLAR>
-5.18289

>  <SCORE.INTER.ROT>
9

>  <SCORE.INTER.SOLV>
46.418

>  <SCORE.INTER.VDW>
-33.2294

>  <SCORE.INTER.norm>
-0.908322

>  <SCORE.INTRA>
-19.3594

>  <SCORE.INTRA.DIHEDRAL>
-11.245

>  <SCORE.INTRA.DIHEDRAL.0>
40.6252

>  <SCORE.INTRA.POLAR>
-0.385922

>  <SCORE.INTRA.POLAR.0>
-1.20161

>  <SCORE.INTRA.REPUL>
-0.115675

>  <SCORE.INTRA.REPUL.0>
0.115675

>  <SCORE.INTRA.SOLV>
-10.6253

>  <SCORE.INTRA.SOLV.lig_0>
-154.895

>  <SCORE.INTRA.VDW>
-6.53367

>  <SCORE.INTRA.VDW.0>
2.2925

>  <SCORE.INTRA.norm>
-0.460937

>  <SCORE.RESTR>
0.61685

>  <SCORE.RESTR.CAVITY>
0.61685

>  <SCORE.RESTR.norm>
0.0146869

>  <SCORE.SYSTEM>
0

>  <SCORE.SYSTEM.CONST>
0

>  <SCORE.SYSTEM.DIHEDRAL>
0

>  <SCORE.SYSTEM.SOLV>
0

>  <SCORE.SYSTEM.norm>
0

>  <SCORE.heavy>
42

>  <SCORE.norm>
-1.35457

>  <RMSD>
9.348

$$$$

 OpenBabel11021811413D
libRbt.so/2013.1/901 2013/11/27
 42 45  0  0  0  0  0  0  0  0999 V2000
   12.6294   -8.6914   -1.4620 O   0  0  0  0  0  0  0  0  0  0  0  0
   11.7425   -7.7967   -2.1181 C   0  0  0  0  0  0  0  0  0  0  0  0
   11.8001   -6.4245   -1.4456 C   0  0  1  0  0  0  0  0  0  0  0  0
   10.9518   -5.4719   -2.1227 O   0  0  0  0  0  0  0  0  0  0  0  0
   11.3314   -6.4408   -0.0001 C   0  0  2  0  0  0  0  0  0  0  0  0
   11.0266   -4.9669    0.2089 C   0  0  1  0  0  0  0  0  0  0  0  0
   12.2399   -4.2469    0.3969 O   0  0  0  0  0  0  0  0  0  0  0  0
   10.3856   -4.5715   -1.1370 C   0  0  2  0  0  0  0  0  0  0  0  0
   10.4730   -7.7522    3.9006 C   0  0  2  0  0  0  0  0  0  0  0  0
   10.9295   -7.8228    2.5411 O   0  0  0  0  0  0  0  0  0  0  0  0
   11.9675   -6.8631    2.2721 C   0  0  2  0  0  0  0  0  0  0  0  0
   12.3621   -6.9206    0.8856 O   0  0  0  0  0  0  0  0  0  0  0  0
   13.1823   -7.1075    3.1837 C   0  0  2  0  0  0  0  0  0  0  0  0
   13.9531   -8.2465    2.7201 N   0  3  0  0  0  0  0  0  0  0  0  0
   12.8001   -7.2818    4.6583 C   0  0  1  0  0  0  0  0  0  0  0  0
   12.5264   -6.0113    5.2272 O   0  0  0  0  0  0  0  0  0  0  0  0
   11.5895   -8.1937    4.8381 C   0  0  2  0  0  0  0  0  0  0  0  0
   11.9528   -9.5423    4.5662 O   0  0  0  0  0  0  0  0  0  0  0  0
    9.2280   -8.6130    4.0951 C   0  0  0  0  0  0  0  0  0  0  0  0
    9.4249   -9.9274    3.5134 N   0  3  0  0  0  0  0  0  0  0  0  0
    5.7335   -8.1092   -3.1683 C   0  0  1  0  0  0  0  0  0  0  0  0
    6.6294   -7.5768   -2.1703 O   0  0  0  0  0  0  0  0  0  0  0  0
    7.7188   -6.8079   -2.7301 C   0  0  2  0  0  0  0  0  0  0  0  0
    7.2532   -5.5992   -3.3798 O   0  0  0  0  0  0  0  0  0  0  0  0
    8.5490   -7.6674   -3.6912 C   0  0  2  0  0  0  0  0  0  0  0  0
    9.5022   -6.8357   -4.4021 N   0  3  0  0  0  0  0  0  0  0  0  0
    7.6694   -8.3965   -4.7007 C   0  0  1  0  0  0  0  0  0  0  0  0
    8.4446   -9.3520   -5.4080 O   0  0  0  0  0  0  0  0  0  0  0  0
    6.4732   -9.0884   -4.0651 C   0  0  2  0  0  0  0  0  0  0  0  0
    5.5993   -9.5842   -5.0686 O   0  0  0  0  0  0  0  0  0  0  0  0
    4.5934   -8.8680   -2.4952 C   0  0  0  0  0  0  0  0  0  0  0  0
    5.1101   -9.9323   -1.6544 N   0  3  0  0  0  0  0  0  0  0  0  0
    6.9869   -1.5810   -2.0079 C   0  0  2  0  0  0  0  0  0  0  0  0
    5.6958   -2.3267   -2.2820 C   0  0  0  0  0  0  0  0  0  0  0  0
    5.9628   -3.5594   -3.1258 C   0  0  1  0  0  0  0  0  0  0  0  0
    6.8975   -4.5545   -2.4367 C   0  0  2  0  0  0  0  0  0  0  0  0
    8.1750   -3.8501   -1.9241 C   0  0  1  0  0  0  0  0  0  0  0  0
    7.9797   -2.4734   -1.2754 C   0  0  1  0  0  0  0  0  0  0  0  0
    6.7038   -0.4060   -1.2060 N   0  3  0  0  0  0  0  0  0  0  0  0
    4.6986   -4.1898   -3.4524 N   0  3  0  0  0  0  0  0  0  0  0  0
    8.9387   -4.7097   -1.0427 O   0  0  0  0  0  0  0  0  0  0  0  0
    9.2343   -1.8089   -1.1681 O   0  0  0  0  0  0  0  0  0  0  0  0
  1  2  1  0  0  0  0
  3  2  1  6  0  0  0
  3  4  1  0  0  0  0
  3  5  1  0  0  0  0
  4  8  1  0  0  0  0
  5  6  1  0  0  0  0
  5 12  1  1  0  0  0
  6  7  1  6  0  0  0
  6  8  1  0  0  0  0
  8 41  1  1  0  0  0
  9 10  1  0  0  0  0
  9 17  1  0  0  0  0
  9 19  1  6  0  0  0
 10 11  1  0  0  0  0
 11 12  1  6  0  0  0
 11 13  1  0  0  0  0
 13 14  1  6  0  0  0
 13 15  1  0  0  0  0
 15 16  1  6  0  0  0
 15 17  1  0  0  0  0
 17 18  1  6  0  0  0
 19 20  1  0  0  0  0
 21 22  1  0  0  0  0
 21 29  1  0  0  0  0
 21 31  1  1  0  0  0
 22 23  1  0  0  0  0
 23 24  1  6  0  0  0
 23 25  1  0  0  0  0
 25 26  1  6  0  0  0
 25 27  1  0  0  0  0
 27 28  1  1  0  0  0
 27 29  1  0  0  0  0
 29 30  1  6  0  0  0
 31 32  1  0  0  0  0
 33 34  1  0  0  0  0
 33 38  1  0  0  0  0
 33 39  1  1  0  0  0
 34 35  1  0  0  0  0
 35 36  1  0  0  0  0
 35 40  1  1  0  0  0
 36 24  1  6  0  0  0
 36 37  1  0  0  0  0
 37 38  1  0  0  0  0
 37 41  1  1  0  0  0
 38 42  1  6  0  0  0
M  CHG  6  14   1  20   1  26   1  32   1  39   1  40   1
M  END
>  <CHROM.1>
-63.24066947,177.56206131,176.26938744,-179.50835583,-90.07078546,47.67755698
68.82709269,87.49393354,-179.38108730,42.97115273,-176.36277229,-57.47827459
76.54589413,-159.23916338,-175.71060576,62.77736257,-179.28281101,-169.94557521
47.71284524,175.75441710,144.61875687,-55.16450693,9.23221971,-6.47077303
-0.67007034,0.16505291,0.88122692,-3.09516999

>  <Name>


>  <RI>
0

>  <Rbt.Current_Directory>
/home/itssahil/PROJECTS/Mol_Feturizer/New_Systems/rnas/1qd3

>  <Rbt.Executable>
rbdock ($Id: //depot/dev/client3/rdock/2013.1/src/exe/rbdock.cxx#4 $)

>  <Rbt.Library>
libRbt.so (2013.1, Build901 2013/11/27)

>  <Rbt.Parameter_File>
/export/apps/rDock/src/rDock_2013.1_src/data/scripts/dock_solv.prm

>  <Rbt.Receptor>
prm/pocket_docking_8.prm

>  <SCORE>
-46.9108

>  <SCORE.INTER>
-20.9303

>  <SCORE.INTER.CONST>
1

>  <SCORE.INTER.POLAR>
-4.21345

>  <SCORE.INTER.ROT>
9

>  <SCORE.INTER.SOLV>
22.8636

>  <SCORE.INTER.VDW>
-17.1299

>  <SCORE.INTER.norm>
-0.498341

>  <SCORE.INTRA>
-25.9805

>  <SCORE.INTRA.DIHEDRAL>
-23.5476

>  <SCORE.INTRA.DIHEDRAL.0>
40.6252

>  <SCORE.INTRA.POLAR>
0.0216128

>  <SCORE.INTRA.POLAR.0>
-1.20161

>  <SCORE.INTRA.REPUL>
-0.115675

>  <SCORE.INTRA.REPUL.0>
0.115675

>  <SCORE.INTRA.SOLV>
-7.99033

>  <SCORE.INTRA.SOLV.lig_0>
-154.895

>  <SCORE.INTRA.VDW>
-9.70666

>  <SCORE.INTRA.VDW.0>
2.2925

>  <SCORE.INTRA.norm>
-0.618583

>  <SCORE.RESTR>
0

>  <SCORE.RESTR.CAVITY>
0

>  <SCORE.RESTR.norm>
0

>  <SCORE.SYSTEM>
0

>  <SCORE.SYSTEM.CONST>
0

>  <SCORE.SYSTEM.DIHEDRAL>
0

>  <SCORE.SYSTEM.SOLV>
0

>  <SCORE.SYSTEM.norm>
0

>  <SCORE.heavy>
42

>  <SCORE.norm>
-1.11692

>  <RMSD>
9.349

$$$$

 OpenBabel11021811413D
libRbt.so/2013.1/901 2013/11/27
 42 45  0  0  0  0  0  0  0  0999 V2000
   10.7356   -0.7677   -4.2448 O   0  0  0  0  0  0  0  0  0  0  0  0
   10.0948   -0.1941   -3.1143 C   0  0  0  0  0  0  0  0  0  0  0  0
    8.6845   -0.7679   -2.9722 C   0  0  1  0  0  0  0  0  0  0  0  0
    8.6877   -2.2066   -3.0988 O   0  0  0  0  0  0  0  0  0  0  0  0
    8.0461   -0.4733   -1.6249 C   0  0  2  0  0  0  0  0  0  0  0  0
    6.9602   -1.5357   -1.5945 C   0  0  1  0  0  0  0  0  0  0  0  0
    5.8749   -1.1379   -2.4250 O   0  0  0  0  0  0  0  0  0  0  0  0
    7.6761   -2.7528   -2.2149 C   0  0  2  0  0  0  0  0  0  0  0  0
    7.8901    0.9755    2.0583 C   0  0  2  0  0  0  0  0  0  0  0  0
    7.8358    0.4305    0.7311 O   0  0  0  0  0  0  0  0  0  0  0  0
    7.6172    1.4503   -0.2603 C   0  0  2  0  0  0  0  0  0  0  0  0
    7.5098    0.8634   -1.5740 O   0  0  0  0  0  0  0  0  0  0  0  0
    8.7518    2.4887   -0.2304 C   0  0  2  0  0  0  0  0  0  0  0  0
    9.9472    1.9635   -0.8642 N   0  3  0  0  0  0  0  0  0  0  0  0
    9.0694    2.9893    1.1836 C   0  0  1  0  0  0  0  0  0  0  0  0
    8.0865    3.9321    1.5812 O   0  0  0  0  0  0  0  0  0  0  0  0
    9.1277    1.8524    2.2002 C   0  0  2  0  0  0  0  0  0  0  0  0
   10.3032    1.0775    1.9952 O   0  0  0  0  0  0  0  0  0  0  0  0
    7.8932   -0.1411    3.0985 C   0  0  0  0  0  0  0  0  0  0  0  0
    6.9486    0.1526    4.1598 N   0  3  0  0  0  0  0  0  0  0  0  0
    7.8834   -6.9380   -5.8693 C   0  0  1  0  0  0  0  0  0  0  0  0
    7.7067   -5.5507   -5.5140 O   0  0  0  0  0  0  0  0  0  0  0  0
    7.3048   -5.3584   -4.1382 C   0  0  2  0  0  0  0  0  0  0  0  0
    8.3370   -5.7695   -3.2080 O   0  0  0  0  0  0  0  0  0  0  0  0
    5.9840   -6.0842   -3.8545 C   0  0  2  0  0  0  0  0  0  0  0  0
    5.7019   -6.0614   -2.4313 N   0  3  0  0  0  0  0  0  0  0  0  0
    6.0196   -7.5307   -4.3352 C   0  0  1  0  0  0  0  0  0  0  0  0
    4.7160   -8.0881   -4.2704 O   0  0  0  0  0  0  0  0  0  0  0  0
    6.5626   -7.6805   -5.7480 C   0  0  2  0  0  0  0  0  0  0  0  0
    6.7456   -9.0529   -6.0635 O   0  0  0  0  0  0  0  0  0  0  0  0
    8.3467   -7.0510   -7.3188 C   0  0  0  0  0  0  0  0  0  0  0  0
    9.3313   -6.0295   -7.6249 N   0  3  0  0  0  0  0  0  0  0  0  0
   11.9819   -4.2263   -1.6482 C   0  0  2  0  0  0  0  0  0  0  0  0
   11.8712   -4.4107   -3.1488 C   0  0  0  0  0  0  0  0  0  0  0  0
   10.7059   -5.3218   -3.4879 C   0  0  1  0  0  0  0  0  0  0  0  0
    9.3624   -4.7587   -3.0224 C   0  0  2  0  0  0  0  0  0  0  0  0
    9.4240   -4.3373   -1.5360 C   0  0  1  0  0  0  0  0  0  0  0  0
   10.7036   -3.6213   -1.0838 C   0  0  1  0  0  0  0  0  0  0  0  0
   13.1049   -3.3576   -1.3511 N   0  3  0  0  0  0  0  0  0  0  0  0
   10.6920   -5.5565   -4.9186 N   0  3  0  0  0  0  0  0  0  0  0  0
    8.2610   -3.5621   -1.1546 O   0  0  0  0  0  0  0  0  0  0  0  0
   10.7684   -3.6026    0.3384 O   0  0  0  0  0  0  0  0  0  0  0  0
  1  2  1  0  0  0  0
  3  2  1  1  0  0  0
  3  4  1  0  0  0  0
  3  5  1  0  0  0  0
  4  8  1  0  0  0  0
  5  6  1  0  0  0  0
  5 12  1  6  0  0  0
  6  7  1  6  0  0  0
  6  8  1  0  0  0  0
  8 41  1  1  0  0  0
  9 10  1  0  0  0  0
  9 17  1  0  0  0  0
  9 19  1  1  0  0  0
 10 11  1  0  0  0  0
 11 12  1  6  0  0  0
 11 13  1  0  0  0  0
 13 14  1  1  0  0  0
 13 15  1  0  0  0  0
 15 16  1  1  0  0  0
 15 17  1  0  0  0  0
 17 18  1  6  0  0  0
 19 20  1  0  0  0  0
 21 22  1  0  0  0  0
 21 29  1  0  0  0  0
 21 31  1  6  0  0  0
 22 23  1  0  0  0  0
 23 24  1  1  0  0  0
 23 25  1  0  0  0  0
 25 26  1  1  0  0  0
 25 27  1  0  0  0  0
 27 28  1  6  0  0  0
 27 29  1  0  0  0  0
 29 30  1  1  0  0  0
 31 32  1  0  0  0  0
 33 34  1  0  0  0  0
 33 38  1  0  0  0  0
 33 39  1  6  0  0  0
 34 35  1  0  0  0  0
 35 36  1  0  0  0  0
 35 40  1  6  0  0  0
 36 24  1  1  0  0  0
 36 37  1  0  0  0  0
 37 38  1  0  0  0  0
 37 41  1  6  0  0  0
 38 42  1  1  0  0  0
M  CHG  6  14   1  20   1  26   1  32   1  39   1  40   1
M  END
>  <CHROM.1>
-58.35942762,47.15800493,-146.22085772,59.15549392,-35.98732552,-133.65103131
-18.01804687,94.34348060,-65.47015425,58.81406100,-157.74850858,41.01986193
81.41715499,-117.96763237,22.52251134,-63.11241678,50.32487379,-41.48524206
50.93978391,-7.10753130,-30.89952402,-49.23414227,8.56243894,-2.75764321
-2.11041960,-1.48079488,-0.24888079,-2.46949759

>  <Name>


>  <RI>
0

>  <Rbt.Current_Directory>
/home/itssahil/PROJECTS/Mol_Feturizer/New_Systems/rnas/1qd3

>  <Rbt.Executable>
rbdock ($Id: //depot/dev/client3/rdock/2013.1/src/exe/rbdock.cxx#4 $)

>  <Rbt.Library>
libRbt.so (2013.1, Build901 2013/11/27)

>  <Rbt.Parameter_File>
/export/apps/rDock/src/rDock_2013.1_src/data/scripts/dock_solv.prm

>  <Rbt.Receptor>
prm/pocket_docking_2.prm

>  <SCORE>
-21.4869

>  <SCORE.INTER>
-22.9043

>  <SCORE.INTER.CONST>
1

>  <SCORE.INTER.POLAR>
-5.50892

>  <SCORE.INTER.ROT>
9

>  <SCORE.INTER.SOLV>
37.8365

>  <SCORE.INTER.VDW>
-19.1187

>  <SCORE.INTER.norm>
-0.545341

>  <SCORE.INTRA>
-2.87454

>  <SCORE.INTRA.DIHEDRAL>
2.50973

>  <SCORE.INTRA.DIHEDRAL.0>
40.6252

>  <SCORE.INTRA.POLAR>
0.457214

>  <SCORE.INTRA.POLAR.0>
-1.20161

>  <SCORE.INTRA.REPUL>
-0.115675

>  <SCORE.INTRA.REPUL.0>
0.115675

>  <SCORE.INTRA.SOLV>
-2.23558

>  <SCORE.INTRA.SOLV.lig_0>
-154.895

>  <SCORE.INTRA.VDW>
-3.98777

>  <SCORE.INTRA.VDW.0>
2.2925

>  <SCORE.INTRA.norm>
-0.0684414

>  <SCORE.RESTR>
4.29194

>  <SCORE.RESTR.CAVITY>
4.29194

>  <SCORE.RESTR.norm>
0.102189

>  <SCORE.SYSTEM>
0

>  <SCORE.SYSTEM.CONST>
0

>  <SCORE.SYSTEM.DIHEDRAL>
0

>  <SCORE.SYSTEM.SOLV>
0

>  <SCORE.SYSTEM.norm>
0

>  <SCORE.heavy>
42

>  <SCORE.norm>
-0.511593

>  <RMSD>
9.358

$$$$

 OpenBabel11021811413D
libRbt.so/2013.1/901 2013/11/27
 42 45  0  0  0  0  0  0  0  0999 V2000
   11.7370    0.0856   -1.1519 O   0  0  0  0  0  0  0  0  0  0  0  0
   10.8873    0.8608   -1.9854 C   0  0  0  0  0  0  0  0  0  0  0  0
    9.4665    0.2969   -1.9435 C   0  0  1  0  0  0  0  0  0  0  0  0
    9.4146   -1.0372   -2.4940 O   0  0  0  0  0  0  0  0  0  0  0  0
    8.9027    0.1855   -0.5367 C   0  0  2  0  0  0  0  0  0  0  0  0
    7.7838   -0.8169   -0.7652 C   0  0  1  0  0  0  0  0  0  0  0  0
    6.6748   -0.1684   -1.3777 O   0  0  0  0  0  0  0  0  0  0  0  0
    8.4278   -1.8047   -1.7593 C   0  0  2  0  0  0  0  0  0  0  0  0
   10.0527    2.3990    3.0677 C   0  0  2  0  0  0  0  0  0  0  0  0
    9.8251    2.2798    1.6551 O   0  0  0  0  0  0  0  0  0  0  0  0
    8.5851    1.6097    1.3651 C   0  0  2  0  0  0  0  0  0  0  0  0
    8.4153    1.4549   -0.0593 O   0  0  0  0  0  0  0  0  0  0  0  0
    7.3973    2.3827    1.9637 C   0  0  2  0  0  0  0  0  0  0  0  0
    7.0883    3.5528    1.1625 N   0  3  0  0  0  0  0  0  0  0  0  0
    7.6160    2.7775    3.4290 C   0  0  1  0  0  0  0  0  0  0  0  0
    7.4025    1.6463    4.2583 O   0  0  0  0  0  0  0  0  0  0  0  0
    9.0154    3.3348    3.6752 C   0  0  2  0  0  0  0  0  0  0  0  0
    9.1296    4.6316    3.1009 O   0  0  0  0  0  0  0  0  0  0  0  0
   11.4665    2.9025    3.3441 C   0  0  0  0  0  0  0  0  0  0  0  0
   11.5579    4.3263    3.0805 N   0  3  0  0  0  0  0  0  0  0  0  0
    7.8558   -6.5357   -1.9038 C   0  0  1  0  0  0  0  0  0  0  0  0
    8.9030   -6.4619   -2.8937 O   0  0  0  0  0  0  0  0  0  0  0  0
    8.5620   -5.6314   -4.0275 C   0  0  2  0  0  0  0  0  0  0  0  0
    8.4124   -4.2389   -3.6556 O   0  0  0  0  0  0  0  0  0  0  0  0
    7.2998   -6.1569   -4.7221 C   0  0  2  0  0  0  0  0  0  0  0  0
    6.8502   -5.2039   -5.7198 N   0  3  0  0  0  0  0  0  0  0  0  0
    6.1721   -6.4112   -3.7280 C   0  0  1  0  0  0  0  0  0  0  0  0
    5.1179   -7.1116   -4.3701 O   0  0  0  0  0  0  0  0  0  0  0  0
    6.6190   -7.1883   -2.4994 C   0  0  2  0  0  0  0  0  0  0  0  0
    5.5777   -7.2278   -1.5346 O   0  0  0  0  0  0  0  0  0  0  0  0
    8.3100   -7.3929   -0.7258 C   0  0  0  0  0  0  0  0  0  0  0  0
    7.8278   -6.8416    0.5273 N   0  3  0  0  0  0  0  0  0  0  0  0
   12.4187   -4.1817   -2.2253 C   0  0  2  0  0  0  0  0  0  0  0  0
   12.1753   -3.8144   -3.6758 C   0  0  0  0  0  0  0  0  0  0  0  0
   10.7954   -4.2683   -4.1147 C   0  0  1  0  0  0  0  0  0  0  0  0
    9.6742   -3.6102   -3.3093 C   0  0  2  0  0  0  0  0  0  0  0  0
    9.9310   -3.7453   -1.7906 C   0  0  1  0  0  0  0  0  0  0  0  0
   11.3771   -3.5337   -1.3231 C   0  0  1  0  0  0  0  0  0  0  0  0
   13.7443   -3.7427   -1.8329 N   0  3  0  0  0  0  0  0  0  0  0  0
   10.6364   -3.9925   -5.5293 N   0  3  0  0  0  0  0  0  0  0  0  0
    9.0340   -2.9056   -1.0230 O   0  0  0  0  0  0  0  0  0  0  0  0
   11.5286   -4.0154    0.0081 O   0  0  0  0  0  0  0  0  0  0  0  0
  1  2  1  0  0  0  0
  3  2  1  1  0  0  0
  3  4  1  0  0  0  0
  3  5  1  0  0  0  0
  4  8  1  0  0  0  0
  5  6  1  0  0  0  0
  5 12  1  6  0  0  0
  6  7  1  6  0  0  0
  6  8  1  0  0  0  0
  8 41  1  1  0  0  0
  9 10  1  0  0  0  0
  9 17  1  0  0  0  0
  9 19  1  6  0  0  0
 10 11  1  0  0  0  0
 11 12  1  6  0  0  0
 11 13  1  0  0  0  0
 13 14  1  6  0  0  0
 13 15  1  0  0  0  0
 15 16  1  1  0  0  0
 15 17  1  0  0  0  0
 17 18  1  6  0  0  0
 19 20  1  0  0  0  0
 21 22  1  0  0  0  0
 21 29  1  0  0  0  0
 21 31  1  1  0  0  0
 22 23  1  0  0  0  0
 23 24  1  1  0  0  0
 23 25  1  0  0  0  0
 25 26  1  6  0  0  0
 25 27  1  0  0  0  0
 27 28  1  6  0  0  0
 27 29  1  0  0  0  0
 29 30  1  1  0  0  0
 31 32  1  0  0  0  0
 33 34  1  0  0  0  0
 33 38  1  0  0  0  0
 33 39  1  1  0  0  0
 34 35  1  0  0  0  0
 35 36  1  0  0  0  0
 35 40  1  6  0  0  0
 36 24  1  1  0  0  0
 36 37  1  0  0  0  0
 37 38  1  0  0  0  0
 37 41  1  1  0  0  0
 38 42  1  1  0  0  0
M  CHG  6  14   1  20   1  26   1  32   1  39   1  40   1
M  END
>  <CHROM.1>
69.89957593,-64.15748264,-147.14977455,-41.26541057,-49.67421072,76.12096602
93.42925334,-79.67554599,-53.30901269,-168.52262247,173.95601449,142.03634925
70.26011458,30.57609189,-60.20414179,-109.02694688,-166.16572317,153.05847631
176.95539682,123.53498510,-20.27142496,-52.86012931,9.02898388,-1.96134576
-0.98916165,-1.46169791,-0.29424861,-2.54263484

>  <Name>


>  <RI>
0

>  <Rbt.Current_Directory>
/home/itssahil/PROJECTS/Mol_Feturizer/New_Systems/rnas/1qd3

>  <Rbt.Executable>
rbdock ($Id: //depot/dev/client3/rdock/2013.1/src/exe/rbdock.cxx#4 $)

>  <Rbt.Library>
libRbt.so (2013.1, Build901 2013/11/27)

>  <Rbt.Parameter_File>
/export/apps/rDock/src/rDock_2013.1_src/data/scripts/dock_solv.prm

>  <Rbt.Receptor>
prm/pocket_docking_3.prm

>  <SCORE>
-39.9092

>  <SCORE.INTER>
-36.8481

>  <SCORE.INTER.CONST>
1

>  <SCORE.INTER.POLAR>
-6.69899

>  <SCORE.INTER.ROT>
9

>  <SCORE.INTER.SOLV>
34.2094

>  <SCORE.INTER.VDW>
-23.2386

>  <SCORE.INTER.norm>
-0.877336

>  <SCORE.INTRA>
-5.21788

>  <SCORE.INTRA.DIHEDRAL>
0.628475

>  <SCORE.INTRA.DIHEDRAL.0>
40.6252

>  <SCORE.INTRA.POLAR>
0.750996

>  <SCORE.INTRA.POLAR.0>
-1.20161

>  <SCORE.INTRA.REPUL>
-0.113781

>  <SCORE.INTRA.REPUL.0>
0.115675

>  <SCORE.INTRA.SOLV>
-7.69393

>  <SCORE.INTRA.SOLV.lig_0>
-154.895

>  <SCORE.INTRA.VDW>
-3.66964

>  <SCORE.INTRA.VDW.0>
2.2925

>  <SCORE.INTRA.norm>
-0.124235

>  <SCORE.RESTR>
2.15678

>  <SCORE.RESTR.CAVITY>
2.15678

>  <SCORE.RESTR.norm>
0.0513518

>  <SCORE.SYSTEM>
0

>  <SCORE.SYSTEM.CONST>
0

>  <SCORE.SYSTEM.DIHEDRAL>
0

>  <SCORE.SYSTEM.SOLV>
0

>  <SCORE.SYSTEM.norm>
0

>  <SCORE.heavy>
42

>  <SCORE.norm>
-0.95022

>  <RMSD>
9.359

$$$$

 OpenBabel11021811413D
libRbt.so/2013.1/901 2013/11/27
 42 45  0  0  0  0  0  0  0  0999 V2000
   10.7337    2.4019   -1.2509 O   0  0  0  0  0  0  0  0  0  0  0  0
   10.2781    1.6432   -0.1398 C   0  0  0  0  0  0  0  0  0  0  0  0
    9.1591    0.6992   -0.5815 C   0  0  1  0  0  0  0  0  0  0  0  0
    9.6073   -0.1951   -1.6232 O   0  0  0  0  0  0  0  0  0  0  0  0
    8.6460   -0.1931    0.5365 C   0  0  2  0  0  0  0  0  0  0  0  0
    7.9731   -1.2902   -0.2713 C   0  0  1  0  0  0  0  0  0  0  0  0
    6.7169   -0.8289   -0.7560 O   0  0  0  0  0  0  0  0  0  0  0  0
    8.9523   -1.4770   -1.4482 C   0  0  2  0  0  0  0  0  0  0  0  0
    9.0753    3.6507    2.6698 C   0  0  2  0  0  0  0  0  0  0  0  0
    8.3702    2.7465    1.8058 O   0  0  0  0  0  0  0  0  0  0  0  0
    8.3861    1.3988    2.3098 C   0  0  2  0  0  0  0  0  0  0  0  0
    7.7207    0.5075    1.3909 O   0  0  0  0  0  0  0  0  0  0  0  0
    7.7226    1.3297    3.6960 C   0  0  2  0  0  0  0  0  0  0  0  0
    6.2774    1.3937    3.5787 N   0  3  0  0  0  0  0  0  0  0  0  0
    8.2316    2.4087    4.6590 C   0  0  1  0  0  0  0  0  0  0  0  0
    9.5042    2.0306    5.1596 O   0  0  0  0  0  0  0  0  0  0  0  0
    8.3309    3.7783    3.9928 C   0  0  2  0  0  0  0  0  0  0  0  0
    7.0283    4.3068    3.7728 O   0  0  0  0  0  0  0  0  0  0  0  0
    9.2377    5.0143    2.0041 C   0  0  0  0  0  0  0  0  0  0  0  0
    9.9034    5.9400    2.9012 N   0  3  0  0  0  0  0  0  0  0  0  0
    6.8689   -5.5549   -3.6999 C   0  0  1  0  0  0  0  0  0  0  0  0
    7.2579   -4.5970   -2.6933 O   0  0  0  0  0  0  0  0  0  0  0  0
    8.4367   -4.9901   -1.9536 C   0  0  2  0  0  0  0  0  0  0  0  0
    9.6173   -5.0282   -2.7928 O   0  0  0  0  0  0  0  0  0  0  0  0
    8.2119   -6.3362   -1.2542 C   0  0  2  0  0  0  0  0  0  0  0  0
    9.4609   -6.8185   -0.6946 N   0  3  0  0  0  0  0  0  0  0  0  0
    7.6539   -7.3839   -2.2110 C   0  0  1  0  0  0  0  0  0  0  0  0
    7.2424   -8.5284   -1.4795 O   0  0  0  0  0  0  0  0  0  0  0  0
    6.4900   -6.8741   -3.0468 C   0  0  2  0  0  0  0  0  0  0  0  0
    6.1418   -7.8265   -4.0409 O   0  0  0  0  0  0  0  0  0  0  0  0
    5.6473   -5.0468   -4.4601 C   0  0  0  0  0  0  0  0  0  0  0  0
    4.6754   -4.4734   -3.5472 N   0  3  0  0  0  0  0  0  0  0  0  0
   12.3643   -2.0067   -3.9862 C   0  0  2  0  0  0  0  0  0  0  0  0
   11.4458   -2.5907   -5.0413 C   0  0  0  0  0  0  0  0  0  0  0  0
   10.8408   -3.8952   -4.5563 C   0  0  1  0  0  0  0  0  0  0  0  0
    9.9926   -3.7192   -3.2960 C   0  0  2  0  0  0  0  0  0  0  0  0
   10.7703   -2.9404   -2.2099 C   0  0  1  0  0  0  0  0  0  0  0  0
   11.6030   -1.7457   -2.6935 C   0  0  1  0  0  0  0  0  0  0  0  0
   12.9330   -0.7655   -4.4760 N   0  3  0  0  0  0  0  0  0  0  0  0
   10.0510   -4.4746   -5.6254 N   0  3  0  0  0  0  0  0  0  0  0  0
    9.9022   -2.5325   -1.1240 O   0  0  0  0  0  0  0  0  0  0  0  0
   12.5122   -1.3474   -1.6729 O   0  0  0  0  0  0  0  0  0  0  0  0
  1  2  1  0  0  0  0
  3  2  1  1  0  0  0
  3  4  1  0  0  0  0
  3  5  1  0  0  0  0
  4  8  1  0  0  0  0
  5  6  1  0  0  0  0
  5 12  1  1  0  0  0
  6  7  1  6  0  0  0
  6  8  1  0  0  0  0
  8 41  1  1  0  0  0
  9 10  1  0  0  0  0
  9 17  1  0  0  0  0
  9 19  1  6  0  0  0
 10 11  1  0  0  0  0
 11 12  1  6  0  0  0
 11 13  1  0  0  0  0
 13 14  1  6  0  0  0
 13 15  1  0  0  0  0
 15 16  1  6  0  0  0
 15 17  1  0  0  0  0
 17 18  1  6  0  0  0
 19 20  1  0  0  0  0
 21 22  1  0  0  0  0
 21 29  1  0  0  0  0
 21 31  1  1  0  0  0
 22 23  1  0  0  0  0
 23 24  1  6  0  0  0
 23 25  1  0  0  0  0
 25 26  1  6  0  0  0
 25 27  1  0  0  0  0
 27 28  1  1  0  0  0
 27 29  1  0  0  0  0
 29 30  1  6  0  0  0
 31 32  1  0  0  0  0
 33 34  1  0  0  0  0
 33 38  1  0  0  0  0
 33 39  1  6  0  0  0
 34 35  1  0  0  0  0
 35 36  1  0  0  0  0
 35 40  1  6  0  0  0
 36 24  1  1  0  0  0
 36 37  1  0  0  0  0
 37 38  1  0  0  0  0
 37 41  1  1  0  0  0
 38 42  1  1  0  0  0
M  CHG  6  14   1  20   1  26   1  32   1  39   1  40   1
M  END
>  <CHROM.1>
100.90598578,58.65502997,-77.21861799,65.16454986,-71.08595301,177.73495471
98.03515300,-137.37075908,61.51241834,48.13704515,13.88190504,-43.07993375
65.30364694,-157.63853869,-133.94816501,179.86742030,56.94812005,64.65368234
-162.37908631,-165.44924313,-70.81401572,64.61869122,8.84303406,-1.50998314
-0.80847295,-1.52091034,-0.66316102,-2.50463378

>  <Name>


>  <RI>
0

>  <Rbt.Current_Directory>
/home/itssahil/PROJECTS/Mol_Feturizer/New_Systems/rnas/1qd3

>  <Rbt.Executable>
rbdock ($Id: //depot/dev/client3/rdock/2013.1/src/exe/rbdock.cxx#4 $)

>  <Rbt.Library>
libRbt.so (2013.1, Build901 2013/11/27)

>  <Rbt.Parameter_File>
/export/apps/rDock/src/rDock_2013.1_src/data/scripts/dock_solv.prm

>  <Rbt.Receptor>
prm/pocket_docking_4.prm

>  <SCORE>
-56.6042

>  <SCORE.INTER>
-42.0683

>  <SCORE.INTER.CONST>
1

>  <SCORE.INTER.POLAR>
-7.4005

>  <SCORE.INTER.ROT>
9

>  <SCORE.INTER.SOLV>
38.8608

>  <SCORE.INTER.VDW>
-25.9308

>  <SCORE.INTER.norm>
-1.00163

>  <SCORE.INTRA>
-14.7334

>  <SCORE.INTRA.DIHEDRAL>
-12.9649

>  <SCORE.INTRA.DIHEDRAL.0>
40.6252

>  <SCORE.INTRA.POLAR>
1.13861

>  <SCORE.INTRA.POLAR.0>
-1.20161

>  <SCORE.INTRA.REPUL>
-0.115675

>  <SCORE.INTRA.REPUL.0>
0.115675

>  <SCORE.INTRA.SOLV>
-10.6708

>  <SCORE.INTRA.SOLV.lig_0>
-154.895

>  <SCORE.INTRA.VDW>
-6.20841

>  <SCORE.INTRA.VDW.0>
2.2925

>  <SCORE.INTRA.norm>
-0.350794

>  <SCORE.RESTR>
0.197482

>  <SCORE.RESTR.CAVITY>
0.197482

>  <SCORE.RESTR.norm>
0.00470196

>  <SCORE.SYSTEM>
0

>  <SCORE.SYSTEM.CONST>
0

>  <SCORE.SYSTEM.DIHEDRAL>
0

>  <SCORE.SYSTEM.SOLV>
0

>  <SCORE.SYSTEM.norm>
0

>  <SCORE.heavy>
42

>  <SCORE.norm>
-1.34772

>  <RMSD>
9.359

$$$$

 OpenBabel11021811413D
libRbt.so/2013.1/901 2013/11/27
 42 45  0  0  0  0  0  0  0  0999 V2000
   12.7020   -1.6455   -0.9710 O   0  0  0  0  0  0  0  0  0  0  0  0
   12.6057   -0.4556   -1.7408 C   0  0  0  0  0  0  0  0  0  0  0  0
   11.1813   -0.2982   -2.2745 C   0  0  1  0  0  0  0  0  0  0  0  0
   10.7228   -1.5100   -2.9124 O   0  0  0  0  0  0  0  0  0  0  0  0
   10.1614    0.0095   -1.1908 C   0  0  2  0  0  0  0  0  0  0  0  0
    8.8767   -0.3869   -1.8988 C   0  0  1  0  0  0  0  0  0  0  0  0
    8.5038    0.6292   -2.8231 O   0  0  0  0  0  0  0  0  0  0  0  0
    9.3023   -1.6583   -2.6610 C   0  0  2  0  0  0  0  0  0  0  0  0
    9.8107    3.2260    2.3196 C   0  0  2  0  0  0  0  0  0  0  0  0
   10.0550    2.9943    0.9239 O   0  0  0  0  0  0  0  0  0  0  0  0
    9.8717    1.6121    0.5682 C   0  0  2  0  0  0  0  0  0  0  0  0
   10.1809    1.4035   -0.8255 O   0  0  0  0  0  0  0  0  0  0  0  0
    8.4324    1.1603    0.8694 C   0  0  2  0  0  0  0  0  0  0  0  0
    7.5140    1.6626   -0.1360 N   0  3  0  0  0  0  0  0  0  0  0  0
    7.9608    1.5565    2.2735 C   0  0  1  0  0  0  0  0  0  0  0  0
    8.5250    0.6704    3.2272 O   0  0  0  0  0  0  0  0  0  0  0  0
    8.3367    2.9932    2.6258 C   0  0  2  0  0  0  0  0  0  0  0  0
    7.5326    3.9017    1.8824 O   0  0  0  0  0  0  0  0  0  0  0  0
   10.2303    4.6399    2.7117 C   0  0  0  0  0  0  0  0  0  0  0  0
   11.6443    4.8384    2.4541 N   0  3  0  0  0  0  0  0  0  0  0  0
    7.7174   -6.6237   -2.2934 C   0  0  1  0  0  0  0  0  0  0  0  0
    8.8824   -6.8317   -3.1190 O   0  0  0  0  0  0  0  0  0  0  0  0
    8.8207   -6.1323   -4.3833 C   0  0  2  0  0  0  0  0  0  0  0  0
    8.8382   -4.6938   -4.2100 O   0  0  0  0  0  0  0  0  0  0  0  0
    7.5934   -6.5774   -5.1879 C   0  0  2  0  0  0  0  0  0  0  0  0
    7.4265   -5.7240   -6.3496 N   0  3  0  0  0  0  0  0  0  0  0  0
    6.3216   -6.5351   -4.3482 C   0  0  1  0  0  0  0  0  0  0  0  0
    5.2646   -7.1721   -5.0491 O   0  0  0  0  0  0  0  0  0  0  0  0
    6.4829   -7.1829   -2.9815 C   0  0  2  0  0  0  0  0  0  0  0  0
    5.3322   -6.9456   -2.1839 O   0  0  0  0  0  0  0  0  0  0  0  0
    7.8803   -7.3582   -0.9657 C   0  0  0  0  0  0  0  0  0  0  0  0
    6.7588   -7.0845   -0.0859 N   0  3  0  0  0  0  0  0  0  0  0  0
   12.1899   -4.9246   -1.6000 C   0  0  2  0  0  0  0  0  0  0  0  0
   12.4495   -4.9216   -3.0936 C   0  0  0  0  0  0  0  0  0  0  0  0
   11.1761   -5.2401   -3.8551 C   0  0  1  0  0  0  0  0  0  0  0  0
   10.0690   -4.2144   -3.6078 C   0  0  2  0  0  0  0  0  0  0  0  0
    9.8589   -3.9810   -2.0938 C   0  0  1  0  0  0  0  0  0  0  0  0
   11.1279   -3.8960   -1.2355 C   0  0  1  0  0  0  0  0  0  0  0  0
   13.4220   -4.6237   -0.8962 N   0  3  0  0  0  0  0  0  0  0  0  0
   11.4825   -5.3284   -5.2695 N   0  3  0  0  0  0  0  0  0  0  0  0
    9.0144   -2.8303   -1.8456 O   0  0  0  0  0  0  0  0  0  0  0  0
   10.7881   -4.0241    0.1412 O   0  0  0  0  0  0  0  0  0  0  0  0
  1  2  1  0  0  0  0
  3  2  1  1  0  0  0
  3  4  1  0  0  0  0
  3  5  1  0  0  0  0
  4  8  1  0  0  0  0
  5  6  1  0  0  0  0
  5 12  1  6  0  0  0
  6  7  1  6  0  0  0
  6  8  1  0  0  0  0
  8 41  1  1  0  0  0
  9 10  1  0  0  0  0
  9 17  1  0  0  0  0
  9 19  1  6  0  0  0
 10 11  1  0  0  0  0
 11 12  1  6  0  0  0
 11 13  1  0  0  0  0
 13 14  1  6  0  0  0
 13 15  1  0  0  0  0
 15 16  1  1  0  0  0
 15 17  1  0  0  0  0
 17 18  1  6  0  0  0
 19 20  1  0  0  0  0
 21 22  1  0  0  0  0
 21 29  1  0  0  0  0
 21 31  1  1  0  0  0
 22 23  1  0  0  0  0
 23 24  1  1  0  0  0
 23 25  1  0  0  0  0
 25 26  1  6  0  0  0
 25 27  1  0  0  0  0
 27 28  1  6  0  0  0
 27 29  1  0  0  0  0
 29 30  1  1  0  0  0
 31 32  1  0  0  0  0
 33 34  1  0  0  0  0
 33 38  1  0  0  0  0
 33 39  1  1  0  0  0
 34 35  1  0  0  0  0
 35 36  1  0  0  0  0
 35 40  1  6  0  0  0
 36 24  1  1  0  0  0
 36 37  1  0  0  0  0
 37 38  1  0  0  0  0
 37 41  1  6  0  0  0
 38 42  1  1  0  0  0
M  CHG  6  14   1  20   1  26   1  32   1  39   1  40   1
M  END
>  <CHROM.1>
-168.97641167,-49.86018035,-147.10008986,-17.65742604,-35.92632734,-59.93144349
173.27753001,26.71391246,-63.88658910,-179.37031356,-172.45513406,176.05561527
63.26197898,22.97690033,-29.90162162,-56.37485960,60.99355756,-170.04018299
85.50851119,67.96922792,-43.42354179,64.70046877,9.34765294,-2.30617130,-1.47074897
-1.43170128,-0.19278448,-2.60458284

>  <Name>


>  <RI>
0

>  <Rbt.Current_Directory>
/home/itssahil/PROJECTS/Mol_Feturizer/New_Systems/rnas/1qd3

>  <Rbt.Executable>
rbdock ($Id: //depot/dev/client3/rdock/2013.1/src/exe/rbdock.cxx#4 $)

>  <Rbt.Library>
libRbt.so (2013.1, Build901 2013/11/27)

>  <Rbt.Parameter_File>
/export/apps/rDock/src/rDock_2013.1_src/data/scripts/dock_solv.prm

>  <Rbt.Receptor>
prm/pocket_docking_3.prm

>  <SCORE>
-33.5252

>  <SCORE.INTER>
-20.5402

>  <SCORE.INTER.CONST>
1

>  <SCORE.INTER.POLAR>
-4.06849

>  <SCORE.INTER.ROT>
9

>  <SCORE.INTER.SOLV>
30.9181

>  <SCORE.INTER.VDW>
-20.0379

>  <SCORE.INTER.norm>
-0.489053

>  <SCORE.INTRA>
-13.5451

>  <SCORE.INTRA.DIHEDRAL>
-13.2387

>  <SCORE.INTRA.DIHEDRAL.0>
40.6252

>  <SCORE.INTRA.POLAR>
-0.723693

>  <SCORE.INTRA.POLAR.0>
-1.20161

>  <SCORE.INTRA.REPUL>
-0.115675

>  <SCORE.INTRA.REPUL.0>
0.115675

>  <SCORE.INTRA.SOLV>
-3.00018

>  <SCORE.INTRA.SOLV.lig_0>
-154.895

>  <SCORE.INTRA.VDW>
-2.38666

>  <SCORE.INTRA.VDW.0>
2.2925

>  <SCORE.INTRA.norm>
-0.322501

>  <SCORE.RESTR>
0.560068

>  <SCORE.RESTR.CAVITY>
0.560068

>  <SCORE.RESTR.norm>
0.0133349

>  <SCORE.SYSTEM>
0

>  <SCORE.SYSTEM.CONST>
0

>  <SCORE.SYSTEM.DIHEDRAL>
0

>  <SCORE.SYSTEM.SOLV>
0

>  <SCORE.SYSTEM.norm>
0

>  <SCORE.heavy>
42

>  <SCORE.norm>
-0.798219

>  <RMSD>
9.373

$$$$

 OpenBabel11021811413D
libRbt.so/2013.1/901 2013/11/27
 42 45  0  0  0  0  0  0  0  0999 V2000
   10.1337    2.0731   -1.4786 O   0  0  0  0  0  0  0  0  0  0  0  0
   10.3088    0.6764   -1.6692 C   0  0  0  0  0  0  0  0  0  0  0  0
    8.9453   -0.0140   -1.7204 C   0  0  1  0  0  0  0  0  0  0  0  0
    9.0293   -1.2936   -2.3847 O   0  0  0  0  0  0  0  0  0  0  0  0
    8.3614   -0.2992   -0.3467 C   0  0  2  0  0  0  0  0  0  0  0  0
    7.3452   -1.3737   -0.6952 C   0  0  1  0  0  0  0  0  0  0  0  0
    6.1958   -0.7756   -1.2843 O   0  0  0  0  0  0  0  0  0  0  0  0
    8.1003   -2.2082   -1.7497 C   0  0  2  0  0  0  0  0  0  0  0  0
   10.5098    2.2360    2.1897 C   0  0  2  0  0  0  0  0  0  0  0  0
    9.7647    1.8094    1.0389 O   0  0  0  0  0  0  0  0  0  0  0  0
    8.4476    1.3493    1.3915 C   0  0  2  0  0  0  0  0  0  0  0  0
    7.7483    0.8744    0.2223 O   0  0  0  0  0  0  0  0  0  0  0  0
    7.6459    2.4702    2.0750 C   0  0  2  0  0  0  0  0  0  0  0  0
    7.1752    3.4354    1.0986 N   0  3  0  0  0  0  0  0  0  0  0  0
    8.4285    3.1728    3.1906 C   0  0  1  0  0  0  0  0  0  0  0  0
    8.4305    2.3560    4.3507 O   0  0  0  0  0  0  0  0  0  0  0  0
    9.8658    3.4832    2.7817 C   0  0  2  0  0  0  0  0  0  0  0  0
    9.8823    4.5414    1.8307 O   0  0  0  0  0  0  0  0  0  0  0  0
   11.9665    2.5003    1.8197 C   0  0  0  0  0  0  0  0  0  0  0  0
   12.7812    2.6095    3.0152 N   0  3  0  0  0  0  0  0  0  0  0  0
    6.2430   -6.1888   -5.0875 C   0  0  1  0  0  0  0  0  0  0  0  0
    6.4122   -4.8611   -4.5482 O   0  0  0  0  0  0  0  0  0  0  0  0
    7.0532   -4.8468   -3.2519 C   0  0  2  0  0  0  0  0  0  0  0  0
    8.4238   -5.3124   -3.3183 O   0  0  0  0  0  0  0  0  0  0  0  0
    6.2409   -5.6619   -2.2383 C   0  0  2  0  0  0  0  0  0  0  0  0
    6.9950   -5.8155   -1.0080 N   0  3  0  0  0  0  0  0  0  0  0  0
    5.8807   -7.0406   -2.7806 C   0  0  1  0  0  0  0  0  0  0  0  0
    4.9405   -7.6627   -1.9186 O   0  0  0  0  0  0  0  0  0  0  0  0
    5.3204   -7.0018   -4.1941 C   0  0  2  0  0  0  0  0  0  0  0  0
    5.1835   -8.3189   -4.7070 O   0  0  0  0  0  0  0  0  0  0  0  0
    5.6008   -6.1132   -6.4697 C   0  0  0  0  0  0  0  0  0  0  0  0
    5.6970   -7.3907   -7.1519 N   0  3  0  0  0  0  0  0  0  0  0  0
   12.2482   -3.5649   -2.6704 C   0  0  2  0  0  0  0  0  0  0  0  0
   11.7256   -3.6273   -4.0920 C   0  0  0  0  0  0  0  0  0  0  0  0
   10.5772   -4.6140   -4.1934 C   0  0  1  0  0  0  0  0  0  0  0  0
    9.3878   -4.2269   -3.3134 C   0  0  2  0  0  0  0  0  0  0  0  0
    9.8432   -3.9332   -1.8653 C   0  0  1  0  0  0  0  0  0  0  0  0
   11.1466   -3.1387   -1.7094 C   0  0  1  0  0  0  0  0  0  0  0  0
   13.3471   -2.6207   -2.6019 N   0  3  0  0  0  0  0  0  0  0  0  0
   10.1705   -4.7230   -5.5809 N   0  3  0  0  0  0  0  0  0  0  0  0
    8.7878   -3.3111   -1.0920 O   0  0  0  0  0  0  0  0  0  0  0  0
   11.6143   -3.2383   -0.3683 O   0  0  0  0  0  0  0  0  0  0  0  0
  1  2  1  0  0  0  0
  3  2  1  1  0  0  0
  3  4  1  0  0  0  0
  3  5  1  0  0  0  0
  4  8  1  0  0  0  0
  5  6  1  0  0  0  0
  5 12  1  6  0  0  0
  6  7  1  6  0  0  0
  6  8  1  0  0  0  0
  8 41  1  1  0  0  0
  9 10  1  0  0  0  0
  9 17  1  0  0  0  0
  9 19  1  6  0  0  0
 10 11  1  0  0  0  0
 11 12  1  6  0  0  0
 11 13  1  0  0  0  0
 13 14  1  6  0  0  0
 13 15  1  0  0  0  0
 15 16  1  1  0  0  0
 15 17  1  0  0  0  0
 17 18  1  6  0  0  0
 19 20  1  0  0  0  0
 21 22  1  0  0  0  0
 21 29  1  0  0  0  0
 21 31  1  6  0  0  0
 22 23  1  0  0  0  0
 23 24  1  6  0  0  0
 23 25  1  0  0  0  0
 25 26  1  1  0  0  0
 25 27  1  0  0  0  0
 27 28  1  1  0  0  0
 27 29  1  0  0  0  0
 29 30  1  6  0  0  0
 31 32  1  0  0  0  0
 33 34  1  0  0  0  0
 33 38  1  0  0  0  0
 33 39  1  6  0  0  0
 34 35  1  0  0  0  0
 35 36  1  0  0  0  0
 35 40  1  6  0  0  0
 36 24  1  1  0  0  0
 36 37  1  0  0  0  0
 37 38  1  0  0  0  0
 37 41  1  6  0  0  0
 38 42  1  1  0  0  0
M  CHG  6  14   1  20   1  26   1  32   1  39   1  40   1
M  END
>  <CHROM.1>
74.70890832,158.76116839,-113.60821754,-122.97297232,-45.36970659,-166.07489195
65.46412101,-94.38315696,64.96674419,-167.00353988,-68.31420971,167.09836107
100.74930208,-145.36599902,144.25899977,-60.04486236,-171.65905709,56.19694593
-167.23454125,-66.65297736,-46.83676816,77.52078182,8.66480942,-2.02657276
-1.43029029,-1.30133209,-0.20045006,-2.48163582

>  <Name>


>  <RI>
0

>  <Rbt.Current_Directory>
/home/itssahil/PROJECTS/Mol_Feturizer/New_Systems/rnas/1qd3

>  <Rbt.Executable>
rbdock ($Id: //depot/dev/client3/rdock/2013.1/src/exe/rbdock.cxx#4 $)

>  <Rbt.Library>
libRbt.so (2013.1, Build901 2013/11/27)

>  <Rbt.Parameter_File>
/export/apps/rDock/src/rDock_2013.1_src/data/scripts/dock_solv.prm

>  <Rbt.Receptor>
prm/pocket_docking_3.prm

>  <SCORE>
-54.9994

>  <SCORE.INTER>
-35.861

>  <SCORE.INTER.CONST>
1

>  <SCORE.INTER.POLAR>
-5.65998

>  <SCORE.INTER.ROT>
9

>  <SCORE.INTER.SOLV>
33.6913

>  <SCORE.INTER.VDW>
-25.8711

>  <SCORE.INTER.norm>
-0.853832

>  <SCORE.INTRA>
-20.3944

>  <SCORE.INTRA.DIHEDRAL>
-0.838727

>  <SCORE.INTRA.DIHEDRAL.0>
40.6252

>  <SCORE.INTRA.POLAR>
-1.9176

>  <SCORE.INTRA.POLAR.0>
-1.20161

>  <SCORE.INTRA.REPUL>
-0.115675

>  <SCORE.INTRA.REPUL.0>
0.115675

>  <SCORE.INTRA.SOLV>
-7.10936

>  <SCORE.INTRA.SOLV.lig_0>
-154.895

>  <SCORE.INTRA.VDW>
-9.32216

>  <SCORE.INTRA.VDW.0>
2.2925

>  <SCORE.INTRA.norm>
-0.485581

>  <SCORE.RESTR>
1.256

>  <SCORE.RESTR.CAVITY>
1.256

>  <SCORE.RESTR.norm>
0.0299047

>  <SCORE.SYSTEM>
0

>  <SCORE.SYSTEM.CONST>
0

>  <SCORE.SYSTEM.DIHEDRAL>
0

>  <SCORE.SYSTEM.SOLV>
0

>  <SCORE.SYSTEM.norm>
0

>  <SCORE.heavy>
42

>  <SCORE.norm>
-1.30951

>  <RMSD>
9.379

$$$$

 OpenBabel11021811413D
libRbt.so/2013.1/901 2013/11/27
 42 45  0  0  0  0  0  0  0  0999 V2000
   11.4681    1.8037   -0.5966 O   0  0  0  0  0  0  0  0  0  0  0  0
   10.7440    0.8753    0.1981 C   0  0  0  0  0  0  0  0  0  0  0  0
    9.4780    0.4388   -0.5401 C   0  0  1  0  0  0  0  0  0  0  0  0
    9.7579   -0.6195   -1.4821 O   0  0  0  0  0  0  0  0  0  0  0  0
    8.3986   -0.1036    0.3819 C   0  0  2  0  0  0  0  0  0  0  0  0
    7.5511   -0.8813   -0.6110 C   0  0  1  0  0  0  0  0  0  0  0  0
    6.7434    0.0183   -1.3621 O   0  0  0  0  0  0  0  0  0  0  0  0
    8.6187   -1.5156   -1.5257 C   0  0  2  0  0  0  0  0  0  0  0  0
    9.3598    4.0321    2.0343 C   0  0  2  0  0  0  0  0  0  0  0  0
    8.4815    3.1631    1.3028 O   0  0  0  0  0  0  0  0  0  0  0  0
    8.5104    1.8173    1.8115 C   0  0  2  0  0  0  0  0  0  0  0  0
    7.6631    0.9593    1.0194 O   0  0  0  0  0  0  0  0  0  0  0  0
    8.0742    1.7849    3.2863 C   0  0  2  0  0  0  0  0  0  0  0  0
    6.6338    1.9220    3.4002 N   0  3  0  0  0  0  0  0  0  0  0  0
    8.7837    2.8385    4.1449 C   0  0  1  0  0  0  0  0  0  0  0  0
   10.0994    2.3972    4.4400 O   0  0  0  0  0  0  0  0  0  0  0  0
    8.8435    4.1999    3.4576 C   0  0  2  0  0  0  0  0  0  0  0  0
    7.5505    4.7936    3.4428 O   0  0  0  0  0  0  0  0  0  0  0  0
    9.4815    5.3843    1.3374 C   0  0  0  0  0  0  0  0  0  0  0  0
   10.5613    5.3596    0.3687 N   0  3  0  0  0  0  0  0  0  0  0  0
    8.0866   -6.1207   -1.9617 C   0  0  1  0  0  0  0  0  0  0  0  0
    9.0590   -6.0675   -3.0264 O   0  0  0  0  0  0  0  0  0  0  0  0
    8.6255   -5.2800   -4.1593 C   0  0  2  0  0  0  0  0  0  0  0  0
    8.4824   -3.8777   -3.8234 O   0  0  0  0  0  0  0  0  0  0  0  0
    7.3247   -5.8440   -4.7435 C   0  0  2  0  0  0  0  0  0  0  0  0
    6.7908   -4.9308   -5.7369 N   0  3  0  0  0  0  0  0  0  0  0  0
    6.2749   -6.0786   -3.6630 C   0  0  1  0  0  0  0  0  0  0  0  0
    5.1878   -6.8131   -4.2041 O   0  0  0  0  0  0  0  0  0  0  0  0
    6.8201   -6.8083   -2.4449 C   0  0  2  0  0  0  0  0  0  0  0  0
    5.8512   -6.8280   -1.4069 O   0  0  0  0  0  0  0  0  0  0  0  0
    8.6366   -6.9321   -0.7921 C   0  0  0  0  0  0  0  0  0  0  0  0
    8.1082   -6.4413    0.4675 N   0  3  0  0  0  0  0  0  0  0  0  0
   12.4090   -3.9598   -2.1879 C   0  0  2  0  0  0  0  0  0  0  0  0
   12.2365   -3.4340   -3.5993 C   0  0  0  0  0  0  0  0  0  0  0  0
   10.8861   -3.8432   -4.1576 C   0  0  1  0  0  0  0  0  0  0  0  0
    9.7178   -3.2850   -3.3437 C   0  0  2  0  0  0  0  0  0  0  0  0
    9.8976   -3.5877   -1.8381 C   0  0  1  0  0  0  0  0  0  0  0  0
   11.3153   -3.4221   -1.2750 C   0  0  1  0  0  0  0  0  0  0  0  0
   13.7078   -3.5604   -1.6803 N   0  3  0  0  0  0  0  0  0  0  0  0
   10.7970   -3.4118   -5.5390 N   0  3  0  0  0  0  0  0  0  0  0  0
    8.9531   -2.8437   -1.0299 O   0  0  0  0  0  0  0  0  0  0  0  0
   11.4035   -4.0487    0.0004 O   0  0  0  0  0  0  0  0  0  0  0  0
  1  2  1  0  0  0  0
  3  2  1  1  0  0  0
  3  4  1  0  0  0  0
  3  5  1  0  0  0  0
  4  8  1  0  0  0  0
  5  6  1  0  0  0  0
  5 12  1  6  0  0  0
  6  7  1  6  0  0  0
  6  8  1  0  0  0  0
  8 41  1  1  0  0  0
  9 10  1  0  0  0  0
  9 17  1  0  0  0  0
  9 19  1  6  0  0  0
 10 11  1  0  0  0  0
 11 12  1  6  0  0  0
 11 13  1  0  0  0  0
 13 14  1  6  0  0  0
 13 15  1  0  0  0  0
 15 16  1  6  0  0  0
 15 17  1  0  0  0  0
 17 18  1  6  0  0  0
 19 20  1  0  0  0  0
 21 22  1  0  0  0  0
 21 29  1  0  0  0  0
 21 31  1  1  0  0  0
 22 23  1  0  0  0  0
 23 24  1  1  0  0  0
 23 25  1  0  0  0  0
 25 26  1  6  0  0  0
 25 27  1  0  0  0  0
 27 28  1  6  0  0  0
 27 29  1  0  0  0  0
 29 30  1  1  0  0  0
 31 32  1  0  0  0  0
 33 34  1  0  0  0  0
 33 38  1  0  0  0  0
 33 39  1  1  0  0  0
 34 35  1  0  0  0  0
 35 36  1  0  0  0  0
 35 40  1  6  0  0  0
 36 24  1  6  0  0  0
 36 37  1  0  0  0  0
 37 38  1  0  0  0  0
 37 41  1  1  0  0  0
 38 42  1  1  0  0  0
M  CHG  6  14   1  20   1  26   1  32   1  39   1  40   1
M  END
>  <CHROM.1>
68.74843065,82.93016310,-59.47111513,-164.05779594,-66.25656783,-88.80914896
118.26533476,-26.01202811,62.25805916,-176.71371614,-165.05642697,148.84816317
59.24569571,38.93421472,49.41125845,68.53607281,-63.52439903,-65.67634237
-69.59035106,-162.34024011,-34.40348947,-54.62831279,8.97309205,-1.61945423
-0.84375367,-1.50965861,-0.41470253,-2.56161622

>  <Name>


>  <RI>
0

>  <Rbt.Current_Directory>
/home/itssahil/PROJECTS/Mol_Feturizer/New_Systems/rnas/1qd3

>  <Rbt.Executable>
rbdock ($Id: //depot/dev/client3/rdock/2013.1/src/exe/rbdock.cxx#4 $)

>  <Rbt.Library>
libRbt.so (2013.1, Build901 2013/11/27)

>  <Rbt.Parameter_File>
/export/apps/rDock/src/rDock_2013.1_src/data/scripts/dock_solv.prm

>  <Rbt.Receptor>
prm/pocket_docking_3.prm

>  <SCORE>
-33.6518

>  <SCORE.INTER>
-20.986

>  <SCORE.INTER.CONST>
1

>  <SCORE.INTER.POLAR>
-3.95436

>  <SCORE.INTER.ROT>
9

>  <SCORE.INTER.SOLV>
35.3095

>  <SCORE.INTER.VDW>
-22.1793

>  <SCORE.INTER.norm>
-0.499667

>  <SCORE.INTRA>
-13.691

>  <SCORE.INTRA.DIHEDRAL>
-14.1563

>  <SCORE.INTRA.DIHEDRAL.0>
40.6252

>  <SCORE.INTRA.POLAR>
1.20161

>  <SCORE.INTRA.POLAR.0>
-1.20161

>  <SCORE.INTRA.REPUL>
-0.11212

>  <SCORE.INTRA.REPUL.0>
0.115675

>  <SCORE.INTRA.SOLV>
-11.2108

>  <SCORE.INTRA.SOLV.lig_0>
-154.895

>  <SCORE.INTRA.VDW>
-4.53233

>  <SCORE.INTRA.VDW.0>
2.2925

>  <SCORE.INTRA.norm>
-0.325976

>  <SCORE.RESTR>
1.02523

>  <SCORE.RESTR.CAVITY>
1.02523

>  <SCORE.RESTR.norm>
0.0244103

>  <SCORE.SYSTEM>
0

>  <SCORE.SYSTEM.CONST>
0

>  <SCORE.SYSTEM.DIHEDRAL>
0

>  <SCORE.SYSTEM.SOLV>
0

>  <SCORE.SYSTEM.norm>
0

>  <SCORE.heavy>
42

>  <SCORE.norm>
-0.801232

>  <RMSD>
9.379

$$$$

 OpenBabel11021811413D
libRbt.so/2013.1/901 2013/11/27
 42 45  0  0  0  0  0  0  0  0999 V2000
    8.3390   -4.6290    1.7211 O   0  0  0  0  0  0  0  0  0  0  0  0
    8.7439   -4.2423    0.4156 C   0  0  0  0  0  0  0  0  0  0  0  0
    9.0393   -5.4856   -0.4242 C   0  0  1  0  0  0  0  0  0  0  0  0
    8.2253   -5.5193   -1.6166 O   0  0  0  0  0  0  0  0  0  0  0  0
   10.4791   -5.5611   -0.9047 C   0  0  2  0  0  0  0  0  0  0  0  0
   10.3362   -6.5436   -2.0549 C   0  0  1  0  0  0  0  0  0  0  0  0
   10.2224   -7.8677   -1.5452 O   0  0  0  0  0  0  0  0  0  0  0  0
    8.9996   -6.1103   -2.6909 C   0  0  2  0  0  0  0  0  0  0  0  0
   14.4283   -4.1727   -0.5073 C   0  0  2  0  0  0  0  0  0  0  0  0
   13.0629   -4.4279   -0.1439 O   0  0  0  0  0  0  0  0  0  0  0  0
   12.7493   -5.8317   -0.1841 C   0  0  2  0  0  0  0  0  0  0  0  0
   11.3576   -6.0479    0.1290 O   0  0  0  0  0  0  0  0  0  0  0  0
   13.6441   -6.6160    0.7909 C   0  0  2  0  0  0  0  0  0  0  0  0
   13.1964   -6.4352    2.1596 N   0  3  0  0  0  0  0  0  0  0  0  0
   15.1297   -6.2598    0.6602 C   0  0  1  0  0  0  0  0  0  0  0  0
   15.6698   -6.9050   -0.4822 O   0  0  0  0  0  0  0  0  0  0  0  0
   15.3561   -4.7544    0.5516 C   0  0  2  0  0  0  0  0  0  0  0  0
   15.1131   -4.1349    1.8093 O   0  0  0  0  0  0  0  0  0  0  0  0
   14.6688   -2.6753   -0.6771 C   0  0  0  0  0  0  0  0  0  0  0  0
   14.2378   -1.9556    0.5066 N   0  3  0  0  0  0  0  0  0  0  0  0
    5.4997   -8.2906   -4.1077 C   0  0  1  0  0  0  0  0  0  0  0  0
    6.8401   -7.8070   -3.8804 O   0  0  0  0  0  0  0  0  0  0  0  0
    7.3292   -6.9549   -4.9416 C   0  0  2  0  0  0  0  0  0  0  0  0
    6.5827   -5.7162   -5.0317 O   0  0  0  0  0  0  0  0  0  0  0  0
    7.3238   -7.7023   -6.2807 C   0  0  2  0  0  0  0  0  0  0  0  0
    7.6129   -6.7807   -7.3636 N   0  3  0  0  0  0  0  0  0  0  0  0
    5.9839   -8.3803   -6.5440 C   0  0  1  0  0  0  0  0  0  0  0  0
    6.0978   -9.2457   -7.6630 O   0  0  0  0  0  0  0  0  0  0  0  0
    5.4637   -9.1657   -5.3499 C   0  0  2  0  0  0  0  0  0  0  0  0
    4.1375   -9.6116   -5.5923 O   0  0  0  0  0  0  0  0  0  0  0  0
    5.0450   -9.1436   -2.9269 C   0  0  0  0  0  0  0  0  0  0  0  0
    4.1529   -8.3921   -2.0631 N   0  3  0  0  0  0  0  0  0  0  0  0
    7.2669   -1.9675   -3.1401 C   0  0  2  0  0  0  0  0  0  0  0  0
    5.9727   -2.6945   -2.8323 C   0  0  0  0  0  0  0  0  0  0  0  0
    5.7108   -3.7742   -3.8660 C   0  0  1  0  0  0  0  0  0  0  0  0
    6.8073   -4.8399   -3.8963 C   0  0  2  0  0  0  0  0  0  0  0  0
    8.2069   -4.1910   -4.0004 C   0  0  1  0  0  0  0  0  0  0  0  0
    8.4410   -2.9370   -3.1477 C   0  0  1  0  0  0  0  0  0  0  0  0
    7.4906   -0.9387   -2.1423 N   0  3  0  0  0  0  0  0  0  0  0  0
    4.4200   -4.3785   -3.5995 N   0  3  0  0  0  0  0  0  0  0  0  0
    9.2598   -5.1570   -3.7610 O   0  0  0  0  0  0  0  0  0  0  0  0
    9.6155   -2.2652   -3.5910 O   0  0  0  0  0  0  0  0  0  0  0  0
  1  2  1  0  0  0  0
  3  2  1  6  0  0  0
  3  4  1  0  0  0  0
  3  5  1  0  0  0  0
  4  8  1  0  0  0  0
  5  6  1  0  0  0  0
  5 12  1  1  0  0  0
  6  7  1  1  0  0  0
  6  8  1  0  0  0  0
  8 41  1  6  0  0  0
  9 10  1  0  0  0  0
  9 17  1  0  0  0  0
  9 19  1  1  0  0  0
 10 11  1  0  0  0  0
 11 12  1  1  0  0  0
 11 13  1  0  0  0  0
 13 14  1  1  0  0  0
 13 15  1  0  0  0  0
 15 16  1  6  0  0  0
 15 17  1  0  0  0  0
 17 18  1  1  0  0  0
 19 20  1  0  0  0  0
 21 22  1  0  0  0  0
 21 29  1  0  0  0  0
 21 31  1  1  0  0  0
 22 23  1  0  0  0  0
 23 24  1  6  0  0  0
 23 25  1  0  0  0  0
 25 26  1  6  0  0  0
 25 27  1  0  0  0  0
 27 28  1  6  0  0  0
 27 29  1  0  0  0  0
 29 30  1  6  0  0  0
 31 32  1  0  0  0  0
 33 34  1  0  0  0  0
 33 38  1  0  0  0  0
 33 39  1  1  0  0  0
 34 35  1  0  0  0  0
 35 36  1  0  0  0  0
 35 40  1  1  0  0  0
 36 24  1  6  0  0  0
 36 37  1  0  0  0  0
 37 38  1  0  0  0  0
 37 41  1  1  0  0  0
 38 42  1  6  0  0  0
M  CHG  6  14   1  20   1  26   1  32   1  39   1  40   1
M  END
>  <CHROM.1>
60.03322052,122.32708087,-166.19077006,-61.53664213,-33.78847741,53.31555883
68.99005878,-149.47290521,-53.93619134,57.34324556,48.22868156,101.98385395
68.63742892,-163.95088288,66.60913460,-55.78274887,57.22612132,-40.34844453
-89.49341063,-55.22144292,-40.13461099,175.27993526,9.23939561,-5.62833218
-2.31109717,0.38606440,-0.52496166,0.24963344

>  <Name>


>  <RI>
0

>  <Rbt.Current_Directory>
/home/itssahil/PROJECTS/Mol_Feturizer/New_Systems/rnas/1qd3

>  <Rbt.Executable>
rbdock ($Id: //depot/dev/client3/rdock/2013.1/src/exe/rbdock.cxx#4 $)

>  <Rbt.Library>
libRbt.so (2013.1, Build901 2013/11/27)

>  <Rbt.Parameter_File>
/export/apps/rDock/src/rDock_2013.1_src/data/scripts/dock_solv.prm

>  <Rbt.Receptor>
prm/pocket_docking_8.prm

>  <SCORE>
-43.4199

>  <SCORE.INTER>
-25.4347

>  <SCORE.INTER.CONST>
1

>  <SCORE.INTER.POLAR>
-5.81665

>  <SCORE.INTER.ROT>
9

>  <SCORE.INTER.SOLV>
34.9016

>  <SCORE.INTER.VDW>
-18.8015

>  <SCORE.INTER.norm>
-0.605589

>  <SCORE.INTRA>
-17.9851

>  <SCORE.INTRA.DIHEDRAL>
-18.3805

>  <SCORE.INTRA.DIHEDRAL.0>
40.6252

>  <SCORE.INTRA.POLAR>
0.785226

>  <SCORE.INTRA.POLAR.0>
-1.20161

>  <SCORE.INTRA.REPUL>
-0.106775

>  <SCORE.INTRA.REPUL.0>
0.115675

>  <SCORE.INTRA.SOLV>
-10.0366

>  <SCORE.INTRA.SOLV.lig_0>
-154.895

>  <SCORE.INTRA.VDW>
-5.91247

>  <SCORE.INTRA.VDW.0>
2.2925

>  <SCORE.INTRA.norm>
-0.428217

>  <SCORE.RESTR>
0

>  <SCORE.RESTR.CAVITY>
0

>  <SCORE.RESTR.norm>
0

>  <SCORE.SYSTEM>
0

>  <SCORE.SYSTEM.CONST>
0

>  <SCORE.SYSTEM.DIHEDRAL>
0

>  <SCORE.SYSTEM.SOLV>
0

>  <SCORE.SYSTEM.norm>
0

>  <SCORE.heavy>
42

>  <SCORE.norm>
-1.03381

>  <RMSD>
9.381

$$$$

 OpenBabel11021811413D
libRbt.so/2013.1/901 2013/11/27
 42 45  0  0  0  0  0  0  0  0999 V2000
   10.9602    1.2713   -1.8710 O   0  0  0  0  0  0  0  0  0  0  0  0
   10.4382    0.7756   -0.6464 C   0  0  0  0  0  0  0  0  0  0  0  0
    9.1605   -0.0212   -0.9131 C   0  0  1  0  0  0  0  0  0  0  0  0
    9.4193   -1.1589   -1.7641 O   0  0  0  0  0  0  0  0  0  0  0  0
    8.5263   -0.5843    0.3479 C   0  0  2  0  0  0  0  0  0  0  0  0
    7.6519   -1.6762   -0.2456 C   0  0  1  0  0  0  0  0  0  0  0  0
    6.4846   -1.0986   -0.8197 O   0  0  0  0  0  0  0  0  0  0  0  0
    8.5541   -2.2493   -1.3574 C   0  0  2  0  0  0  0  0  0  0  0  0
    9.3257    3.6679    1.6130 C   0  0  2  0  0  0  0  0  0  0  0  0
    8.4630    2.6766    1.0345 O   0  0  0  0  0  0  0  0  0  0  0  0
    8.5948    1.4016    1.6886 C   0  0  2  0  0  0  0  0  0  0  0  0
    7.7594    0.4157    1.0471 O   0  0  0  0  0  0  0  0  0  0  0  0
    8.2358    1.5170    3.1800 C   0  0  2  0  0  0  0  0  0  0  0  0
    6.7975    1.5923    3.3590 N   0  3  0  0  0  0  0  0  0  0  0  0
    8.9259    2.6975    3.8735 C   0  0  1  0  0  0  0  0  0  0  0  0
   10.2780    2.3612    4.1415 O   0  0  0  0  0  0  0  0  0  0  0  0
    8.8729    3.9719    3.0353 C   0  0  2  0  0  0  0  0  0  0  0  0
    7.5488    4.4928    3.0270 O   0  0  0  0  0  0  0  0  0  0  0  0
    9.3345    4.9353    0.7630 C   0  0  0  0  0  0  0  0  0  0  0  0
   10.5916    5.6422    0.9204 N   0  3  0  0  0  0  0  0  0  0  0  0
    6.2739   -6.4250   -4.2673 C   0  0  1  0  0  0  0  0  0  0  0  0
    6.4817   -5.0764   -3.7981 O   0  0  0  0  0  0  0  0  0  0  0  0
    7.3648   -4.9971   -2.6557 C   0  0  2  0  0  0  0  0  0  0  0  0
    8.7162   -5.4040   -2.9842 O   0  0  0  0  0  0  0  0  0  0  0  0
    6.8094   -5.8177   -1.4853 C   0  0  2  0  0  0  0  0  0  0  0  0
    7.7983   -5.9030   -0.4267 N   0  3  0  0  0  0  0  0  0  0  0  0
    6.4165   -7.2256   -1.9185 C   0  0  1  0  0  0  0  0  0  0  0  0
    5.6965   -7.8634   -0.8749 O   0  0  0  0  0  0  0  0  0  0  0  0
    5.5866   -7.2517   -3.1929 C   0  0  2  0  0  0  0  0  0  0  0  0
    5.4151   -8.5877   -3.6428 O   0  0  0  0  0  0  0  0  0  0  0  0
    5.3683   -6.4169   -5.4955 C   0  0  0  0  0  0  0  0  0  0  0  0
    5.4207   -7.6951   -6.1812 N   0  3  0  0  0  0  0  0  0  0  0  0
   12.5192   -3.4993   -2.8884 C   0  0  2  0  0  0  0  0  0  0  0  0
   11.8022   -3.5909   -4.2210 C   0  0  0  0  0  0  0  0  0  0  0  0
   10.6924   -4.6239   -4.1575 C   0  0  1  0  0  0  0  0  0  0  0  0
    9.6258   -4.2803   -3.1167 C   0  0  2  0  0  0  0  0  0  0  0  0
   10.2707   -3.9602   -1.7484 C   0  0  1  0  0  0  0  0  0  0  0  0
   11.5494   -3.1126   -1.7800 C   0  0  1  0  0  0  0  0  0  0  0  0
   13.5771   -2.5109   -2.9774 N   0  3  0  0  0  0  0  0  0  0  0  0
   10.0968   -4.7570   -5.4728 N   0  3  0  0  0  0  0  0  0  0  0  0
    9.3118   -3.3769   -0.8322 O   0  0  0  0  0  0  0  0  0  0  0  0
   12.2073   -3.1856   -0.5194 O   0  0  0  0  0  0  0  0  0  0  0  0
  1  2  1  0  0  0  0
  3  2  1  1  0  0  0
  3  4  1  0  0  0  0
  3  5  1  0  0  0  0
  4  8  1  0  0  0  0
  5  6  1  0  0  0  0
  5 12  1  6  0  0  0
  6  7  1  6  0  0  0
  6  8  1  0  0  0  0
  8 41  1  1  0  0  0
  9 10  1  0  0  0  0
  9 17  1  0  0  0  0
  9 19  1  6  0  0  0
 10 11  1  0  0  0  0
 11 12  1  6  0  0  0
 11 13  1  0  0  0  0
 13 14  1  6  0  0  0
 13 15  1  0  0  0  0
 15 16  1  6  0  0  0
 15 17  1  0  0  0  0
 17 18  1  6  0  0  0
 19 20  1  0  0  0  0
 21 22  1  0  0  0  0
 21 29  1  0  0  0  0
 21 31  1  6  0  0  0
 22 23  1  0  0  0  0
 23 24  1  6  0  0  0
 23 25  1  0  0  0  0
 25 26  1  1  0  0  0
 25 27  1  0  0  0  0
 27 28  1  1  0  0  0
 27 29  1  0  0  0  0
 29 30  1  6  0  0  0
 31 32  1  0  0  0  0
 33 34  1  0  0  0  0
 33 38  1  0  0  0  0
 33 39  1  6  0  0  0
 34 35  1  0  0  0  0
 35 36  1  0  0  0  0
 35 40  1  6  0  0  0
 36 24  1  1  0  0  0
 36 37  1  0  0  0  0
 37 38  1  0  0  0  0
 37 41  1  1  0  0  0
 38 42  1  1  0  0  0
M  CHG  6  14   1  20   1  26   1  32   1  39   1  40   1
M  END
>  <CHROM.1>
-66.13083149,61.22116561,-71.96005040,-84.93058340,-59.22403483,-152.47556532
110.92801572,-172.20742550,-173.39822618,-63.62914295,178.17666677,165.38387269
104.05637678,-148.30511723,29.27092054,-56.69922400,179.54518917,176.89024097
55.95017465,57.17829265,-50.67465144,-59.84441990,8.68470238,-2.01374064
-1.05031492,-1.38830254,-0.43645733,-2.52936688

>  <Name>


>  <RI>
0

>  <Rbt.Current_Directory>
/home/itssahil/PROJECTS/Mol_Feturizer/New_Systems/rnas/1qd3

>  <Rbt.Executable>
rbdock ($Id: //depot/dev/client3/rdock/2013.1/src/exe/rbdock.cxx#4 $)

>  <Rbt.Library>
libRbt.so (2013.1, Build901 2013/11/27)

>  <Rbt.Parameter_File>
/export/apps/rDock/src/rDock_2013.1_src/data/scripts/dock_solv.prm

>  <Rbt.Receptor>
prm/pocket_docking_3.prm

>  <SCORE>
-56.1074

>  <SCORE.INTER>
-33.8817

>  <SCORE.INTER.CONST>
1

>  <SCORE.INTER.POLAR>
-4.93517

>  <SCORE.INTER.ROT>
9

>  <SCORE.INTER.SOLV>
25.7582

>  <SCORE.INTER.VDW>
-24.3233

>  <SCORE.INTER.norm>
-0.806707

>  <SCORE.INTRA>
-22.6244

>  <SCORE.INTRA.DIHEDRAL>
-12.1757

>  <SCORE.INTRA.DIHEDRAL.0>
40.6252

>  <SCORE.INTRA.POLAR>
-0.495347

>  <SCORE.INTRA.POLAR.0>
-1.20161

>  <SCORE.INTRA.REPUL>
-0.115675

>  <SCORE.INTRA.REPUL.0>
0.115675

>  <SCORE.INTRA.SOLV>
-11.6767

>  <SCORE.INTRA.SOLV.lig_0>
-154.895

>  <SCORE.INTRA.VDW>
-8.43565

>  <SCORE.INTRA.VDW.0>
2.2925

>  <SCORE.INTRA.norm>
-0.538676

>  <SCORE.RESTR>
0.398685

>  <SCORE.RESTR.CAVITY>
0.398685

>  <SCORE.RESTR.norm>
0.00949249

>  <SCORE.SYSTEM>
0

>  <SCORE.SYSTEM.CONST>
0

>  <SCORE.SYSTEM.DIHEDRAL>
0

>  <SCORE.SYSTEM.SOLV>
0

>  <SCORE.SYSTEM.norm>
0

>  <SCORE.heavy>
42

>  <SCORE.norm>
-1.33589

>  <RMSD>
9.389

$$$$

 OpenBabel11021811413D
libRbt.so/2013.1/901 2013/11/27
 42 45  0  0  0  0  0  0  0  0999 V2000
   12.3311   -0.7097   -1.3439 O   0  0  0  0  0  0  0  0  0  0  0  0
   11.6889    0.4543   -1.8441 C   0  0  0  0  0  0  0  0  0  0  0  0
   10.3172    0.0857   -2.4108 C   0  0  1  0  0  0  0  0  0  0  0  0
   10.3714   -1.1513   -3.1541 O   0  0  0  0  0  0  0  0  0  0  0  0
    9.2582   -0.1214   -1.3407 C   0  0  2  0  0  0  0  0  0  0  0  0
    8.2323   -0.9285   -2.1187 C   0  0  1  0  0  0  0  0  0  0  0  0
    7.4907   -0.0662   -2.9745 O   0  0  0  0  0  0  0  0  0  0  0  0
    9.1231   -1.8638   -2.9615 C   0  0  2  0  0  0  0  0  0  0  0  0
   10.2713    4.1484    0.5020 C   0  0  2  0  0  0  0  0  0  0  0  0
    9.2753    3.3027   -0.0933 O   0  0  0  0  0  0  0  0  0  0  0  0
    9.7287    1.9425   -0.2160 C   0  0  2  0  0  0  0  0  0  0  0  0
    8.7287    1.1335   -0.8696 O   0  0  0  0  0  0  0  0  0  0  0  0
   10.0701    1.3574    1.1651 C   0  0  2  0  0  0  0  0  0  0  0  0
    8.8616    1.0129    1.8913 N   0  3  0  0  0  0  0  0  0  0  0  0
   10.9567    2.2833    2.0062 C   0  0  1  0  0  0  0  0  0  0  0  0
   12.2966    2.1962    1.5480 O   0  0  0  0  0  0  0  0  0  0  0  0
   10.4915    3.7359    1.9518 C   0  0  2  0  0  0  0  0  0  0  0  0
    9.2863    3.8878    2.6928 O   0  0  0  0  0  0  0  0  0  0  0  0
    9.8562    5.6142    0.4113 C   0  0  0  0  0  0  0  0  0  0  0  0
   10.9370    6.4750    0.8538 N   0  3  0  0  0  0  0  0  0  0  0  0
    6.8892   -5.3437   -2.9399 C   0  0  1  0  0  0  0  0  0  0  0  0
    8.0992   -5.9758   -3.4071 O   0  0  0  0  0  0  0  0  0  0  0  0
    8.4106   -5.6684   -4.7855 C   0  0  2  0  0  0  0  0  0  0  0  0
    8.7224   -4.2657   -4.9724 O   0  0  0  0  0  0  0  0  0  0  0  0
    7.2681   -6.1085   -5.7088 C   0  0  2  0  0  0  0  0  0  0  0  0
    7.4959   -5.6086   -7.0519 N   0  3  0  0  0  0  0  0  0  0  0  0
    5.9157   -5.6104   -5.2114 C   0  0  1  0  0  0  0  0  0  0  0  0
    4.8759   -6.2309   -5.9517 O   0  0  0  0  0  0  0  0  0  0  0  0
    5.6944   -5.8568   -3.7269 C   0  0  2  0  0  0  0  0  0  0  0  0
    4.5093   -5.2076   -3.2902 O   0  0  0  0  0  0  0  0  0  0  0  0
    6.6563   -5.6833   -1.4705 C   0  0  0  0  0  0  0  0  0  0  0  0
    7.6944   -5.1036   -0.6381 N   0  3  0  0  0  0  0  0  0  0  0  0
   12.4837   -5.0442   -3.1432 C   0  0  2  0  0  0  0  0  0  0  0  0
   12.4742   -4.6179   -4.5980 C   0  0  0  0  0  0  0  0  0  0  0  0
   11.0854   -4.7754   -5.1890 C   0  0  1  0  0  0  0  0  0  0  0  0
   10.0413   -3.9118   -4.4797 C   0  0  2  0  0  0  0  0  0  0  0  0
   10.1036   -4.1144   -2.9481 C   0  0  1  0  0  0  0  0  0  0  0  0
   11.5049   -4.2079   -2.3301 C   0  0  1  0  0  0  0  0  0  0  0  0
   13.8216   -4.8896   -2.6046 N   0  3  0  0  0  0  0  0  0  0  0  0
   11.1358   -4.4563   -6.6024 N   0  3  0  0  0  0  0  0  0  0  0  0
    9.3183   -3.1184   -2.2478 O   0  0  0  0  0  0  0  0  0  0  0  0
   11.4145   -4.7261   -1.0070 O   0  0  0  0  0  0  0  0  0  0  0  0
  1  2  1  0  0  0  0
  3  2  1  1  0  0  0
  3  4  1  0  0  0  0
  3  5  1  0  0  0  0
  4  8  1  0  0  0  0
  5  6  1  0  0  0  0
  5 12  1  6  0  0  0
  6  7  1  6  0  0  0
  6  8  1  0  0  0  0
  8 41  1  1  0  0  0
  9 10  1  0  0  0  0
  9 17  1  0  0  0  0
  9 19  1  1  0  0  0
 10 11  1  0  0  0  0
 11 12  1  1  0  0  0
 11 13  1  0  0  0  0
 13 14  1  1  0  0  0
 13 15  1  0  0  0  0
 15 16  1  6  0  0  0
 15 17  1  0  0  0  0
 17 18  1  1  0  0  0
 19 20  1  0  0  0  0
 21 22  1  0  0  0  0
 21 29  1  0  0  0  0
 21 31  1  1  0  0  0
 22 23  1  0  0  0  0
 23 24  1  1  0  0  0
 23 25  1  0  0  0  0
 25 26  1  6  0  0  0
 25 27  1  0  0  0  0
 27 28  1  6  0  0  0
 27 29  1  0  0  0  0
 29 30  1  1  0  0  0
 31 32  1  0  0  0  0
 33 34  1  0  0  0  0
 33 38  1  0  0  0  0
 33 39  1  1  0  0  0
 34 35  1  0  0  0  0
 35 36  1  0  0  0  0
 35 40  1  6  0  0  0
 36 24  1  6  0  0  0
 36 37  1  0  0  0  0
 37 38  1  0  0  0  0
 37 41  1  1  0  0  0
 38 42  1  1  0  0  0
M  CHG  6  14   1  20   1  26   1  32   1  39   1  40   1
M  END
>  <CHROM.1>
53.56238449,-41.08664201,-63.70704448,138.46623918,-65.13942764,-172.58967012
164.18610950,-173.61701886,-57.20316591,177.20386478,170.43504603,65.78811310
74.98425768,57.68309353,-43.74941311,-60.96734418,49.79862022,150.54142404
61.38697278,-165.52181151,-25.21694796,68.14134546,9.40936144,-1.83387065
-2.14251706,-1.35833638,-0.00515717,-2.58444119

>  <Name>


>  <RI>
0

>  <Rbt.Current_Directory>
/home/itssahil/PROJECTS/Mol_Feturizer/New_Systems/rnas/1qd3

>  <Rbt.Executable>
rbdock ($Id: //depot/dev/client3/rdock/2013.1/src/exe/rbdock.cxx#4 $)

>  <Rbt.Library>
libRbt.so (2013.1, Build901 2013/11/27)

>  <Rbt.Parameter_File>
/export/apps/rDock/src/rDock_2013.1_src/data/scripts/dock_solv.prm

>  <Rbt.Receptor>
prm/pocket_docking_4.prm

>  <SCORE>
-46.26

>  <SCORE.INTER>
-24.5366

>  <SCORE.INTER.CONST>
1

>  <SCORE.INTER.POLAR>
-3.99266

>  <SCORE.INTER.ROT>
9

>  <SCORE.INTER.SOLV>
29.5839

>  <SCORE.INTER.VDW>
-22.5101

>  <SCORE.INTER.norm>
-0.584204

>  <SCORE.INTRA>
-21.7448

>  <SCORE.INTRA.DIHEDRAL>
-21.2841

>  <SCORE.INTRA.DIHEDRAL.0>
40.6252

>  <SCORE.INTRA.POLAR>
-0.211237

>  <SCORE.INTRA.POLAR.0>
-1.20161

>  <SCORE.INTRA.REPUL>
-0.115675

>  <SCORE.INTRA.REPUL.0>
0.115675

>  <SCORE.INTRA.SOLV>
-7.69995

>  <SCORE.INTRA.SOLV.lig_0>
-154.895

>  <SCORE.INTRA.VDW>
-5.9562

>  <SCORE.INTRA.VDW.0>
2.2925

>  <SCORE.INTRA.norm>
-0.517734

>  <SCORE.RESTR>
0.0214041

>  <SCORE.RESTR.CAVITY>
0.0214041

>  <SCORE.RESTR.norm>
0.000509621

>  <SCORE.SYSTEM>
0

>  <SCORE.SYSTEM.CONST>
0

>  <SCORE.SYSTEM.DIHEDRAL>
0

>  <SCORE.SYSTEM.SOLV>
0

>  <SCORE.SYSTEM.norm>
0

>  <SCORE.heavy>
42

>  <SCORE.norm>
-1.10143

>  <RMSD>
9.397

$$$$

 OpenBabel11021811413D
libRbt.so/2013.1/901 2013/11/27
 42 45  0  0  0  0  0  0  0  0999 V2000
    9.6739    0.4231   -2.9903 O   0  0  0  0  0  0  0  0  0  0  0  0
    9.4210    0.6146   -1.6057 C   0  0  0  0  0  0  0  0  0  0  0  0
    8.4235   -0.4340   -1.1118 C   0  0  1  0  0  0  0  0  0  0  0  0
    8.6686   -1.7200   -1.7215 O   0  0  0  0  0  0  0  0  0  0  0  0
    8.4882   -0.6689    0.3882 C   0  0  2  0  0  0  0  0  0  0  0  0
    7.8126   -2.0265    0.4854 C   0  0  1  0  0  0  0  0  0  0  0  0
    6.4029   -1.8718    0.3646 O   0  0  0  0  0  0  0  0  0  0  0  0
    8.3678   -2.7574   -0.7540 C   0  0  2  0  0  0  0  0  0  0  0  0
    9.3983    3.5950    1.5763 C   0  0  2  0  0  0  0  0  0  0  0  0
    8.4899    2.6103    1.0598 O   0  0  0  0  0  0  0  0  0  0  0  0
    8.6638    1.3318    1.6969 C   0  0  2  0  0  0  0  0  0  0  0  0
    7.7779    0.3527    1.1155 O   0  0  0  0  0  0  0  0  0  0  0  0
    8.4177    1.4421    3.2114 C   0  0  2  0  0  0  0  0  0  0  0  0
    6.9972    1.5233    3.4977 N   0  3  0  0  0  0  0  0  0  0  0  0
    9.1636    2.6162    3.8562 C   0  0  1  0  0  0  0  0  0  0  0  0
   10.5302    2.2725    4.0211 O   0  0  0  0  0  0  0  0  0  0  0  0
    9.0545    3.8947    3.0297 C   0  0  2  0  0  0  0  0  0  0  0  0
    7.7361    4.4218    3.1225 O   0  0  0  0  0  0  0  0  0  0  0  0
    9.3499    4.8661    0.7332 C   0  0  0  0  0  0  0  0  0  0  0  0
   10.3026    5.8406    1.2308 N   0  3  0  0  0  0  0  0  0  0  0  0
    6.7950   -6.3709   -4.5879 C   0  0  1  0  0  0  0  0  0  0  0  0
    6.7335   -5.1072   -3.8940 O   0  0  0  0  0  0  0  0  0  0  0  0
    7.2177   -5.1770   -2.5330 C   0  0  2  0  0  0  0  0  0  0  0  0
    8.6347   -5.4740   -2.4748 O   0  0  0  0  0  0  0  0  0  0  0  0
    6.4058   -6.1944   -1.7221 C   0  0  2  0  0  0  0  0  0  0  0  0
    7.0299   -6.4091   -0.4298 N   0  3  0  0  0  0  0  0  0  0  0  0
    6.2858   -7.5294   -2.4485 C   0  0  1  0  0  0  0  0  0  0  0  0
    5.3406   -8.3526   -1.7828 O   0  0  0  0  0  0  0  0  0  0  0  0
    5.8878   -7.3841   -3.9093 C   0  0  2  0  0  0  0  0  0  0  0  0
    5.9767   -8.6369   -4.5720 O   0  0  0  0  0  0  0  0  0  0  0  0
    6.3082   -6.2022   -6.0243 C   0  0  0  0  0  0  0  0  0  0  0  0
    4.9446   -5.7055   -6.0499 N   0  3  0  0  0  0  0  0  0  0  0  0
   12.3211   -3.4165   -3.0012 C   0  0  2  0  0  0  0  0  0  0  0  0
   11.3694   -3.4848   -4.1792 C   0  0  0  0  0  0  0  0  0  0  0  0
   10.3270   -4.5652   -3.9584 C   0  0  1  0  0  0  0  0  0  0  0  0
    9.4646   -4.3087   -2.7218 C   0  0  2  0  0  0  0  0  0  0  0  0
   10.3445   -4.0167   -1.4843 C   0  0  1  0  0  0  0  0  0  0  0  0
   11.5650   -3.1155   -1.7142 C   0  0  1  0  0  0  0  0  0  0  0  0
   13.3093   -2.3818   -3.2393 N   0  3  0  0  0  0  0  0  0  0  0  0
    9.4991   -4.6706   -5.1441 N   0  3  0  0  0  0  0  0  0  0  0  0
    9.5562   -3.5113   -0.3788 O   0  0  0  0  0  0  0  0  0  0  0  0
   12.4506   -3.2111   -0.6035 O   0  0  0  0  0  0  0  0  0  0  0  0
  1  2  1  0  0  0  0
  3  2  1  6  0  0  0
  3  4  1  0  0  0  0
  3  5  1  0  0  0  0
  4  8  1  0  0  0  0
  5  6  1  0  0  0  0
  5 12  1  1  0  0  0
  6  7  1  6  0  0  0
  6  8  1  0  0  0  0
  8 41  1  1  0  0  0
  9 10  1  0  0  0  0
  9 17  1  0  0  0  0
  9 19  1  6  0  0  0
 10 11  1  0  0  0  0
 11 12  1  6  0  0  0
 11 13  1  0  0  0  0
 13 14  1  6  0  0  0
 13 15  1  0  0  0  0
 15 16  1  6  0  0  0
 15 17  1  0  0  0  0
 17 18  1  6  0  0  0
 19 20  1  0  0  0  0
 21 22  1  0  0  0  0
 21 29  1  0  0  0  0
 21 31  1  6  0  0  0
 22 23  1  0  0  0  0
 23 24  1  6  0  0  0
 23 25  1  0  0  0  0
 25 26  1  1  0  0  0
 25 27  1  0  0  0  0
 27 28  1  1  0  0  0
 27 29  1  0  0  0  0
 29 30  1  6  0  0  0
 31 32  1  0  0  0  0
 33 34  1  0  0  0  0
 33 38  1  0  0  0  0
 33 39  1  6  0  0  0
 34 35  1  0  0  0  0
 35 36  1  0  0  0  0
 35 40  1  6  0  0  0
 36 24  1  1  0  0  0
 36 37  1  0  0  0  0
 37 38  1  0  0  0  0
 37 41  1  1  0  0  0
 38 42  1  1  0  0  0
M  CHG  6  14   1  20   1  26   1  32   1  39   1  40   1
M  END
>  <CHROM.1>
80.37603315,38.62202047,-101.99999149,-174.29708218,-50.62321262,-178.02331900
112.56113598,-172.30627239,-168.64241197,-64.58236329,58.35686950,-59.00796070
79.69888791,-119.35365228,-156.18773526,66.22650175,-67.20985855,93.08349745
-50.66762575,-126.05719859,-29.77874500,53.84988414,8.57542188,-2.09909036
-1.08769416,-1.38254964,-0.47902933,-2.49437320

>  <Name>


>  <RI>
0

>  <Rbt.Current_Directory>
/home/itssahil/PROJECTS/Mol_Feturizer/New_Systems/rnas/1qd3

>  <Rbt.Executable>
rbdock ($Id: //depot/dev/client3/rdock/2013.1/src/exe/rbdock.cxx#4 $)

>  <Rbt.Library>
libRbt.so (2013.1, Build901 2013/11/27)

>  <Rbt.Parameter_File>
/export/apps/rDock/src/rDock_2013.1_src/data/scripts/dock_solv.prm

>  <Rbt.Receptor>
prm/pocket_docking_2.prm

>  <SCORE>
-46.6387

>  <SCORE.INTER>
-41.5617

>  <SCORE.INTER.CONST>
1

>  <SCORE.INTER.POLAR>
-7.73865

>  <SCORE.INTER.ROT>
9

>  <SCORE.INTER.SOLV>
35.8498

>  <SCORE.INTER.VDW>
-23.4623

>  <SCORE.INTER.norm>
-0.989565

>  <SCORE.INTRA>
-11.3744

>  <SCORE.INTRA.DIHEDRAL>
-2.88496

>  <SCORE.INTRA.DIHEDRAL.0>
40.6252

>  <SCORE.INTRA.POLAR>
0.631848

>  <SCORE.INTRA.POLAR.0>
-1.20161

>  <SCORE.INTRA.REPUL>
-0.115675

>  <SCORE.INTRA.REPUL.0>
0.115675

>  <SCORE.INTRA.SOLV>
-8.85057

>  <SCORE.INTRA.SOLV.lig_0>
-154.895

>  <SCORE.INTRA.VDW>
-7.07653

>  <SCORE.INTRA.VDW.0>
2.2925

>  <SCORE.INTRA.norm>
-0.270819

>  <SCORE.RESTR>
6.29745

>  <SCORE.RESTR.CAVITY>
6.29745

>  <SCORE.RESTR.norm>
0.149939

>  <SCORE.SYSTEM>
0

>  <SCORE.SYSTEM.CONST>
0

>  <SCORE.SYSTEM.DIHEDRAL>
0

>  <SCORE.SYSTEM.SOLV>
0

>  <SCORE.SYSTEM.norm>
0

>  <SCORE.heavy>
42

>  <SCORE.norm>
-1.11044

>  <RMSD>
9.401

$$$$

 OpenBabel11021811413D
libRbt.so/2013.1/901 2013/11/27
 42 45  0  0  0  0  0  0  0  0999 V2000
    6.9176   -3.6230   -3.3622 O   0  0  0  0  0  0  0  0  0  0  0  0
    7.4585   -4.1552   -2.1614 C   0  0  0  0  0  0  0  0  0  0  0  0
    8.8903   -4.6333   -2.4059 C   0  0  1  0  0  0  0  0  0  0  0  0
    8.9351   -5.6589   -3.4217 O   0  0  0  0  0  0  0  0  0  0  0  0
    9.8198   -3.5324   -2.8891 C   0  0  2  0  0  0  0  0  0  0  0  0
   10.9370   -4.3614   -3.5002 C   0  0  1  0  0  0  0  0  0  0  0  0
   11.7646   -4.8879   -2.4688 O   0  0  0  0  0  0  0  0  0  0  0  0
   10.1595   -5.5049   -4.1833 C   0  0  2  0  0  0  0  0  0  0  0  0
    8.7822   -0.0596    0.2238 C   0  0  2  0  0  0  0  0  0  0  0  0
    9.7924   -0.9158   -0.3311 O   0  0  0  0  0  0  0  0  0  0  0  0
    9.2500   -1.8266   -1.3042 C   0  0  2  0  0  0  0  0  0  0  0  0
   10.2784   -2.7097   -1.7982 O   0  0  0  0  0  0  0  0  0  0  0  0
    8.6034   -1.0559   -2.4680 C   0  0  2  0  0  0  0  0  0  0  0  0
    9.6175   -0.5229   -3.3590 N   0  3  0  0  0  0  0  0  0  0  0  0
    7.6610    0.0588   -1.9988 C   0  0  1  0  0  0  0  0  0  0  0  0
    6.4291   -0.5096   -1.5839 O   0  0  0  0  0  0  0  0  0  0  0  0
    8.2567    0.8772   -0.8565 C   0  0  2  0  0  0  0  0  0  0  0  0
    9.3094    1.6998   -1.3460 O   0  0  0  0  0  0  0  0  0  0  0  0
    9.3368    0.7309    1.4055 C   0  0  0  0  0  0  0  0  0  0  0  0
    8.2681    1.4312    2.0928 N   0  3  0  0  0  0  0  0  0  0  0  0
    8.6163   -8.2218   -4.1818 C   0  0  1  0  0  0  0  0  0  0  0  0
    7.5445   -8.2815   -5.1460 O   0  0  0  0  0  0  0  0  0  0  0  0
    6.5200   -7.2848   -4.9260 C   0  0  2  0  0  0  0  0  0  0  0  0
    7.0190   -5.9392   -5.1262 O   0  0  0  0  0  0  0  0  0  0  0  0
    5.9021   -7.4435   -3.5314 C   0  0  2  0  0  0  0  0  0  0  0  0
    5.0328   -6.3178   -3.2437 N   0  3  0  0  0  0  0  0  0  0  0  0
    6.9703   -7.5415   -2.4480 C   0  0  1  0  0  0  0  0  0  0  0  0
    6.3710   -7.9213   -1.2188 O   0  0  0  0  0  0  0  0  0  0  0  0
    8.0837   -8.5196   -2.7897 C   0  0  2  0  0  0  0  0  0  0  0  0
    9.1329   -8.4255   -1.8373 O   0  0  0  0  0  0  0  0  0  0  0  0
    9.6721   -9.2741   -4.5086 C   0  0  0  0  0  0  0  0  0  0  0  0
   10.9320   -8.9564   -3.8617 N   0  3  0  0  0  0  0  0  0  0  0  0
    9.0368   -7.2441   -8.6370 C   0  0  2  0  0  0  0  0  0  0  0  0
    7.6441   -6.6653   -8.7899 C   0  0  0  0  0  0  0  0  0  0  0  0
    6.9318   -6.6331   -7.4503 C   0  0  1  0  0  0  0  0  0  0  0  0
    7.6509   -5.7601   -6.4209 C   0  0  2  0  0  0  0  0  0  0  0  0
    9.1495   -6.1304   -6.3316 C   0  0  1  0  0  0  0  0  0  0  0  0
    9.8608   -6.4151   -7.6610 C   0  0  1  0  0  0  0  0  0  0  0  0
    9.6930   -7.2690   -9.9303 N   0  3  0  0  0  0  0  0  0  0  0  0
    5.5724   -6.1702   -7.6504 N   0  3  0  0  0  0  0  0  0  0  0  0
    9.8951   -5.1486   -5.5706 O   0  0  0  0  0  0  0  0  0  0  0  0
   11.1048   -7.0618   -7.4130 O   0  0  0  0  0  0  0  0  0  0  0  0
  1  2  1  0  0  0  0
  3  2  1  6  0  0  0
  3  4  1  0  0  0  0
  3  5  1  0  0  0  0
  4  8  1  0  0  0  0
  5  6  1  0  0  0  0
  5 12  1  1  0  0  0
  6  7  1  1  0  0  0
  6  8  1  0  0  0  0
  8 41  1  6  0  0  0
  9 10  1  0  0  0  0
  9 17  1  0  0  0  0
  9 19  1  1  0  0  0
 10 11  1  0  0  0  0
 11 12  1  6  0  0  0
 11 13  1  0  0  0  0
 13 14  1  1  0  0  0
 13 15  1  0  0  0  0
 15 16  1  1  0  0  0
 15 17  1  0  0  0  0
 17 18  1  6  0  0  0
 19 20  1  0  0  0  0
 21 22  1  0  0  0  0
 21 29  1  0  0  0  0
 21 31  1  6  0  0  0
 22 23  1  0  0  0  0
 23 24  1  1  0  0  0
 23 25  1  0  0  0  0
 25 26  1  1  0  0  0
 25 27  1  0  0  0  0
 27 28  1  1  0  0  0
 27 29  1  0  0  0  0
 29 30  1  1  0  0  0
 31 32  1  0  0  0  0
 33 34  1  0  0  0  0
 33 38  1  0  0  0  0
 33 39  1  6  0  0  0
 34 35  1  0  0  0  0
 35 36  1  0  0  0  0
 35 40  1  6  0  0  0
 36 24  1  1  0  0  0
 36 37  1  0  0  0  0
 37 38  1  0  0  0  0
 37 41  1  6  0  0  0
 38 42  1  1  0  0  0
M  CHG  6  14   1  20   1  26   1  32   1  39   1  40   1
M  END
>  <CHROM.1>
-178.20822758,-59.88647529,-73.66790130,175.98431199,-62.26450512,-170.99815849
-173.06401379,73.98514244,-65.56458754,168.94962073,168.27359130,160.91972150
53.82643227,33.71674942,-175.24996545,55.60313017,-176.40699681,52.57683653
-178.59499879,-50.23845673,99.06942498,63.98256991,8.54579955,-4.69275650
-3.65799831,1.47501760,1.23834044,0.74932685

>  <Name>


>  <RI>
0

>  <Rbt.Current_Directory>
/home/itssahil/PROJECTS/Mol_Feturizer/New_Systems/rnas/1qd3

>  <Rbt.Executable>
rbdock ($Id: //depot/dev/client3/rdock/2013.1/src/exe/rbdock.cxx#4 $)

>  <Rbt.Library>
libRbt.so (2013.1, Build901 2013/11/27)

>  <Rbt.Parameter_File>
/export/apps/rDock/src/rDock_2013.1_src/data/scripts/dock_solv.prm

>  <Rbt.Receptor>
prm/pocket_docking_4.prm

>  <SCORE>
-46.7044

>  <SCORE.INTER>
-25.5303

>  <SCORE.INTER.CONST>
1

>  <SCORE.INTER.POLAR>
-5.68441

>  <SCORE.INTER.ROT>
9

>  <SCORE.INTER.SOLV>
29.5429

>  <SCORE.INTER.VDW>
-17.5198

>  <SCORE.INTER.norm>
-0.607863

>  <SCORE.INTRA>
-21.2003

>  <SCORE.INTRA.DIHEDRAL>
-26.2052

>  <SCORE.INTRA.DIHEDRAL.0>
40.6252

>  <SCORE.INTRA.POLAR>
0.454588

>  <SCORE.INTRA.POLAR.0>
-1.20161

>  <SCORE.INTRA.REPUL>
-0.115675

>  <SCORE.INTRA.REPUL.0>
0.115675

>  <SCORE.INTRA.SOLV>
-2.67564

>  <SCORE.INTRA.SOLV.lig_0>
-154.895

>  <SCORE.INTRA.VDW>
-7.72714

>  <SCORE.INTRA.VDW.0>
2.2925

>  <SCORE.INTRA.norm>
-0.50477

>  <SCORE.RESTR>
0.0262095

>  <SCORE.RESTR.CAVITY>
0.0262095

>  <SCORE.RESTR.norm>
0.000624036

>  <SCORE.SYSTEM>
0

>  <SCORE.SYSTEM.CONST>
0

>  <SCORE.SYSTEM.DIHEDRAL>
0

>  <SCORE.SYSTEM.SOLV>
0

>  <SCORE.SYSTEM.norm>
0

>  <SCORE.heavy>
42

>  <SCORE.norm>
-1.11201

>  <RMSD>
9.404

$$$$

 OpenBabel11021811413D
libRbt.so/2013.1/901 2013/11/27
 42 45  0  0  0  0  0  0  0  0999 V2000
    8.8549    1.4478   -1.3827 O   0  0  0  0  0  0  0  0  0  0  0  0
    9.2520    0.6438   -0.2810 C   0  0  0  0  0  0  0  0  0  0  0  0
    8.0151    0.1089    0.4418 C   0  0  1  0  0  0  0  0  0  0  0  0
    7.3239   -0.8749   -0.3583 O   0  0  0  0  0  0  0  0  0  0  0  0
    8.3362   -0.5804    1.7576 C   0  0  2  0  0  0  0  0  0  0  0  0
    7.0724   -1.4004    1.9564 C   0  0  1  0  0  0  0  0  0  0  0  0
    6.0213   -0.5594    2.4188 O   0  0  0  0  0  0  0  0  0  0  0  0
    6.7664   -1.8820    0.5236 C   0  0  2  0  0  0  0  0  0  0  0  0
    6.7613    3.4469    3.6646 C   0  0  2  0  0  0  0  0  0  0  0  0
    7.5192    2.2413    3.8484 O   0  0  0  0  0  0  0  0  0  0  0  0
    7.8362    1.6093    2.5950 C   0  0  2  0  0  0  0  0  0  0  0  0
    8.5460    0.3731    2.8176 O   0  0  0  0  0  0  0  0  0  0  0  0
    8.6683    2.5507    1.7075 C   0  0  2  0  0  0  0  0  0  0  0  0
   10.0453    2.6044    2.1630 N   0  3  0  0  0  0  0  0  0  0  0  0
    8.0785    3.9627    1.6127 C   0  0  1  0  0  0  0  0  0  0  0  0
    6.9801    3.9549    0.7147 O   0  0  0  0  0  0  0  0  0  0  0  0
    7.6248    4.4924    2.9704 C   0  0  2  0  0  0  0  0  0  0  0  0
    8.7575    4.8037    3.7733 O   0  0  0  0  0  0  0  0  0  0  0  0
    6.2477    3.9686    5.0035 C   0  0  0  0  0  0  0  0  0  0  0  0
    5.2693    3.0543    5.5619 N   0  3  0  0  0  0  0  0  0  0  0  0
    6.9317   -7.0570    0.3046 C   0  0  1  0  0  0  0  0  0  0  0  0
    7.7630   -6.4988   -0.7343 O   0  0  0  0  0  0  0  0  0  0  0  0
    7.0264   -6.1377   -1.9253 C   0  0  2  0  0  0  0  0  0  0  0  0
    6.0960   -5.0540   -1.6812 O   0  0  0  0  0  0  0  0  0  0  0  0
    6.3091   -7.3611   -2.5088 C   0  0  2  0  0  0  0  0  0  0  0  0
    5.4108   -6.9488   -3.5712 N   0  3  0  0  0  0  0  0  0  0  0  0
    5.5159   -8.1118   -1.4450 C   0  0  1  0  0  0  0  0  0  0  0  0
    5.0684   -9.3525   -1.9691 O   0  0  0  0  0  0  0  0  0  0  0  0
    6.3067   -8.3589   -0.1695 C   0  0  2  0  0  0  0  0  0  0  0  0
    5.4609   -8.8885    0.8408 O   0  0  0  0  0  0  0  0  0  0  0  0
    7.7755   -7.3702    1.5369 C   0  0  0  0  0  0  0  0  0  0  0  0
    6.9295   -7.6115    2.6914 N   0  3  0  0  0  0  0  0  0  0  0  0
    9.1491   -2.3843   -2.9662 C   0  0  2  0  0  0  0  0  0  0  0  0
    7.8929   -2.4877   -3.8085 C   0  0  0  0  0  0  0  0  0  0  0  0
    7.1137   -3.7394   -3.4494 C   0  0  1  0  0  0  0  0  0  0  0  0
    6.6564   -3.7509   -1.9901 C   0  0  2  0  0  0  0  0  0  0  0  0
    7.8359   -3.4454   -1.0381 C   0  0  1  0  0  0  0  0  0  0  0  0
    8.8021   -2.3400   -1.4842 C   0  0  1  0  0  0  0  0  0  0  0  0
    9.8774   -1.1846   -3.3324 N   0  3  0  0  0  0  0  0  0  0  0  0
    5.9763   -3.8584   -4.3409 N   0  3  0  0  0  0  0  0  0  0  0  0
    7.3766   -3.1875    0.3115 O   0  0  0  0  0  0  0  0  0  0  0  0
    9.9952   -2.4015   -0.7097 O   0  0  0  0  0  0  0  0  0  0  0  0
  1  2  1  0  0  0  0
  3  2  1  6  0  0  0
  3  4  1  0  0  0  0
  3  5  1  0  0  0  0
  4  8  1  0  0  0  0
  5  6  1  0  0  0  0
  5 12  1  1  0  0  0
  6  7  1  6  0  0  0
  6  8  1  0  0  0  0
  8 41  1  6  0  0  0
  9 10  1  0  0  0  0
  9 17  1  0  0  0  0
  9 19  1  1  0  0  0
 10 11  1  0  0  0  0
 11 12  1  1  0  0  0
 11 13  1  0  0  0  0
 13 14  1  1  0  0  0
 13 15  1  0  0  0  0
 15 16  1  6  0  0  0
 15 17  1  0  0  0  0
 17 18  1  1  0  0  0
 19 20  1  0  0  0  0
 21 22  1  0  0  0  0
 21 29  1  0  0  0  0
 21 31  1  1  0  0  0
 22 23  1  0  0  0  0
 23 24  1  1  0  0  0
 23 25  1  0  0  0  0
 25 26  1  6  0  0  0
 25 27  1  0  0  0  0
 27 28  1  6  0  0  0
 27 29  1  0  0  0  0
 29 30  1  1  0  0  0
 31 32  1  0  0  0  0
 33 34  1  0  0  0  0
 33 38  1  0  0  0  0
 33 39  1  6  0  0  0
 34 35  1  0  0  0  0
 35 36  1  0  0  0  0
 35 40  1  6  0  0  0
 36 24  1  1  0  0  0
 36 37  1  0  0  0  0
 37 38  1  0  0  0  0
 37 41  1  1  0  0  0
 38 42  1  1  0  0  0
M  CHG  6  14   1  20   1  26   1  32   1  39   1  40   1
M  END
>  <CHROM.1>
-62.03492402,69.91951211,26.91373622,-136.19356051,-30.26030300,-66.79615996
152.14965749,177.22711090,-70.42074381,45.55423319,-64.24720868,165.72991293
93.84871782,57.12198835,168.18268901,-57.15006775,59.29362954,108.35867933
-123.05441497,104.20073299,-75.54330421,-65.94675983,7.39909541,-1.98809356
0.25078608,-1.21937350,-1.20683595,-2.41334070

>  <Name>


>  <RI>
0

>  <Rbt.Current_Directory>
/home/itssahil/PROJECTS/Mol_Feturizer/New_Systems/rnas/1qd3

>  <Rbt.Executable>
rbdock ($Id: //depot/dev/client3/rdock/2013.1/src/exe/rbdock.cxx#4 $)

>  <Rbt.Library>
libRbt.so (2013.1, Build901 2013/11/27)

>  <Rbt.Parameter_File>
/export/apps/rDock/src/rDock_2013.1_src/data/scripts/dock_solv.prm

>  <Rbt.Receptor>
prm/pocket_docking_3.prm

>  <SCORE>
-26.5584

>  <SCORE.INTER>
-33.6483

>  <SCORE.INTER.CONST>
1

>  <SCORE.INTER.POLAR>
-7.46649

>  <SCORE.INTER.ROT>
9

>  <SCORE.INTER.SOLV>
54.4669

>  <SCORE.INTER.VDW>
-25.2995

>  <SCORE.INTER.norm>
-0.801151

>  <SCORE.INTRA>
2.88308

>  <SCORE.INTRA.DIHEDRAL>
-4.72534

>  <SCORE.INTRA.DIHEDRAL.0>
40.6252

>  <SCORE.INTRA.POLAR>
1.19178

>  <SCORE.INTRA.POLAR.0>
-1.20161

>  <SCORE.INTRA.REPUL>
-0.115675

>  <SCORE.INTRA.REPUL.0>
0.115675

>  <SCORE.INTRA.SOLV>
-1.27639

>  <SCORE.INTRA.SOLV.lig_0>
-154.895

>  <SCORE.INTRA.VDW>
2.41029

>  <SCORE.INTRA.VDW.0>
2.2925

>  <SCORE.INTRA.norm>
0.0686448

>  <SCORE.RESTR>
4.20683

>  <SCORE.RESTR.CAVITY>
4.20683

>  <SCORE.RESTR.norm>
0.100163

>  <SCORE.SYSTEM>
0

>  <SCORE.SYSTEM.CONST>
0

>  <SCORE.SYSTEM.DIHEDRAL>
0

>  <SCORE.SYSTEM.SOLV>
0

>  <SCORE.SYSTEM.norm>
0

>  <SCORE.heavy>
42

>  <SCORE.norm>
-0.632343

>  <RMSD>
9.405

$$$$

 OpenBabel11021811413D
libRbt.so/2013.1/901 2013/11/27
 42 45  0  0  0  0  0  0  0  0999 V2000
    9.1505    1.3998   -1.9093 O   0  0  0  0  0  0  0  0  0  0  0  0
    8.5405    1.3607   -0.6271 C   0  0  0  0  0  0  0  0  0  0  0  0
    7.8494    0.0118   -0.4236 C   0  0  1  0  0  0  0  0  0  0  0  0
    8.4063   -0.9996   -1.2911 O   0  0  0  0  0  0  0  0  0  0  0  0
    7.9908   -0.5317    0.9885 C   0  0  2  0  0  0  0  0  0  0  0  0
    7.6847   -2.0011    0.7517 C   0  0  1  0  0  0  0  0  0  0  0  0
    6.2807   -2.1821    0.6040 O   0  0  0  0  0  0  0  0  0  0  0  0
    8.3921   -2.2701   -0.5921 C   0  0  2  0  0  0  0  0  0  0  0  0
    7.3331    3.3843    3.4407 C   0  0  2  0  0  0  0  0  0  0  0  0
    6.7489    2.2786    2.7353 O   0  0  0  0  0  0  0  0  0  0  0  0
    7.6474    1.1575    2.6543 C   0  0  2  0  0  0  0  0  0  0  0  0
    7.0529    0.0874    1.8907 O   0  0  0  0  0  0  0  0  0  0  0  0
    8.0269    0.6632    4.0607 C   0  0  2  0  0  0  0  0  0  0  0  0
    6.9411   -0.0993    4.6489 N   0  3  0  0  0  0  0  0  0  0  0  0
    8.4570    1.7970    4.9991 C   0  0  1  0  0  0  0  0  0  0  0  0
    9.7855    2.1864    4.6890 O   0  0  0  0  0  0  0  0  0  0  0  0
    7.5337    3.0086    4.9033 C   0  0  2  0  0  0  0  0  0  0  0  0
    6.2808    2.7134    5.5095 O   0  0  0  0  0  0  0  0  0  0  0  0
    6.4560    4.6267    3.3143 C   0  0  0  0  0  0  0  0  0  0  0  0
    7.2222    5.8207    3.6183 N   0  3  0  0  0  0  0  0  0  0  0  0
    6.9455   -5.9029   -3.8553 C   0  0  1  0  0  0  0  0  0  0  0  0
    6.9386   -4.8820   -2.8356 O   0  0  0  0  0  0  0  0  0  0  0  0
    7.9054   -5.1147   -1.7856 C   0  0  2  0  0  0  0  0  0  0  0  0
    9.2675   -5.0321   -2.2729 O   0  0  0  0  0  0  0  0  0  0  0  0
    7.6444   -6.4610   -1.0993 C   0  0  2  0  0  0  0  0  0  0  0  0
    8.7371   -6.7781   -0.1987 N   0  3  0  0  0  0  0  0  0  0  0  0
    7.4859   -7.5900   -2.1117 C   0  0  1  0  0  0  0  0  0  0  0  0
    7.0159   -8.7576   -1.4560 O   0  0  0  0  0  0  0  0  0  0  0  0
    6.5470   -7.2419   -3.2566 C   0  0  2  0  0  0  0  0  0  0  0  0
    6.5889   -8.2522   -4.2537 O   0  0  0  0  0  0  0  0  0  0  0  0
    5.9310   -5.5616   -4.9430 C   0  0  0  0  0  0  0  0  0  0  0  0
    6.2526   -4.2904   -5.5654 N   0  3  0  0  0  0  0  0  0  0  0  0
   12.0318   -1.9572   -3.2745 C   0  0  2  0  0  0  0  0  0  0  0  0
   11.0303   -2.3853   -4.3289 C   0  0  0  0  0  0  0  0  0  0  0  0
   10.4145   -3.7236   -3.9649 C   0  0  1  0  0  0  0  0  0  0  0  0
    9.6532   -3.6813   -2.6392 C   0  0  2  0  0  0  0  0  0  0  0  0
   10.5225   -3.0602   -1.5214 C   0  0  1  0  0  0  0  0  0  0  0  0
   11.3619   -1.8367   -1.9123 C   0  0  1  0  0  0  0  0  0  0  0  0
   12.6091   -0.6801   -3.6485 N   0  3  0  0  0  0  0  0  0  0  0  0
    9.5407   -4.1486   -5.0411 N   0  3  0  0  0  0  0  0  0  0  0  0
    9.7380   -2.7661   -0.3395 O   0  0  0  0  0  0  0  0  0  0  0  0
   12.3459   -1.5883   -0.9137 O   0  0  0  0  0  0  0  0  0  0  0  0
  1  2  1  0  0  0  0
  3  2  1  1  0  0  0
  3  4  1  0  0  0  0
  3  5  1  0  0  0  0
  4  8  1  0  0  0  0
  5  6  1  0  0  0  0
  5 12  1  1  0  0  0
  6  7  1  6  0  0  0
  6  8  1  0  0  0  0
  8 41  1  1  0  0  0
  9 10  1  0  0  0  0
  9 17  1  0  0  0  0
  9 19  1  1  0  0  0
 10 11  1  0  0  0  0
 11 12  1  6  0  0  0
 11 13  1  0  0  0  0
 13 14  1  1  0  0  0
 13 15  1  0  0  0  0
 15 16  1  6  0  0  0
 15 17  1  0  0  0  0
 17 18  1  6  0  0  0
 19 20  1  0  0  0  0
 21 22  1  0  0  0  0
 21 29  1  0  0  0  0
 21 31  1  6  0  0  0
 22 23  1  0  0  0  0
 23 24  1  6  0  0  0
 23 25  1  0  0  0  0
 25 26  1  1  0  0  0
 25 27  1  0  0  0  0
 27 28  1  1  0  0  0
 27 29  1  0  0  0  0
 29 30  1  6  0  0  0
 31 32  1  0  0  0  0
 33 34  1  0  0  0  0
 33 38  1  0  0  0  0
 33 39  1  6  0  0  0
 34 35  1  0  0  0  0
 35 36  1  0  0  0  0
 35 40  1  6  0  0  0
 36 24  1  1  0  0  0
 36 37  1  0  0  0  0
 37 38  1  0  0  0  0
 37 41  1  1  0  0  0
 38 42  1  1  0  0  0
M  CHG  6  14   1  20   1  26   1  32   1  39   1  40   1
M  END
>  <CHROM.1>
169.37412822,22.20029507,-98.33119320,43.15482724,-63.02929417,-160.86501856
137.92018220,107.49910239,53.20850437,-169.92503660,-112.77834053,60.19196728
69.40056310,-136.45390110,-178.49407352,73.11757042,-164.69004213,-160.95858789
58.96343309,94.93102710,-37.71132621,-170.33593339,8.32851223,-1.87522982
-0.40713556,-1.63906273,-0.79387609,-2.49596499

>  <Name>


>  <RI>
0

>  <Rbt.Current_Directory>
/home/itssahil/PROJECTS/Mol_Feturizer/New_Systems/rnas/1qd3

>  <Rbt.Executable>
rbdock ($Id: //depot/dev/client3/rdock/2013.1/src/exe/rbdock.cxx#4 $)

>  <Rbt.Library>
libRbt.so (2013.1, Build901 2013/11/27)

>  <Rbt.Parameter_File>
/export/apps/rDock/src/rDock_2013.1_src/data/scripts/dock_solv.prm

>  <Rbt.Receptor>
prm/pocket_docking_3.prm

>  <SCORE>
-53.8283

>  <SCORE.INTER>
-42.7124

>  <SCORE.INTER.CONST>
1

>  <SCORE.INTER.POLAR>
-8.3478

>  <SCORE.INTER.ROT>
9

>  <SCORE.INTER.SOLV>
52.8353

>  <SCORE.INTER.VDW>
-27.8607

>  <SCORE.INTER.norm>
-1.01696

>  <SCORE.INTRA>
-11.4271

>  <SCORE.INTRA.DIHEDRAL>
-2.64685

>  <SCORE.INTRA.DIHEDRAL.0>
40.6252

>  <SCORE.INTRA.POLAR>
1.20161

>  <SCORE.INTRA.POLAR.0>
-1.20161

>  <SCORE.INTRA.REPUL>
-0.115675

>  <SCORE.INTRA.REPUL.0>
0.115675

>  <SCORE.INTRA.SOLV>
-10.5213

>  <SCORE.INTRA.SOLV.lig_0>
-154.895

>  <SCORE.INTRA.VDW>
-8.35016

>  <SCORE.INTRA.VDW.0>
2.2925

>  <SCORE.INTRA.norm>
-0.272075

>  <SCORE.RESTR>
0.311191

>  <SCORE.RESTR.CAVITY>
0.311191

>  <SCORE.RESTR.norm>
0.0074093

>  <SCORE.SYSTEM>
0

>  <SCORE.SYSTEM.CONST>
0

>  <SCORE.SYSTEM.DIHEDRAL>
0

>  <SCORE.SYSTEM.SOLV>
0

>  <SCORE.SYSTEM.norm>
0

>  <SCORE.heavy>
42

>  <SCORE.norm>
-1.28163

>  <RMSD>
9.416

$$$$

 OpenBabel11021811413D
libRbt.so/2013.1/901 2013/11/27
 42 45  0  0  0  0  0  0  0  0999 V2000
   11.4367    1.1658    0.5591 O   0  0  0  0  0  0  0  0  0  0  0  0
   10.3503    2.0750    0.4550 C   0  0  0  0  0  0  0  0  0  0  0  0
    9.1807    1.4035   -0.2659 C   0  0  1  0  0  0  0  0  0  0  0  0
    9.5514    0.9949   -1.6005 O   0  0  0  0  0  0  0  0  0  0  0  0
    8.6858    0.1458    0.4287 C   0  0  2  0  0  0  0  0  0  0  0  0
    7.9403   -0.5259   -0.7124 C   0  0  1  0  0  0  0  0  0  0  0  0
    6.6811    0.1093   -0.9039 O   0  0  0  0  0  0  0  0  0  0  0  0
    8.8601   -0.2400   -1.9169 C   0  0  2  0  0  0  0  0  0  0  0  0
    9.0149    3.6577    2.8439 C   0  0  2  0  0  0  0  0  0  0  0  0
    8.3636    2.7243    1.9687 O   0  0  0  0  0  0  0  0  0  0  0  0
    8.4353    1.3773    2.4700 C   0  0  2  0  0  0  0  0  0  0  0  0
    7.8238    0.4589    1.5404 O   0  0  0  0  0  0  0  0  0  0  0  0
    7.7577    1.2738    3.8471 C   0  0  2  0  0  0  0  0  0  0  0  0
    6.3127    1.2713    3.7111 N   0  3  0  0  0  0  0  0  0  0  0  0
    8.2038    2.3725    4.8191 C   0  0  1  0  0  0  0  0  0  0  0  0
    9.4858    2.0522    5.3355 O   0  0  0  0  0  0  0  0  0  0  0  0
    8.2483    3.7471    4.1573 C   0  0  2  0  0  0  0  0  0  0  0  0
    6.9256    4.2155    3.9214 O   0  0  0  0  0  0  0  0  0  0  0  0
    9.1227    5.0292    2.1834 C   0  0  0  0  0  0  0  0  0  0  0  0
   10.1998    5.7959    2.7808 N   0  3  0  0  0  0  0  0  0  0  0  0
   13.7545   -2.7459   -1.8596 C   0  0  1  0  0  0  0  0  0  0  0  0
   12.6122   -1.8643   -1.8482 O   0  0  0  0  0  0  0  0  0  0  0  0
   12.2727   -1.3499   -3.1564 C   0  0  2  0  0  0  0  0  0  0  0  0
   11.8252   -2.3969   -4.0527 O   0  0  0  0  0  0  0  0  0  0  0  0
   13.4531   -0.5760   -3.7560 C   0  0  2  0  0  0  0  0  0  0  0  0
   13.1779   -0.2487   -5.1426 N   0  3  0  0  0  0  0  0  0  0  0  0
   14.7501   -1.3736   -3.6772 C   0  0  1  0  0  0  0  0  0  0  0  0
   15.8458   -0.5394   -4.0203 O   0  0  0  0  0  0  0  0  0  0  0  0
   14.9940   -1.9890   -2.3079 C   0  0  2  0  0  0  0  0  0  0  0  0
   16.1097   -2.8664   -2.3528 O   0  0  0  0  0  0  0  0  0  0  0  0
   14.0190   -3.2761   -0.4533 C   0  0  0  0  0  0  0  0  0  0  0  0
   14.0764   -2.1870    0.5044 N   0  3  0  0  0  0  0  0  0  0  0  0
    7.8710   -3.9658   -4.0994 C   0  0  2  0  0  0  0  0  0  0  0  0
    9.0264   -4.9459   -4.1496 C   0  0  0  0  0  0  0  0  0  0  0  0
   10.3117   -4.2336   -4.5284 C   0  0  1  0  0  0  0  0  0  0  0  0
   10.7062   -3.1532   -3.5204 C   0  0  2  0  0  0  0  0  0  0  0  0
    9.5191   -2.2052   -3.2322 C   0  0  1  0  0  0  0  0  0  0  0  0
    8.1418   -2.8649   -3.0829 C   0  0  1  0  0  0  0  0  0  0  0  0
    6.6555   -4.6717   -3.7414 N   0  3  0  0  0  0  0  0  0  0  0  0
   11.3711   -5.2140   -4.6655 N   0  3  0  0  0  0  0  0  0  0  0  0
    9.7857   -1.3507   -2.0931 O   0  0  0  0  0  0  0  0  0  0  0  0
    7.1219   -1.8749   -3.1642 O   0  0  0  0  0  0  0  0  0  0  0  0
  1  2  1  0  0  0  0
  3  2  1  1  0  0  0
  3  4  1  0  0  0  0
  3  5  1  0  0  0  0
  4  8  1  0  0  0  0
  5  6  1  0  0  0  0
  5 12  1  1  0  0  0
  6  7  1  6  0  0  0
  6  8  1  0  0  0  0
  8 41  1  1  0  0  0
  9 10  1  0  0  0  0
  9 17  1  0  0  0  0
  9 19  1  6  0  0  0
 10 11  1  0  0  0  0
 11 12  1  6  0  0  0
 11 13  1  0  0  0  0
 13 14  1  6  0  0  0
 13 15  1  0  0  0  0
 15 16  1  6  0  0  0
 15 17  1  0  0  0  0
 17 18  1  6  0  0  0
 19 20  1  0  0  0  0
 21 22  1  0  0  0  0
 21 29  1  0  0  0  0
 21 31  1  1  0  0  0
 22 23  1  0  0  0  0
 23 24  1  6  0  0  0
 23 25  1  0  0  0  0
 25 26  1  6  0  0  0
 25 27  1  0  0  0  0
 27 28  1  1  0  0  0
 27 29  1  0  0  0  0
 29 30  1  6  0  0  0
 31 32  1  0  0  0  0
 33 34  1  0  0  0  0
 33 38  1  0  0  0  0
 33 39  1  1  0  0  0
 34 35  1  0  0  0  0
 35 36  1  0  0  0  0
 35 40  1  1  0  0  0
 36 24  1  6  0  0  0
 36 37  1  0  0  0  0
 37 38  1  0  0  0  0
 37 41  1  1  0  0  0
 38 42  1  6  0  0  0
M  CHG  6  14   1  20   1  26   1  32   1  39   1  40   1
M  END
>  <CHROM.1>
59.44717500,-60.41978449,-53.54517350,54.58620483,-135.87314264,-157.17710987
78.72420672,-142.45149289,57.00688147,-176.86510425,-39.64993648,-50.94795287
55.71386501,-179.71753522,-163.19983910,-175.60774020,59.58552401,-169.51922112
-166.79437026,-175.91581208,167.52029327,69.78269320,10.24804110,-0.38001884
-0.76642551,-1.98610014,-0.12476453,-2.33515649

>  <Name>


>  <RI>
0

>  <Rbt.Current_Directory>
/home/itssahil/PROJECTS/Mol_Feturizer/New_Systems/rnas/1qd3

>  <Rbt.Executable>
rbdock ($Id: //depot/dev/client3/rdock/2013.1/src/exe/rbdock.cxx#4 $)

>  <Rbt.Library>
libRbt.so (2013.1, Build901 2013/11/27)

>  <Rbt.Parameter_File>
/export/apps/rDock/src/rDock_2013.1_src/data/scripts/dock_solv.prm

>  <Rbt.Receptor>
prm/pocket_docking_8.prm

>  <SCORE>
-41.3293

>  <SCORE.INTER>
-25.6788

>  <SCORE.INTER.CONST>
1

>  <SCORE.INTER.POLAR>
-3.81123

>  <SCORE.INTER.ROT>
9

>  <SCORE.INTER.SOLV>
29.6614

>  <SCORE.INTER.VDW>
-23.9022

>  <SCORE.INTER.norm>
-0.611399

>  <SCORE.INTRA>
-15.6505

>  <SCORE.INTRA.DIHEDRAL>
-23.1215

>  <SCORE.INTRA.DIHEDRAL.0>
40.6252

>  <SCORE.INTRA.POLAR>
1.1936

>  <SCORE.INTRA.POLAR.0>
-1.20161

>  <SCORE.INTRA.REPUL>
-0.115675

>  <SCORE.INTRA.REPUL.0>
0.115675

>  <SCORE.INTRA.SOLV>
-11.7067

>  <SCORE.INTRA.SOLV.lig_0>
-154.895

>  <SCORE.INTRA.VDW>
-1.71623

>  <SCORE.INTRA.VDW.0>
2.2925

>  <SCORE.INTRA.norm>
-0.372631

>  <SCORE.RESTR>
0

>  <SCORE.RESTR.CAVITY>
0

>  <SCORE.RESTR.norm>
0

>  <SCORE.SYSTEM>
0

>  <SCORE.SYSTEM.CONST>
0

>  <SCORE.SYSTEM.DIHEDRAL>
0

>  <SCORE.SYSTEM.SOLV>
0

>  <SCORE.SYSTEM.norm>
0

>  <SCORE.heavy>
42

>  <SCORE.norm>
-0.98403

>  <RMSD>
9.420

$$$$

 OpenBabel11021811413D
libRbt.so/2013.1/901 2013/11/27
 42 45  0  0  0  0  0  0  0  0999 V2000
    8.3607    0.9960   -2.1163 O   0  0  0  0  0  0  0  0  0  0  0  0
    8.6033   -0.3918   -2.2976 C   0  0  0  0  0  0  0  0  0  0  0  0
    7.9304   -1.1855   -1.1771 C   0  0  1  0  0  0  0  0  0  0  0  0
    8.1334   -2.6055   -1.3445 O   0  0  0  0  0  0  0  0  0  0  0  0
    8.4669   -0.8518    0.2050 C   0  0  2  0  0  0  0  0  0  0  0  0
    8.0173   -2.0787    0.9805 C   0  0  1  0  0  0  0  0  0  0  0  0
    6.6278   -1.9804    1.2728 O   0  0  0  0  0  0  0  0  0  0  0  0
    8.2603   -3.2142   -0.0345 C   0  0  2  0  0  0  0  0  0  0  0  0
   10.5647    2.8447    0.4991 C   0  0  2  0  0  0  0  0  0  0  0  0
    9.5233    1.9532    0.0720 O   0  0  0  0  0  0  0  0  0  0  0  0
    8.8894    1.2953    1.1838 C   0  0  2  0  0  0  0  0  0  0  0  0
    7.8897    0.3653    0.7176 O   0  0  0  0  0  0  0  0  0  0  0  0
    8.2580    2.3253    2.1360 C   0  0  2  0  0  0  0  0  0  0  0  0
    7.0194    2.8441    1.5853 N   0  3  0  0  0  0  0  0  0  0  0  0
    9.2092    3.4734    2.4937 C   0  0  1  0  0  0  0  0  0  0  0  0
   10.1421    3.0267    3.4648 O   0  0  0  0  0  0  0  0  0  0  0  0
    9.9566    4.0064    1.2744 C   0  0  2  0  0  0  0  0  0  0  0  0
    9.0659    4.7388    0.4408 O   0  0  0  0  0  0  0  0  0  0  0  0
   11.3647    3.3500   -0.6982 C   0  0  0  0  0  0  0  0  0  0  0  0
   12.6406    3.8876   -0.2645 N   0  3  0  0  0  0  0  0  0  0  0  0
    8.3140   -5.5184   -2.8702 C   0  0  1  0  0  0  0  0  0  0  0  0
    9.0672   -6.6589   -2.4075 O   0  0  0  0  0  0  0  0  0  0  0  0
   10.4911   -6.5318   -2.6259 C   0  0  2  0  0  0  0  0  0  0  0  0
   11.0683   -5.4611   -1.8385 O   0  0  0  0  0  0  0  0  0  0  0  0
   10.7947   -6.3466   -4.1176 C   0  0  2  0  0  0  0  0  0  0  0  0
   12.1946   -6.0111   -4.3004 N   0  3  0  0  0  0  0  0  0  0  0  0
    9.9322   -5.2532   -4.7383 C   0  0  1  0  0  0  0  0  0  0  0  0
   10.0730   -5.2772   -6.1503 O   0  0  0  0  0  0  0  0  0  0  0  0
    8.4598   -5.3723   -4.3761 C   0  0  2  0  0  0  0  0  0  0  0  0
    7.7471   -4.2289   -4.8250 O   0  0  0  0  0  0  0  0  0  0  0  0
    6.8315   -5.7128   -2.5652 C   0  0  0  0  0  0  0  0  0  0  0  0
    6.4305   -7.0848   -2.8171 N   0  3  0  0  0  0  0  0  0  0  0  0
    9.5211   -7.2769    1.6841 C   0  0  2  0  0  0  0  0  0  0  0  0
   10.9442   -7.6071    1.2791 C   0  0  0  0  0  0  0  0  0  0  0  0
   11.1898   -7.2160   -0.1664 C   0  0  1  0  0  0  0  0  0  0  0  0
   11.0087   -5.7173   -0.4107 C   0  0  2  0  0  0  0  0  0  0  0  0
    9.6581   -5.2231    0.1573 C   0  0  1  0  0  0  0  0  0  0  0  0
    9.2467   -5.7877    1.5235 C   0  0  1  0  0  0  0  0  0  0  0  0
    9.3109   -7.6650    3.0658 N   0  3  0  0  0  0  0  0  0  0  0  0
   12.5236   -7.6372   -0.5484 N   0  3  0  0  0  0  0  0  0  0  0  0
    9.5872   -3.7763    0.1771 O   0  0  0  0  0  0  0  0  0  0  0  0
    7.8670   -5.5258    1.7575 O   0  0  0  0  0  0  0  0  0  0  0  0
  1  2  1  0  0  0  0
  3  2  1  6  0  0  0
  3  4  1  0  0  0  0
  3  5  1  0  0  0  0
  4  8  1  0  0  0  0
  5  6  1  0  0  0  0
  5 12  1  1  0  0  0
  6  7  1  6  0  0  0
  6  8  1  0  0  0  0
  8 41  1  1  0  0  0
  9 10  1  0  0  0  0
  9 17  1  0  0  0  0
  9 19  1  6  0  0  0
 10 11  1  0  0  0  0
 11 12  1  6  0  0  0
 11 13  1  0  0  0  0
 13 14  1  6  0  0  0
 13 15  1  0  0  0  0
 15 16  1  1  0  0  0
 15 17  1  0  0  0  0
 17 18  1  6  0  0  0
 19 20  1  0  0  0  0
 21 22  1  0  0  0  0
 21 29  1  0  0  0  0
 21 31  1  6  0  0  0
 22 23  1  0  0  0  0
 23 24  1  1  0  0  0
 23 25  1  0  0  0  0
 25 26  1  1  0  0  0
 25 27  1  0  0  0  0
 27 28  1  6  0  0  0
 27 29  1  0  0  0  0
 29 30  1  1  0  0  0
 31 32  1  0  0  0  0
 33 34  1  0  0  0  0
 33 38  1  0  0  0  0
 33 39  1  1  0  0  0
 34 35  1  0  0  0  0
 35 36  1  0  0  0  0
 35 40  1  1  0  0  0
 36 24  1  6  0  0  0
 36 37  1  0  0  0  0
 37 38  1  0  0  0  0
 37 41  1  1  0  0  0
 38 42  1  6  0  0  0
M  CHG  6  14   1  20   1  26   1  32   1  39   1  40   1
M  END
>  <CHROM.1>
172.60331240,178.82006233,-128.89810690,51.38892919,-107.45502683,-161.93993479
76.72225795,113.59809292,-172.48492034,172.66203961,-66.16821519,-40.46964939
65.83281803,34.74473114,-166.77387342,-175.56285750,-176.19955453,82.45717769
153.73570078,-159.37146572,147.44801826,-66.69338288,9.30566960,-2.59233668
-0.65326514,-2.07415921,-1.49937037,2.93662137

>  <Name>


>  <RI>
0

>  <Rbt.Current_Directory>
/home/itssahil/PROJECTS/Mol_Feturizer/New_Systems/rnas/1qd3

>  <Rbt.Executable>
rbdock ($Id: //depot/dev/client3/rdock/2013.1/src/exe/rbdock.cxx#4 $)

>  <Rbt.Library>
libRbt.so (2013.1, Build901 2013/11/27)

>  <Rbt.Parameter_File>
/export/apps/rDock/src/rDock_2013.1_src/data/scripts/dock_solv.prm

>  <Rbt.Receptor>
prm/pocket_docking_5.prm

>  <SCORE>
-36.638

>  <SCORE.INTER>
-23.4709

>  <SCORE.INTER.CONST>
1

>  <SCORE.INTER.POLAR>
-5.65697

>  <SCORE.INTER.ROT>
9

>  <SCORE.INTER.SOLV>
26.4939

>  <SCORE.INTER.VDW>
-15.222

>  <SCORE.INTER.norm>
-0.558831

>  <SCORE.INTRA>
-13.2241

>  <SCORE.INTRA.DIHEDRAL>
-8.98525

>  <SCORE.INTRA.DIHEDRAL.0>
40.6252

>  <SCORE.INTRA.POLAR>
1.18888

>  <SCORE.INTRA.POLAR.0>
-1.20161

>  <SCORE.INTRA.REPUL>
0.0202982

>  <SCORE.INTRA.REPUL.0>
0.115675

>  <SCORE.INTRA.SOLV>
-11.2834

>  <SCORE.INTRA.SOLV.lig_0>
-154.895

>  <SCORE.INTRA.VDW>
-7.23346

>  <SCORE.INTRA.VDW.0>
2.2925

>  <SCORE.INTRA.norm>
-0.314859

>  <SCORE.RESTR>
0.0569971

>  <SCORE.RESTR.CAVITY>
0.0569971

>  <SCORE.RESTR.norm>
0.00135707

>  <SCORE.SYSTEM>
0

>  <SCORE.SYSTEM.CONST>
0

>  <SCORE.SYSTEM.DIHEDRAL>
0

>  <SCORE.SYSTEM.SOLV>
0

>  <SCORE.SYSTEM.norm>
0

>  <SCORE.heavy>
42

>  <SCORE.norm>
-0.872333

>  <RMSD>
9.423

$$$$

 OpenBabel11021811413D
libRbt.so/2013.1/901 2013/11/27
 42 45  0  0  0  0  0  0  0  0999 V2000
   10.9299   -0.8604   -2.7127 O   0  0  0  0  0  0  0  0  0  0  0  0
   10.2335   -0.9515   -1.4780 C   0  0  0  0  0  0  0  0  0  0  0  0
    8.7594   -1.2649   -1.7370 C   0  0  1  0  0  0  0  0  0  0  0  0
    8.5944   -2.5835   -2.3023 O   0  0  0  0  0  0  0  0  0  0  0  0
    7.9082   -1.2457   -0.4782 C   0  0  2  0  0  0  0  0  0  0  0  0
    6.7056   -2.0488   -0.9446 C   0  0  1  0  0  0  0  0  0  0  0  0
    5.8734   -1.2360   -1.7649 O   0  0  0  0  0  0  0  0  0  0  0  0
    7.3613   -3.1548   -1.7963 C   0  0  2  0  0  0  0  0  0  0  0  0
   10.7365    1.7893    0.5263 C   0  0  2  0  0  0  0  0  0  0  0  0
    9.6552    1.1921   -0.2056 O   0  0  0  0  0  0  0  0  0  0  0  0
    8.5995    0.7451    0.6642 C   0  0  2  0  0  0  0  0  0  0  0  0
    7.5575    0.0990   -0.0963 O   0  0  0  0  0  0  0  0  0  0  0  0
    8.0223    1.9234    1.4673 C   0  0  2  0  0  0  0  0  0  0  0  0
    7.1532    2.7361    0.6364 N   0  3  0  0  0  0  0  0  0  0  0  0
    9.1044    2.7903    2.1218 C   0  0  1  0  0  0  0  0  0  0  0  0
    9.5955    2.1355    3.2806 O   0  0  0  0  0  0  0  0  0  0  0  0
   10.2622    3.0850    1.1720 C   0  0  2  0  0  0  0  0  0  0  0  0
    9.8468    4.0074    0.1714 O   0  0  0  0  0  0  0  0  0  0  0  0
   11.9301    2.0439   -0.3898 C   0  0  0  0  0  0  0  0  0  0  0  0
   13.1687    1.9833    0.3633 N   0  3  0  0  0  0  0  0  0  0  0  0
    8.0664   -6.8802   -6.0990 C   0  0  1  0  0  0  0  0  0  0  0  0
    7.8549   -5.5659   -5.5423 O   0  0  0  0  0  0  0  0  0  0  0  0
    7.3459   -5.5922   -4.1889 C   0  0  2  0  0  0  0  0  0  0  0  0
    8.3047   -6.1531   -3.2585 O   0  0  0  0  0  0  0  0  0  0  0  0
    6.0111   -6.3447   -4.1280 C   0  0  2  0  0  0  0  0  0  0  0  0
    5.6188   -6.5466   -2.7457 N   0  3  0  0  0  0  0  0  0  0  0  0
    6.0920   -7.6965   -4.8285 C   0  0  1  0  0  0  0  0  0  0  0  0
    4.7905   -8.2480   -4.9550 O   0  0  0  0  0  0  0  0  0  0  0  0
    6.7444   -7.6233   -6.2005 C   0  0  2  0  0  0  0  0  0  0  0  0
    6.9590   -8.9293   -6.7152 O   0  0  0  0  0  0  0  0  0  0  0  0
    8.6420   -6.7644   -7.5075 C   0  0  0  0  0  0  0  0  0  0  0  0
    9.7093   -5.7816   -7.5475 N   0  3  0  0  0  0  0  0  0  0  0  0
   11.3815   -4.7615   -0.6707 C   0  0  2  0  0  0  0  0  0  0  0  0
   11.6248   -4.6962   -2.1656 C   0  0  0  0  0  0  0  0  0  0  0  0
   10.6362   -5.5793   -2.9042 C   0  0  1  0  0  0  0  0  0  0  0  0
    9.1845   -5.1511   -2.6845 C   0  0  2  0  0  0  0  0  0  0  0  0
    8.8792   -4.9825   -1.1781 C   0  0  1  0  0  0  0  0  0  0  0  0
    9.9679   -4.3064   -0.3343 C   0  0  1  0  0  0  0  0  0  0  0  0
   12.3416   -3.9147    0.0113 N   0  3  0  0  0  0  0  0  0  0  0  0
   10.9616   -5.5716   -4.3171 N   0  3  0  0  0  0  0  0  0  0  0  0
    7.6062   -4.3249   -0.9642 O   0  0  0  0  0  0  0  0  0  0  0  0
    9.7099   -4.5237    1.0489 O   0  0  0  0  0  0  0  0  0  0  0  0
  1  2  1  0  0  0  0
  3  2  1  1  0  0  0
  3  4  1  0  0  0  0
  3  5  1  0  0  0  0
  4  8  1  0  0  0  0
  5  6  1  0  0  0  0
  5 12  1  6  0  0  0
  6  7  1  6  0  0  0
  6  8  1  0  0  0  0
  8 41  1  1  0  0  0
  9 10  1  0  0  0  0
  9 17  1  0  0  0  0
  9 19  1  6  0  0  0
 10 11  1  0  0  0  0
 11 12  1  6  0  0  0
 11 13  1  0  0  0  0
 13 14  1  6  0  0  0
 13 15  1  0  0  0  0
 15 16  1  1  0  0  0
 15 17  1  0  0  0  0
 17 18  1  6  0  0  0
 19 20  1  0  0  0  0
 21 22  1  0  0  0  0
 21 29  1  0  0  0  0
 21 31  1  6  0  0  0
 22 23  1  0  0  0  0
 23 24  1  1  0  0  0
 23 25  1  0  0  0  0
 25 26  1  1  0  0  0
 25 27  1  0  0  0  0
 27 28  1  6  0  0  0
 27 29  1  0  0  0  0
 29 30  1  1  0  0  0
 31 32  1  0  0  0  0
 33 34  1  0  0  0  0
 33 38  1  0  0  0  0
 33 39  1  1  0  0  0
 34 35  1  0  0  0  0
 35 36  1  0  0  0  0
 35 40  1  6  0  0  0
 36 24  1  1  0  0  0
 36 37  1  0  0  0  0
 37 38  1  0  0  0  0
 37 41  1  6  0  0  0
 38 42  1  1  0  0  0
M  CHG  6  14   1  20   1  26   1  32   1  39   1  40   1
M  END
>  <CHROM.1>
72.84948099,66.55034936,-83.14985992,-83.24609526,-21.63927462,-151.01447023
77.82425791,162.72246897,-61.63223312,179.31281167,-177.51167863,45.15536214
89.91718496,-126.47130609,-144.07582361,39.20786451,176.76115488,-52.32921608
-42.88494179,66.68149958,-45.16287818,-178.82150178,8.82560358,-2.80756656
-1.94493800,-1.36365765,-0.01074593,-2.54504274

>  <Name>


>  <RI>
0

>  <Rbt.Current_Directory>
/home/itssahil/PROJECTS/Mol_Feturizer/New_Systems/rnas/1qd3

>  <Rbt.Executable>
rbdock ($Id: //depot/dev/client3/rdock/2013.1/src/exe/rbdock.cxx#4 $)

>  <Rbt.Library>
libRbt.so (2013.1, Build901 2013/11/27)

>  <Rbt.Parameter_File>
/export/apps/rDock/src/rDock_2013.1_src/data/scripts/dock_solv.prm

>  <Rbt.Receptor>
prm/pocket_docking_4.prm

>  <SCORE>
-38.6076

>  <SCORE.INTER>
-28.7618

>  <SCORE.INTER.CONST>
1

>  <SCORE.INTER.POLAR>
-5.29781

>  <SCORE.INTER.ROT>
9

>  <SCORE.INTER.SOLV>
30.1578

>  <SCORE.INTER.VDW>
-21.1678

>  <SCORE.INTER.norm>
-0.684804

>  <SCORE.INTRA>
-9.91457

>  <SCORE.INTRA.DIHEDRAL>
-5.73861

>  <SCORE.INTRA.DIHEDRAL.0>
40.6252

>  <SCORE.INTRA.POLAR>
1.09916

>  <SCORE.INTRA.POLAR.0>
-1.20161

>  <SCORE.INTRA.REPUL>
-0.106795

>  <SCORE.INTRA.REPUL.0>
0.115675

>  <SCORE.INTRA.SOLV>
-7.34864

>  <SCORE.INTRA.SOLV.lig_0>
-154.895

>  <SCORE.INTRA.VDW>
-6.57413

>  <SCORE.INTRA.VDW.0>
2.2925

>  <SCORE.INTRA.norm>
-0.236061

>  <SCORE.RESTR>
0.0687191

>  <SCORE.RESTR.CAVITY>
0.0687191

>  <SCORE.RESTR.norm>
0.00163617

>  <SCORE.SYSTEM>
0

>  <SCORE.SYSTEM.CONST>
0

>  <SCORE.SYSTEM.DIHEDRAL>
0

>  <SCORE.SYSTEM.SOLV>
0

>  <SCORE.SYSTEM.norm>
0

>  <SCORE.heavy>
42

>  <SCORE.norm>
-0.919229

>  <RMSD>
9.427

$$$$

 OpenBabel11021811413D
libRbt.so/2013.1/901 2013/11/27
 42 45  0  0  0  0  0  0  0  0999 V2000
    7.8210   -0.4999   -3.4068 O   0  0  0  0  0  0  0  0  0  0  0  0
    8.0327    0.2026   -2.1905 C   0  0  0  0  0  0  0  0  0  0  0  0
    7.4317   -0.5856   -1.0261 C   0  0  1  0  0  0  0  0  0  0  0  0
    7.5713   -2.0088   -1.2279 O   0  0  0  0  0  0  0  0  0  0  0  0
    8.0955   -0.2906    0.3087 C   0  0  2  0  0  0  0  0  0  0  0  0
    7.6726   -1.5137    1.1049 C   0  0  1  0  0  0  0  0  0  0  0  0
    6.3173   -1.3744    1.5168 O   0  0  0  0  0  0  0  0  0  0  0  0
    7.7891   -2.6411    0.0588 C   0  0  2  0  0  0  0  0  0  0  0  0
   10.6736    2.3120    2.3153 C   0  0  2  0  0  0  0  0  0  0  0  0
    9.7505    1.8402    1.3220 O   0  0  0  0  0  0  0  0  0  0  0  0
    8.4882    1.4599    1.8987 C   0  0  2  0  0  0  0  0  0  0  0  0
    7.6060    0.9368    0.8840 O   0  0  0  0  0  0  0  0  0  0  0  0
    7.8338    2.6565    2.6102 C   0  0  2  0  0  0  0  0  0  0  0  0
    7.2512    3.5725    1.6469 N   0  3  0  0  0  0  0  0  0  0  0  0
    8.7973    3.3995    3.5432 C   0  0  1  0  0  0  0  0  0  0  0  0
    8.9492    2.6633    4.7465 O   0  0  0  0  0  0  0  0  0  0  0  0
   10.1653    3.6218    2.9040 C   0  0  2  0  0  0  0  0  0  0  0  0
   10.0707    4.6121    1.8866 O   0  0  0  0  0  0  0  0  0  0  0  0
   12.0652    2.4901    1.7148 C   0  0  0  0  0  0  0  0  0  0  0  0
   13.0440    2.7140    2.7621 N   0  3  0  0  0  0  0  0  0  0  0  0
    6.8502   -5.9362   -2.3480 C   0  0  1  0  0  0  0  0  0  0  0  0
    8.0964   -6.6307   -2.5639 O   0  0  0  0  0  0  0  0  0  0  0  0
    9.0844   -5.8327   -3.2556 C   0  0  2  0  0  0  0  0  0  0  0  0
    9.5156   -4.6969   -2.4658 O   0  0  0  0  0  0  0  0  0  0  0  0
    8.5564   -5.3858   -4.6243 C   0  0  2  0  0  0  0  0  0  0  0  0
    9.4640   -4.4192   -5.2139 N   0  3  0  0  0  0  0  0  0  0  0  0
    7.1661   -4.7687   -4.5195 C   0  0  1  0  0  0  0  0  0  0  0  0
    6.6237   -4.5893   -5.8187 O   0  0  0  0  0  0  0  0  0  0  0  0
    6.2039   -5.5961   -3.6810 C   0  0  2  0  0  0  0  0  0  0  0  0
    4.9956   -4.8814   -3.4673 O   0  0  0  0  0  0  0  0  0  0  0  0
    5.8813   -6.8290   -1.5780 C   0  0  0  0  0  0  0  0  0  0  0  0
    6.4624   -7.2504   -0.3165 N   0  3  0  0  0  0  0  0  0  0  0  0
    9.6734   -6.8737    1.1861 C   0  0  2  0  0  0  0  0  0  0  0  0
   10.7628   -7.1221    0.1617 C   0  0  0  0  0  0  0  0  0  0  0  0
   10.3446   -6.5931   -1.1978 C   0  0  1  0  0  0  0  0  0  0  0  0
   10.0941   -5.0844   -1.1919 C   0  0  2  0  0  0  0  0  0  0  0  0
    9.1444   -4.6856   -0.0388 C   0  0  1  0  0  0  0  0  0  0  0  0
    9.3765   -5.3851    1.3071 C   0  0  1  0  0  0  0  0  0  0  0  0
   10.0949   -7.3928    2.4733 N   0  3  0  0  0  0  0  0  0  0  0  0
   11.3631   -6.9368   -2.1709 N   0  3  0  0  0  0  0  0  0  0  0  0
    9.1095   -3.2494    0.1485 O   0  0  0  0  0  0  0  0  0  0  0  0
    8.2488   -5.1877    2.1535 O   0  0  0  0  0  0  0  0  0  0  0  0
  1  2  1  0  0  0  0
  3  2  1  6  0  0  0
  3  4  1  0  0  0  0
  3  5  1  0  0  0  0
  4  8  1  0  0  0  0
  5  6  1  0  0  0  0
  5 12  1  1  0  0  0
  6  7  1  6  0  0  0
  6  8  1  0  0  0  0
  8 41  1  6  0  0  0
  9 10  1  0  0  0  0
  9 17  1  0  0  0  0
  9 19  1  6  0  0  0
 10 11  1  0  0  0  0
 11 12  1  6  0  0  0
 11 13  1  0  0  0  0
 13 14  1  6  0  0  0
 13 15  1  0  0  0  0
 15 16  1  1  0  0  0
 15 17  1  0  0  0  0
 17 18  1  6  0  0  0
 19 20  1  0  0  0  0
 21 22  1  0  0  0  0
 21 29  1  0  0  0  0
 21 31  1  1  0  0  0
 22 23  1  0  0  0  0
 23 24  1  1  0  0  0
 23 25  1  0  0  0  0
 25 26  1  1  0  0  0
 25 27  1  0  0  0  0
 27 28  1  6  0  0  0
 27 29  1  0  0  0  0
 29 30  1  1  0  0  0
 31 32  1  0  0  0  0
 33 34  1  0  0  0  0
 33 38  1  0  0  0  0
 33 39  1  1  0  0  0
 34 35  1  0  0  0  0
 35 36  1  0  0  0  0
 35 40  1  6  0  0  0
 36 24  1  6  0  0  0
 36 37  1  0  0  0  0
 37 38  1  0  0  0  0
 37 41  1  1  0  0  0
 38 42  1  1  0  0  0
M  CHG  6  14   1  20   1  26   1  32   1  39   1  40   1
M  END
>  <CHROM.1>
173.56032724,35.26829207,-161.45785907,74.42870043,-101.11097096,-168.99011366
64.94517589,26.49724904,64.65485545,-62.14259161,-169.88599303,57.14633241
59.00373899,11.99805176,-40.41900365,-44.62167531,-85.10748375,64.34831904
-178.11017267,-62.61059788,123.29920424,-173.88834762,8.63145394,-2.40338532
-0.33070727,1.30418818,-1.06043411,0.25620458

>  <Name>


>  <RI>
0

>  <Rbt.Current_Directory>
/home/itssahil/PROJECTS/Mol_Feturizer/New_Systems/rnas/1qd3

>  <Rbt.Executable>
rbdock ($Id: //depot/dev/client3/rdock/2013.1/src/exe/rbdock.cxx#4 $)

>  <Rbt.Library>
libRbt.so (2013.1, Build901 2013/11/27)

>  <Rbt.Parameter_File>
/export/apps/rDock/src/rDock_2013.1_src/data/scripts/dock_solv.prm

>  <Rbt.Receptor>
prm/pocket_docking_3.prm

>  <SCORE>
-51.9054

>  <SCORE.INTER>
-49.1592

>  <SCORE.INTER.CONST>
1

>  <SCORE.INTER.POLAR>
-8.36147

>  <SCORE.INTER.ROT>
9

>  <SCORE.INTER.SOLV>
37.9235

>  <SCORE.INTER.VDW>
-27.1424

>  <SCORE.INTER.norm>
-1.17046

>  <SCORE.INTRA>
-7.73806

>  <SCORE.INTRA.DIHEDRAL>
-7.12943

>  <SCORE.INTRA.DIHEDRAL.0>
40.6252

>  <SCORE.INTRA.POLAR>
0.666936

>  <SCORE.INTRA.POLAR.0>
-1.20161

>  <SCORE.INTRA.REPUL>
0.0106128

>  <SCORE.INTRA.REPUL.0>
0.115675

>  <SCORE.INTRA.SOLV>
-9.61992

>  <SCORE.INTRA.SOLV.lig_0>
-154.895

>  <SCORE.INTRA.VDW>
-1.68404

>  <SCORE.INTRA.VDW.0>
2.2925

>  <SCORE.INTRA.norm>
-0.18424

>  <SCORE.RESTR>
4.99191

>  <SCORE.RESTR.CAVITY>
4.99191

>  <SCORE.RESTR.norm>
0.118855

>  <SCORE.SYSTEM>
0

>  <SCORE.SYSTEM.CONST>
0

>  <SCORE.SYSTEM.DIHEDRAL>
0

>  <SCORE.SYSTEM.SOLV>
0

>  <SCORE.SYSTEM.norm>
0

>  <SCORE.heavy>
42

>  <SCORE.norm>
-1.23584

>  <RMSD>
9.431

$$$$

 OpenBabel11021811413D
libRbt.so/2013.1/901 2013/11/27
 42 45  0  0  0  0  0  0  0  0999 V2000
   10.4817    2.6269   -0.1272 O   0  0  0  0  0  0  0  0  0  0  0  0
   10.0539    1.6408    0.8014 C   0  0  0  0  0  0  0  0  0  0  0  0
    8.9521    0.7843    0.1761 C   0  0  1  0  0  0  0  0  0  0  0  0
    9.4658   -0.0254   -0.9038 O   0  0  0  0  0  0  0  0  0  0  0  0
    8.3152   -0.1883    1.1548 C   0  0  2  0  0  0  0  0  0  0  0  0
    7.6861   -1.1797    0.1904 C   0  0  1  0  0  0  0  0  0  0  0  0
    6.4922   -0.6289   -0.3546 O   0  0  0  0  0  0  0  0  0  0  0  0
    8.7610   -1.2927   -0.9098 C   0  0  2  0  0  0  0  0  0  0  0  0
    7.9887    3.6656    3.6250 C   0  0  2  0  0  0  0  0  0  0  0  0
    7.3728    2.7046    2.7540 O   0  0  0  0  0  0  0  0  0  0  0  0
    7.9371    1.3910    2.9180 C   0  0  2  0  0  0  0  0  0  0  0  0
    7.3378    0.4639    1.9892 O   0  0  0  0  0  0  0  0  0  0  0  0
    7.7499    0.8962    4.3625 C   0  0  2  0  0  0  0  0  0  0  0  0
    6.3822    0.4647    4.5857 N   0  3  0  0  0  0  0  0  0  0  0  0
    8.1630    1.9359    5.4109 C   0  0  1  0  0  0  0  0  0  0  0  0
    9.5775    1.9615    5.5169 O   0  0  0  0  0  0  0  0  0  0  0  0
    7.6506    3.3333    5.0728 C   0  0  2  0  0  0  0  0  0  0  0  0
    6.2435    3.3964    5.2741 O   0  0  0  0  0  0  0  0  0  0  0  0
    7.5356    5.0794    3.2720 C   0  0  0  0  0  0  0  0  0  0  0  0
    8.6752    5.9007    2.9088 N   0  3  0  0  0  0  0  0  0  0  0  0
    6.8502   -5.2154   -3.6631 C   0  0  1  0  0  0  0  0  0  0  0  0
    7.1069   -4.3864   -2.5104 O   0  0  0  0  0  0  0  0  0  0  0  0
    8.1630   -4.8947   -1.6631 C   0  0  2  0  0  0  0  0  0  0  0  0
    9.4499   -4.8768   -2.3288 O   0  0  0  0  0  0  0  0  0  0  0  0
    7.8210   -6.3019   -1.1587 C   0  0  2  0  0  0  0  0  0  0  0  0
    8.9707   -6.8811   -0.4889 N   0  3  0  0  0  0  0  0  0  0  0  0
    7.3885   -7.2204   -2.2962 C   0  0  1  0  0  0  0  0  0  0  0  0
    6.8602   -8.4250   -1.7633 O   0  0  0  0  0  0  0  0  0  0  0  0
    6.3626   -6.5860   -3.2227 C   0  0  2  0  0  0  0  0  0  0  0  0
    6.1445   -7.4121   -4.3569 O   0  0  0  0  0  0  0  0  0  0  0  0
    5.7564   -4.5893   -4.5236 C   0  0  0  0  0  0  0  0  0  0  0  0
    4.4955   -4.5523   -3.8056 N   0  3  0  0  0  0  0  0  0  0  0  0
   12.1926   -1.7986   -3.3785 C   0  0  2  0  0  0  0  0  0  0  0  0
   11.3166   -2.3752   -4.4731 C   0  0  0  0  0  0  0  0  0  0  0  0
   10.7140   -3.6960   -4.0312 C   0  0  1  0  0  0  0  0  0  0  0  0
    9.8235   -3.5541   -2.7961 C   0  0  2  0  0  0  0  0  0  0  0  0
   10.5551   -2.7851   -1.6717 C   0  0  1  0  0  0  0  0  0  0  0  0
   11.3866   -1.5712   -2.1067 C   0  0  1  0  0  0  0  0  0  0  0  0
   12.7600   -0.5414   -3.8274 N   0  3  0  0  0  0  0  0  0  0  0  0
    9.9670   -4.2660   -5.1354 N   0  3  0  0  0  0  0  0  0  0  0  0
    9.6471   -2.4085   -0.6075 O   0  0  0  0  0  0  0  0  0  0  0  0
   12.2571   -1.1797   -1.0502 O   0  0  0  0  0  0  0  0  0  0  0  0
  1  2  1  0  0  0  0
  3  2  1  1  0  0  0
  3  4  1  0  0  0  0
  3  5  1  0  0  0  0
  4  8  1  0  0  0  0
  5  6  1  0  0  0  0
  5 12  1  6  0  0  0
  6  7  1  6  0  0  0
  6  8  1  0  0  0  0
  8 41  1  1  0  0  0
  9 10  1  0  0  0  0
  9 17  1  0  0  0  0
  9 19  1  6  0  0  0
 10 11  1  0  0  0  0
 11 12  1  6  0  0  0
 11 13  1  0  0  0  0
 13 14  1  1  0  0  0
 13 15  1  0  0  0  0
 15 16  1  6  0  0  0
 15 17  1  0  0  0  0
 17 18  1  6  0  0  0
 19 20  1  0  0  0  0
 21 22  1  0  0  0  0
 21 29  1  0  0  0  0
 21 31  1  6  0  0  0
 22 23  1  0  0  0  0
 23 24  1  6  0  0  0
 23 25  1  0  0  0  0
 25 26  1  6  0  0  0
 25 27  1  0  0  0  0
 27 28  1  1  0  0  0
 27 29  1  0  0  0  0
 29 30  1  6  0  0  0
 31 32  1  0  0  0  0
 33 34  1  0  0  0  0
 33 38  1  0  0  0  0
 33 39  1  6  0  0  0
 34 35  1  0  0  0  0
 35 36  1  0  0  0  0
 35 40  1  6  0  0  0
 36 24  1  1  0  0  0
 36 37  1  0  0  0  0
 37 38  1  0  0  0  0
 37 41  1  1  0  0  0
 38 42  1  1  0  0  0
M  CHG  6  14   1  20   1  26   1  32   1  39   1  40   1
M  END
>  <CHROM.1>
66.56335303,67.90072428,-68.78296111,62.29221835,-73.80002135,-120.17748756
123.61920473,172.54157759,63.92690628,-62.46637436,-48.15023631,-64.63248365
56.92550688,-150.81174078,75.27500834,64.15264785,179.09437250,-81.07801191
-57.61227504,-37.03393035,-75.19046774,63.38662600,8.52625782,-1.47509675
-0.30936694,-1.57214686,-0.64501830,-2.45796787

>  <Name>


>  <RI>
0

>  <Rbt.Current_Directory>
/home/itssahil/PROJECTS/Mol_Feturizer/New_Systems/rnas/1qd3

>  <Rbt.Executable>
rbdock ($Id: //depot/dev/client3/rdock/2013.1/src/exe/rbdock.cxx#4 $)

>  <Rbt.Library>
libRbt.so (2013.1, Build901 2013/11/27)

>  <Rbt.Parameter_File>
/export/apps/rDock/src/rDock_2013.1_src/data/scripts/dock_solv.prm

>  <Rbt.Receptor>
prm/pocket_docking_3.prm

>  <SCORE>
-56.4007

>  <SCORE.INTER>
-38.9618

>  <SCORE.INTER.CONST>
1

>  <SCORE.INTER.POLAR>
-7.95834

>  <SCORE.INTER.ROT>
9

>  <SCORE.INTER.SOLV>
46.331

>  <SCORE.INTER.VDW>
-24.4904

>  <SCORE.INTER.norm>
-0.927662

>  <SCORE.INTRA>
-18.3759

>  <SCORE.INTRA.DIHEDRAL>
-15.9892

>  <SCORE.INTRA.DIHEDRAL.0>
40.6252

>  <SCORE.INTRA.POLAR>
1.0662

>  <SCORE.INTRA.POLAR.0>
-1.20161

>  <SCORE.INTRA.REPUL>
-0.115675

>  <SCORE.INTRA.REPUL.0>
0.115675

>  <SCORE.INTRA.SOLV>
-13.2331

>  <SCORE.INTRA.SOLV.lig_0>
-154.895

>  <SCORE.INTRA.VDW>
-6.81145

>  <SCORE.INTRA.VDW.0>
2.2925

>  <SCORE.INTRA.norm>
-0.437521

>  <SCORE.RESTR>
0.937042

>  <SCORE.RESTR.CAVITY>
0.937042

>  <SCORE.RESTR.norm>
0.0223105

>  <SCORE.SYSTEM>
0

>  <SCORE.SYSTEM.CONST>
0

>  <SCORE.SYSTEM.DIHEDRAL>
0

>  <SCORE.SYSTEM.SOLV>
0

>  <SCORE.SYSTEM.norm>
0

>  <SCORE.heavy>
42

>  <SCORE.norm>
-1.34287

>  <RMSD>
9.435

$$$$

 OpenBabel11021811413D
libRbt.so/2013.1/901 2013/11/27
 42 45  0  0  0  0  0  0  0  0999 V2000
    8.6584    0.6782   -2.3202 O   0  0  0  0  0  0  0  0  0  0  0  0
    8.5904    0.6741   -0.9014 C   0  0  0  0  0  0  0  0  0  0  0  0
    7.7637   -0.5214   -0.4263 C   0  0  1  0  0  0  0  0  0  0  0  0
    8.0391   -1.6978   -1.2174 O   0  0  0  0  0  0  0  0  0  0  0  0
    8.0466   -0.9165    1.0137 C   0  0  2  0  0  0  0  0  0  0  0  0
    7.5127   -2.3391    1.0206 C   0  0  1  0  0  0  0  0  0  0  0  0
    6.0913   -2.3190    1.0909 O   0  0  0  0  0  0  0  0  0  0  0  0
    7.9619   -2.8636   -0.3584 C   0  0  2  0  0  0  0  0  0  0  0  0
    8.8518    3.2683    1.9452 C   0  0  2  0  0  0  0  0  0  0  0  0
    8.0068    2.1776    1.5480 O   0  0  0  0  0  0  0  0  0  0  0  0
    8.1692    1.0324    2.4041 C   0  0  2  0  0  0  0  0  0  0  0  0
    7.3509   -0.0630    1.9435 O   0  0  0  0  0  0  0  0  0  0  0  0
    7.8167    1.3876    3.8587 C   0  0  2  0  0  0  0  0  0  0  0  0
    6.3782    1.4633    4.0362 N   0  3  0  0  0  0  0  0  0  0  0  0
    8.4860    2.6805    4.3394 C   0  0  1  0  0  0  0  0  0  0  0  0
    9.8464    2.4204    4.6470 O   0  0  0  0  0  0  0  0  0  0  0  0
    8.4011    3.7962    3.3012 C   0  0  2  0  0  0  0  0  0  0  0  0
    7.0664    4.2821    3.2187 O   0  0  0  0  0  0  0  0  0  0  0  0
    8.8289    4.3762    0.8960 C   0  0  0  0  0  0  0  0  0  0  0  0
    9.7778    5.4186    1.2391 N   0  3  0  0  0  0  0  0  0  0  0  0
    6.5325   -6.2252   -4.6120 C   0  0  1  0  0  0  0  0  0  0  0  0
    6.2993   -5.0980   -3.7419 O   0  0  0  0  0  0  0  0  0  0  0  0
    6.7986   -5.2977   -2.3994 C   0  0  2  0  0  0  0  0  0  0  0  0
    8.2438   -5.3986   -2.3665 O   0  0  0  0  0  0  0  0  0  0  0  0
    6.1439   -6.5264   -1.7565 C   0  0  2  0  0  0  0  0  0  0  0  0
    6.8016   -6.8384   -0.5012 N   0  3  0  0  0  0  0  0  0  0  0  0
    6.2071   -7.7442   -2.6716 C   0  0  1  0  0  0  0  0  0  0  0  0
    5.3920   -8.7801   -2.1458 O   0  0  0  0  0  0  0  0  0  0  0  0
    5.7817   -7.4438   -4.1007 C   0  0  2  0  0  0  0  0  0  0  0  0
    6.0408   -8.5612   -4.9379 O   0  0  0  0  0  0  0  0  0  0  0  0
    6.0160   -5.9179   -6.0147 C   0  0  0  0  0  0  0  0  0  0  0  0
    4.7687   -6.6156   -6.2675 N   0  3  0  0  0  0  0  0  0  0  0  0
   11.5783   -2.8838   -3.1766 C   0  0  2  0  0  0  0  0  0  0  0  0
   10.4771   -2.9627   -4.2155 C   0  0  0  0  0  0  0  0  0  0  0  0
    9.5968   -4.1733   -3.9661 C   0  0  1  0  0  0  0  0  0  0  0  0
    8.9023   -4.1269   -2.6043 C   0  0  2  0  0  0  0  0  0  0  0  0
    9.9183   -3.8402   -1.4745 C   0  0  1  0  0  0  0  0  0  0  0  0
   10.9911   -2.7852   -1.7751 C   0  0  1  0  0  0  0  0  0  0  0  0
   12.4075   -1.7233   -3.4405 N   0  3  0  0  0  0  0  0  0  0  0  0
    8.6201   -4.2736   -5.0330 N   0  3  0  0  0  0  0  0  0  0  0  0
    9.2515   -3.5276   -0.2268 O   0  0  0  0  0  0  0  0  0  0  0  0
   12.0346   -2.8705   -0.8103 O   0  0  0  0  0  0  0  0  0  0  0  0
  1  2  1  0  0  0  0
  3  2  1  6  0  0  0
  3  4  1  0  0  0  0
  3  5  1  0  0  0  0
  4  8  1  0  0  0  0
  5  6  1  0  0  0  0
  5 12  1  1  0  0  0
  6  7  1  6  0  0  0
  6  8  1  0  0  0  0
  8 41  1  1  0  0  0
  9 10  1  0  0  0  0
  9 17  1  0  0  0  0
  9 19  1  6  0  0  0
 10 11  1  0  0  0  0
 11 12  1  6  0  0  0
 11 13  1  0  0  0  0
 13 14  1  6  0  0  0
 13 15  1  0  0  0  0
 15 16  1  6  0  0  0
 15 17  1  0  0  0  0
 17 18  1  6  0  0  0
 19 20  1  0  0  0  0
 21 22  1  0  0  0  0
 21 29  1  0  0  0  0
 21 31  1  6  0  0  0
 22 23  1  0  0  0  0
 23 24  1  6  0  0  0
 23 25  1  0  0  0  0
 25 26  1  1  0  0  0
 25 27  1  0  0  0  0
 27 28  1  1  0  0  0
 27 29  1  0  0  0  0
 29 30  1  6  0  0  0
 31 32  1  0  0  0  0
 33 34  1  0  0  0  0
 33 38  1  0  0  0  0
 33 39  1  6  0  0  0
 34 35  1  0  0  0  0
 35 36  1  0  0  0  0
 35 40  1  6  0  0  0
 36 24  1  1  0  0  0
 36 37  1  0  0  0  0
 37 38  1  0  0  0  0
 37 41  1  1  0  0  0
 38 42  1  1  0  0  0
M  CHG  6  14   1  20   1  26   1  32   1  39   1  40   1
M  END
>  <CHROM.1>
-179.55381499,39.43200157,-94.69403680,54.15226536,-51.60886384,-174.66959205
90.54399178,-22.10428711,58.42378368,-174.04949244,79.16860295,-104.53047869
72.15783444,-110.73849636,-35.17028004,172.13898649,61.43825894,60.56994387
-57.49765184,19.28612894,-31.04591967,-67.88691881,8.09368534,-2.15099093
-0.88733747,-1.39092660,-0.67109261,-2.42193094

>  <Name>


>  <RI>
0

>  <Rbt.Current_Directory>
/home/itssahil/PROJECTS/Mol_Feturizer/New_Systems/rnas/1qd3

>  <Rbt.Executable>
rbdock ($Id: //depot/dev/client3/rdock/2013.1/src/exe/rbdock.cxx#4 $)

>  <Rbt.Library>
libRbt.so (2013.1, Build901 2013/11/27)

>  <Rbt.Parameter_File>
/export/apps/rDock/src/rDock_2013.1_src/data/scripts/dock_solv.prm

>  <Rbt.Receptor>
prm/pocket_docking_2.prm

>  <SCORE>
-45.1392

>  <SCORE.INTER>
-40.8906

>  <SCORE.INTER.CONST>
1

>  <SCORE.INTER.POLAR>
-6.75619

>  <SCORE.INTER.ROT>
9

>  <SCORE.INTER.SOLV>
39.0663

>  <SCORE.INTER.VDW>
-27.3618

>  <SCORE.INTER.norm>
-0.973585

>  <SCORE.INTRA>
-9.50121

>  <SCORE.INTRA.DIHEDRAL>
-5.98765

>  <SCORE.INTRA.DIHEDRAL.0>
40.6252

>  <SCORE.INTRA.POLAR>
0.286883

>  <SCORE.INTRA.POLAR.0>
-1.20161

>  <SCORE.INTRA.REPUL>
-0.115675

>  <SCORE.INTRA.REPUL.0>
0.115675

>  <SCORE.INTRA.SOLV>
-7.02829

>  <SCORE.INTRA.SOLV.lig_0>
-154.895

>  <SCORE.INTRA.VDW>
-3.39027

>  <SCORE.INTRA.VDW.0>
2.2925

>  <SCORE.INTRA.norm>
-0.226219

>  <SCORE.RESTR>
5.25261

>  <SCORE.RESTR.CAVITY>
5.25261

>  <SCORE.RESTR.norm>
0.125062

>  <SCORE.SYSTEM>
0

>  <SCORE.SYSTEM.CONST>
0

>  <SCORE.SYSTEM.DIHEDRAL>
0

>  <SCORE.SYSTEM.SOLV>
0

>  <SCORE.SYSTEM.norm>
0

>  <SCORE.heavy>
42

>  <SCORE.norm>
-1.07474

>  <RMSD>
9.442

$$$$

 OpenBabel11021811413D
libRbt.so/2013.1/901 2013/11/27
 42 45  0  0  0  0  0  0  0  0999 V2000
   11.8371   -6.5862    2.5611 O   0  0  0  0  0  0  0  0  0  0  0  0
   11.4356   -5.4265    1.8458 C   0  0  0  0  0  0  0  0  0  0  0  0
   11.4591   -5.7108    0.3435 C   0  0  1  0  0  0  0  0  0  0  0  0
   10.5829   -6.8071    0.0028 O   0  0  0  0  0  0  0  0  0  0  0  0
   10.9968   -4.5347   -0.5006 C   0  0  2  0  0  0  0  0  0  0  0  0
   10.6534   -5.2440   -1.7997 C   0  0  1  0  0  0  0  0  0  0  0  0
   11.8477   -5.5481   -2.5118 O   0  0  0  0  0  0  0  0  0  0  0  0
    9.9967   -6.5461   -1.2977 C   0  0  2  0  0  0  0  0  0  0  0  0
   11.8170   -0.0620   -1.7043 C   0  0  2  0  0  0  0  0  0  0  0  0
   12.2623   -1.2218   -0.9846 O   0  0  0  0  0  0  0  0  0  0  0  0
   11.6180   -2.4222   -1.4480 C   0  0  2  0  0  0  0  0  0  0  0  0
   12.0435   -3.5581   -0.6668 O   0  0  0  0  0  0  0  0  0  0  0  0
   11.9159   -2.6575   -2.9387 C   0  0  2  0  0  0  0  0  0  0  0  0
   13.2618   -3.1695   -3.1202 N   0  3  0  0  0  0  0  0  0  0  0  0
   11.6963   -1.4073   -3.7988 C   0  0  1  0  0  0  0  0  0  0  0  0
   10.3068   -1.2271   -4.0215 O   0  0  0  0  0  0  0  0  0  0  0  0
   12.2775   -0.1521   -3.1536 C   0  0  2  0  0  0  0  0  0  0  0  0
   13.6985   -0.1882   -3.2147 O   0  0  0  0  0  0  0  0  0  0  0  0
   12.3391    1.2123   -1.0466 C   0  0  0  0  0  0  0  0  0  0  0  0
   11.9416    2.3778   -1.8139 N   0  3  0  0  0  0  0  0  0  0  0  0
    8.1307   -7.0457   -5.7353 C   0  0  1  0  0  0  0  0  0  0  0  0
    8.4156   -6.5233   -4.4207 O   0  0  0  0  0  0  0  0  0  0  0  0
    7.3408   -6.7323   -3.4760 C   0  0  2  0  0  0  0  0  0  0  0  0
    7.1315   -8.1379   -3.1931 O   0  0  0  0  0  0  0  0  0  0  0  0
    6.0495   -6.0698   -3.9713 C   0  0  2  0  0  0  0  0  0  0  0  0
    4.9361   -6.4622   -3.1274 N   0  3  0  0  0  0  0  0  0  0  0  0
    5.7399   -6.4455   -5.4161 C   0  0  1  0  0  0  0  0  0  0  0  0
    4.6822   -5.6350   -5.9046 O   0  0  0  0  0  0  0  0  0  0  0  0
    6.9413   -6.3179   -6.3401 C   0  0  2  0  0  0  0  0  0  0  0  0
    6.6400   -6.8573   -7.6187 O   0  0  0  0  0  0  0  0  0  0  0  0
    9.3269   -6.8233   -6.6563 C   0  0  0  0  0  0  0  0  0  0  0  0
   10.3908   -7.7631   -6.3533 N   0  3  0  0  0  0  0  0  0  0  0  0
    7.5863   -9.4223    0.8372 C   0  0  2  0  0  0  0  0  0  0  0  0
    7.9085  -10.4111   -0.2658 C   0  0  0  0  0  0  0  0  0  0  0  0
    7.3204   -9.9460   -1.5851 C   0  0  1  0  0  0  0  0  0  0  0  0
    7.8813   -8.5972   -2.0379 C   0  0  2  0  0  0  0  0  0  0  0  0
    7.7923   -7.5516   -0.9023 C   0  0  1  0  0  0  0  0  0  0  0  0
    8.1459   -8.0451    0.5069 C   0  0  1  0  0  0  0  0  0  0  0  0
    8.1538   -9.8922    2.0866 N   0  3  0  0  0  0  0  0  0  0  0  0
    7.5601  -10.9615   -2.5919 N   0  3  0  0  0  0  0  0  0  0  0  0
    8.5544   -6.3600   -1.2160 O   0  0  0  0  0  0  0  0  0  0  0  0
    7.6994   -7.1008    1.4744 O   0  0  0  0  0  0  0  0  0  0  0  0
  1  2  1  0  0  0  0
  3  2  1  1  0  0  0
  3  4  1  0  0  0  0
  3  5  1  0  0  0  0
  4  8  1  0  0  0  0
  5  6  1  0  0  0  0
  5 12  1  6  0  0  0
  6  7  1  1  0  0  0
  6  8  1  0  0  0  0
  8 41  1  1  0  0  0
  9 10  1  0  0  0  0
  9 17  1  0  0  0  0
  9 19  1  1  0  0  0
 10 11  1  0  0  0  0
 11 12  1  1  0  0  0
 11 13  1  0  0  0  0
 13 14  1  1  0  0  0
 13 15  1  0  0  0  0
 15 16  1  1  0  0  0
 15 17  1  0  0  0  0
 17 18  1  1  0  0  0
 19 20  1  0  0  0  0
 21 22  1  0  0  0  0
 21 29  1  0  0  0  0
 21 31  1  6  0  0  0
 22 23  1  0  0  0  0
 23 24  1  6  0  0  0
 23 25  1  0  0  0  0
 25 26  1  1  0  0  0
 25 27  1  0  0  0  0
 27 28  1  6  0  0  0
 27 29  1  0  0  0  0
 29 30  1  6  0  0  0
 31 32  1  0  0  0  0
 33 34  1  0  0  0  0
 33 38  1  0  0  0  0
 33 39  1  1  0  0  0
 34 35  1  0  0  0  0
 35 36  1  0  0  0  0
 35 40  1  6  0  0  0
 36 24  1  6  0  0  0
 36 37  1  0  0  0  0
 37 38  1  0  0  0  0
 37 41  1  6  0  0  0
 38 42  1  1  0  0  0
M  CHG  6  14   1  20   1  26   1  32   1  39   1  40   1
M  END
>  <CHROM.1>
-50.92208569,58.92333016,-179.07488606,-178.44290997,-69.82936802,177.20960190
146.22733044,-175.93740488,65.58634770,-60.64108703,-69.30886752,75.39005587
92.43756872,164.56582474,84.17282636,-59.33793532,179.59278802,-164.35849177
-75.21543322,70.52358870,-66.03021410,-122.53233488,9.49456979,-5.41924463
-2.27706320,-0.47127223,0.90091771,2.21302123

>  <Name>


>  <RI>
0

>  <Rbt.Current_Directory>
/home/itssahil/PROJECTS/Mol_Feturizer/New_Systems/rnas/1qd3

>  <Rbt.Executable>
rbdock ($Id: //depot/dev/client3/rdock/2013.1/src/exe/rbdock.cxx#4 $)

>  <Rbt.Library>
libRbt.so (2013.1, Build901 2013/11/27)

>  <Rbt.Parameter_File>
/export/apps/rDock/src/rDock_2013.1_src/data/scripts/dock_solv.prm

>  <Rbt.Receptor>
prm/pocket_docking_7.prm

>  <SCORE>
-42.0115

>  <SCORE.INTER>
-23.5794

>  <SCORE.INTER.CONST>
1

>  <SCORE.INTER.POLAR>
-6.387

>  <SCORE.INTER.ROT>
9

>  <SCORE.INTER.SOLV>
19.1985

>  <SCORE.INTER.VDW>
-10.4291

>  <SCORE.INTER.norm>
-0.561415

>  <SCORE.INTRA>
-18.4321

>  <SCORE.INTRA.DIHEDRAL>
-18.625

>  <SCORE.INTRA.DIHEDRAL.0>
40.6252

>  <SCORE.INTRA.POLAR>
0.83469

>  <SCORE.INTRA.POLAR.0>
-1.20161

>  <SCORE.INTRA.REPUL>
-0.115675

>  <SCORE.INTRA.REPUL.0>
0.115675

>  <SCORE.INTRA.SOLV>
-12.611

>  <SCORE.INTRA.SOLV.lig_0>
-154.895

>  <SCORE.INTRA.VDW>
-5.07363

>  <SCORE.INTRA.VDW.0>
2.2925

>  <SCORE.INTRA.norm>
-0.438859

>  <SCORE.RESTR>
0

>  <SCORE.RESTR.CAVITY>
0

>  <SCORE.RESTR.norm>
0

>  <SCORE.SYSTEM>
0

>  <SCORE.SYSTEM.CONST>
0

>  <SCORE.SYSTEM.DIHEDRAL>
0

>  <SCORE.SYSTEM.SOLV>
0

>  <SCORE.SYSTEM.norm>
0

>  <SCORE.heavy>
42

>  <SCORE.norm>
-1.00027

>  <RMSD>
9.442

$$$$

 OpenBabel11021811413D
libRbt.so/2013.1/901 2013/11/27
 42 45  0  0  0  0  0  0  0  0999 V2000
   12.5486   -2.1918   -3.5886 O   0  0  0  0  0  0  0  0  0  0  0  0
   11.7099   -1.2513   -4.2442 C   0  0  0  0  0  0  0  0  0  0  0  0
   10.2503   -1.5086   -3.8676 C   0  0  1  0  0  0  0  0  0  0  0  0
    9.8666   -2.8712   -4.1537 O   0  0  0  0  0  0  0  0  0  0  0  0
    9.9625   -1.3000   -2.3901 C   0  0  2  0  0  0  0  0  0  0  0  0
    8.6674   -2.0817   -2.2470 C   0  0  1  0  0  0  0  0  0  0  0  0
    7.5859   -1.3211   -2.7740 O   0  0  0  0  0  0  0  0  0  0  0  0
    8.9274   -3.3116   -3.1404 C   0  0  2  0  0  0  0  0  0  0  0  0
   12.8857    1.8484   -1.2013 C   0  0  2  0  0  0  0  0  0  0  0  0
   11.7875    1.3820   -2.0001 O   0  0  0  0  0  0  0  0  0  0  0  0
   10.8583    0.5974   -1.2309 C   0  0  2  0  0  0  0  0  0  0  0  0
    9.8001    0.0967   -2.0742 O   0  0  0  0  0  0  0  0  0  0  0  0
   10.2731    1.4274   -0.0755 C   0  0  2  0  0  0  0  0  0  0  0  0
    9.2679    2.3532   -0.5643 N   0  3  0  0  0  0  0  0  0  0  0  0
   11.3439    2.1731    0.7297 C   0  0  1  0  0  0  0  0  0  0  0  0
   11.9936    1.2642    1.6041 O   0  0  0  0  0  0  0  0  0  0  0  0
   12.3783    2.8463   -0.1682 C   0  0  2  0  0  0  0  0  0  0  0  0
   11.7986    3.9717   -0.8178 O   0  0  0  0  0  0  0  0  0  0  0  0
   13.9619    2.4774   -2.0815 C   0  0  0  0  0  0  0  0  0  0  0  0
   15.1416    2.7873   -1.2959 N   0  3  0  0  0  0  0  0  0  0  0  0
    6.9125   -7.5776   -4.4662 C   0  0  1  0  0  0  0  0  0  0  0  0
    7.7617   -6.4142   -4.3807 O   0  0  0  0  0  0  0  0  0  0  0  0
    7.0705   -5.2338   -3.9111 C   0  0  2  0  0  0  0  0  0  0  0  0
    6.6270   -5.3737   -2.5387 O   0  0  0  0  0  0  0  0  0  0  0  0
    5.8988   -4.8889   -4.8383 C   0  0  2  0  0  0  0  0  0  0  0  0
    5.0914   -3.8384   -4.2465 N   0  3  0  0  0  0  0  0  0  0  0  0
    5.0186   -6.1032   -5.1124 C   0  0  1  0  0  0  0  0  0  0  0  0
    4.0974   -5.8017   -6.1490 O   0  0  0  0  0  0  0  0  0  0  0  0
    5.8108   -7.3463   -5.4874 C   0  0  2  0  0  0  0  0  0  0  0  0
    4.9551   -8.4782   -5.5445 O   0  0  0  0  0  0  0  0  0  0  0  0
    7.7249   -8.7845   -4.9268 C   0  0  0  0  0  0  0  0  0  0  0  0
    8.3975   -8.5028   -6.1818 N   0  3  0  0  0  0  0  0  0  0  0  0
    8.7394   -5.8254    1.1265 C   0  0  2  0  0  0  0  0  0  0  0  0
    7.9659   -7.0177    0.5990 C   0  0  0  0  0  0  0  0  0  0  0  0
    6.9722   -6.5799   -0.4611 C   0  0  1  0  0  0  0  0  0  0  0  0
    7.6477   -5.9343   -1.6718 C   0  0  2  0  0  0  0  0  0  0  0  0
    8.6314   -4.8258   -1.2309 C   0  0  1  0  0  0  0  0  0  0  0  0
    9.4942   -5.1316    0.0006 C   0  0  1  0  0  0  0  0  0  0  0  0
    9.6767   -6.2693    2.1405 N   0  3  0  0  0  0  0  0  0  0  0  0
    6.1827   -7.7257   -0.8688 N   0  3  0  0  0  0  0  0  0  0  0  0
    9.4709   -4.3924   -2.3292 O   0  0  0  0  0  0  0  0  0  0  0  0
   10.0834   -3.9301    0.4866 O   0  0  0  0  0  0  0  0  0  0  0  0
  1  2  1  0  0  0  0
  3  2  1  1  0  0  0
  3  4  1  0  0  0  0
  3  5  1  0  0  0  0
  4  8  1  0  0  0  0
  5  6  1  0  0  0  0
  5 12  1  6  0  0  0
  6  7  1  6  0  0  0
  6  8  1  0  0  0  0
  8 41  1  1  0  0  0
  9 10  1  0  0  0  0
  9 17  1  0  0  0  0
  9 19  1  6  0  0  0
 10 11  1  0  0  0  0
 11 12  1  6  0  0  0
 11 13  1  0  0  0  0
 13 14  1  6  0  0  0
 13 15  1  0  0  0  0
 15 16  1  1  0  0  0
 15 17  1  0  0  0  0
 17 18  1  6  0  0  0
 19 20  1  0  0  0  0
 21 22  1  0  0  0  0
 21 29  1  0  0  0  0
 21 31  1  6  0  0  0
 22 23  1  0  0  0  0
 23 24  1  1  0  0  0
 23 25  1  0  0  0  0
 25 26  1  1  0  0  0
 25 27  1  0  0  0  0
 27 28  1  6  0  0  0
 27 29  1  0  0  0  0
 29 30  1  1  0  0  0
 31 32  1  0  0  0  0
 33 34  1  0  0  0  0
 33 38  1  0  0  0  0
 33 39  1  1  0  0  0
 34 35  1  0  0  0  0
 35 36  1  0  0  0  0
 35 40  1  6  0  0  0
 36 24  1  6  0  0  0
 36 37  1  0  0  0  0
 37 38  1  0  0  0  0
 37 41  1  6  0  0  0
 38 42  1  1  0  0  0
M  CHG  6  14   1  20   1  26   1  32   1  39   1  40   1
M  END
>  <CHROM.1>
-62.03889547,-55.26378949,-113.06350385,56.28618982,175.76311218,-172.52661667
103.68164899,-33.99309725,60.57364602,-175.80632798,163.84370170,-55.38071703
45.15430606,-156.53901704,129.05418870,-178.30659855,-170.32588459,-170.28167890
48.54230681,-171.66149960,88.55089785,69.54146182,9.08226745,-3.04822778
-2.28720265,0.22623798,-1.01077516,-0.97371029

>  <Name>


>  <RI>
0

>  <Rbt.Current_Directory>
/home/itssahil/PROJECTS/Mol_Feturizer/New_Systems/rnas/1qd3

>  <Rbt.Executable>
rbdock ($Id: //depot/dev/client3/rdock/2013.1/src/exe/rbdock.cxx#4 $)

>  <Rbt.Library>
libRbt.so (2013.1, Build901 2013/11/27)

>  <Rbt.Parameter_File>
/export/apps/rDock/src/rDock_2013.1_src/data/scripts/dock_solv.prm

>  <Rbt.Receptor>
prm/pocket_docking_5.prm

>  <SCORE>
-46.8949

>  <SCORE.INTER>
-31.7912

>  <SCORE.INTER.CONST>
1

>  <SCORE.INTER.POLAR>
-5.47514

>  <SCORE.INTER.ROT>
9

>  <SCORE.INTER.SOLV>
31.2114

>  <SCORE.INTER.VDW>
-22.9475

>  <SCORE.INTER.norm>
-0.756933

>  <SCORE.INTRA>
-16.2662

>  <SCORE.INTRA.DIHEDRAL>
-13.594

>  <SCORE.INTRA.DIHEDRAL.0>
40.6252

>  <SCORE.INTRA.POLAR>
1.19993

>  <SCORE.INTRA.POLAR.0>
-1.20161

>  <SCORE.INTRA.REPUL>
-0.115675

>  <SCORE.INTRA.REPUL.0>
0.115675

>  <SCORE.INTRA.SOLV>
-10.9117

>  <SCORE.INTRA.SOLV.lig_0>
-154.895

>  <SCORE.INTRA.VDW>
-7.51474

>  <SCORE.INTRA.VDW.0>
2.2925

>  <SCORE.INTRA.norm>
-0.387291

>  <SCORE.RESTR>
1.16253

>  <SCORE.RESTR.CAVITY>
1.16253

>  <SCORE.RESTR.norm>
0.0276792

>  <SCORE.SYSTEM>
0

>  <SCORE.SYSTEM.CONST>
0

>  <SCORE.SYSTEM.DIHEDRAL>
0

>  <SCORE.SYSTEM.SOLV>
0

>  <SCORE.SYSTEM.norm>
0

>  <SCORE.heavy>
42

>  <SCORE.norm>
-1.11655

>  <RMSD>
9.447

$$$$

 OpenBabel11021811413D
libRbt.so/2013.1/901 2013/11/27
 42 45  0  0  0  0  0  0  0  0999 V2000
    8.6331   -1.3363   -2.8179 O   0  0  0  0  0  0  0  0  0  0  0  0
    9.8124   -2.1254   -2.8825 C   0  0  0  0  0  0  0  0  0  0  0  0
    9.9333   -2.9798   -1.6201 C   0  0  1  0  0  0  0  0  0  0  0  0
    8.8390   -3.9162   -1.5130 O   0  0  0  0  0  0  0  0  0  0  0  0
   11.2000   -3.8183   -1.5780 C   0  0  2  0  0  0  0  0  0  0  0  0
   10.8058   -4.8645   -0.5489 C   0  0  1  0  0  0  0  0  0  0  0  0
   10.8872   -4.3076    0.7584 O   0  0  0  0  0  0  0  0  0  0  0  0
    9.3319   -5.1396   -0.9104 C   0  0  2  0  0  0  0  0  0  0  0  0
   15.8990   -3.2682   -1.9473 C   0  0  2  0  0  0  0  0  0  0  0  0
   14.6476   -2.6878   -1.5491 O   0  0  0  0  0  0  0  0  0  0  0  0
   13.5911   -3.6640   -1.5078 C   0  0  2  0  0  0  0  0  0  0  0  0
   12.3380   -3.0383   -1.1616 O   0  0  0  0  0  0  0  0  0  0  0  0
   13.9245   -4.7825   -0.5056 C   0  0  2  0  0  0  0  0  0  0  0  0
   13.7191   -4.3299    0.8580 N   0  3  0  0  0  0  0  0  0  0  0  0
   15.3422   -5.3400   -0.6788 C   0  0  1  0  0  0  0  0  0  0  0  0
   15.3699   -6.2184   -1.7926 O   0  0  0  0  0  0  0  0  0  0  0  0
   16.3781   -4.2360   -0.8728 C   0  0  2  0  0  0  0  0  0  0  0  0
   16.5852   -3.5437    0.3528 O   0  0  0  0  0  0  0  0  0  0  0  0
   16.9392   -2.1811   -2.2023 C   0  0  0  0  0  0  0  0  0  0  0  0
   16.5820   -1.4028   -3.3734 N   0  3  0  0  0  0  0  0  0  0  0  0
    6.0808   -7.0896   -5.9705 C   0  0  1  0  0  0  0  0  0  0  0  0
    7.3793   -6.8201   -5.4019 O   0  0  0  0  0  0  0  0  0  0  0  0
    7.3249   -6.4229   -4.0124 C   0  0  2  0  0  0  0  0  0  0  0  0
    6.8485   -7.4931   -3.1595 O   0  0  0  0  0  0  0  0  0  0  0  0
    6.4710   -5.1603   -3.8442 C   0  0  2  0  0  0  0  0  0  0  0  0
    6.2508   -4.8952   -2.4346 N   0  3  0  0  0  0  0  0  0  0  0  0
    5.1237   -5.2917   -4.5457 C   0  0  1  0  0  0  0  0  0  0  0  0
    4.4711   -4.0316   -4.5674 O   0  0  0  0  0  0  0  0  0  0  0  0
    5.2359   -5.8262   -5.9653 C   0  0  2  0  0  0  0  0  0  0  0  0
    3.9463   -6.1015   -6.4923 O   0  0  0  0  0  0  0  0  0  0  0  0
    6.2292   -7.5416   -7.4204 C   0  0  0  0  0  0  0  0  0  0  0  0
    6.8363   -6.4971   -8.2249 N   0  3  0  0  0  0  0  0  0  0  0  0
    8.7470   -9.5394    0.0512 C   0  0  2  0  0  0  0  0  0  0  0  0
    8.3922  -10.3350   -1.1895 C   0  0  0  0  0  0  0  0  0  0  0  0
    7.3884   -9.5768   -2.0382 C   0  0  1  0  0  0  0  0  0  0  0  0
    7.9269   -8.2318   -2.5279 C   0  0  2  0  0  0  0  0  0  0  0  0
    8.5127   -7.4105   -1.3561 C   0  0  1  0  0  0  0  0  0  0  0  0
    9.3415   -8.1893   -0.3261 C   0  0  1  0  0  0  0  0  0  0  0  0
    9.7019  -10.2874    0.8466 N   0  3  0  0  0  0  0  0  0  0  0  0
    6.9966  -10.4079   -3.1599 N   0  3  0  0  0  0  0  0  0  0  0  0
    9.2620   -6.2654   -1.8319 O   0  0  0  0  0  0  0  0  0  0  0  0
    9.5206   -7.3994    0.8449 O   0  0  0  0  0  0  0  0  0  0  0  0
  1  2  1  0  0  0  0
  3  2  1  6  0  0  0
  3  4  1  0  0  0  0
  3  5  1  0  0  0  0
  4  8  1  0  0  0  0
  5  6  1  0  0  0  0
  5 12  1  1  0  0  0
  6  7  1  1  0  0  0
  6  8  1  0  0  0  0
  8 41  1  6  0  0  0
  9 10  1  0  0  0  0
  9 17  1  0  0  0  0
  9 19  1  1  0  0  0
 10 11  1  0  0  0  0
 11 12  1  1  0  0  0
 11 13  1  0  0  0  0
 13 14  1  1  0  0  0
 13 15  1  0  0  0  0
 15 16  1  6  0  0  0
 15 17  1  0  0  0  0
 17 18  1  1  0  0  0
 19 20  1  0  0  0  0
 21 22  1  0  0  0  0
 21 29  1  0  0  0  0
 21 31  1  6  0  0  0
 22 23  1  0  0  0  0
 23 24  1  1  0  0  0
 23 25  1  0  0  0  0
 25 26  1  1  0  0  0
 25 27  1  0  0  0  0
 27 28  1  6  0  0  0
 27 29  1  0  0  0  0
 29 30  1  1  0  0  0
 31 32  1  0  0  0  0
 33 34  1  0  0  0  0
 33 38  1  0  0  0  0
 33 39  1  6  0  0  0
 34 35  1  0  0  0  0
 35 36  1  0  0  0  0
 35 40  1  6  0  0  0
 36 24  1  1  0  0  0
 36 37  1  0  0  0  0
 37 38  1  0  0  0  0
 37 41  1  6  0  0  0
 38 42  1  1  0  0  0
M  CHG  6  14   1  20   1  26   1  32   1  39   1  40   1
M  END
>  <CHROM.1>
-174.14177983,63.18878652,-161.74325395,174.82487860,-123.91155831,-67.84313033
158.39403516,-37.86291577,61.18292555,-177.43157291,58.72458577,-61.91803649
97.05284416,-161.72335637,166.28161572,77.77754280,76.03175395,179.28362581
51.78351569,-63.97181770,153.31457076,55.98031631,9.96979491,-5.54423712
-2.34074738,0.07001886,-0.50137068,-0.61798809

>  <Name>


>  <RI>
0

>  <Rbt.Current_Directory>
/home/itssahil/PROJECTS/Mol_Feturizer/New_Systems/rnas/1qd3

>  <Rbt.Executable>
rbdock ($Id: //depot/dev/client3/rdock/2013.1/src/exe/rbdock.cxx#4 $)

>  <Rbt.Library>
libRbt.so (2013.1, Build901 2013/11/27)

>  <Rbt.Parameter_File>
/export/apps/rDock/src/rDock_2013.1_src/data/scripts/dock_solv.prm

>  <Rbt.Receptor>
prm/pocket_docking_6.prm

>  <SCORE>
-45.7791

>  <SCORE.INTER>
-24.2861

>  <SCORE.INTER.CONST>
1

>  <SCORE.INTER.POLAR>
-6.02512

>  <SCORE.INTER.ROT>
9

>  <SCORE.INTER.SOLV>
17.4311

>  <SCORE.INTER.VDW>
-11.5174

>  <SCORE.INTER.norm>
-0.57824

>  <SCORE.INTRA>
-21.493

>  <SCORE.INTRA.DIHEDRAL>
-13.9643

>  <SCORE.INTRA.DIHEDRAL.0>
40.6252

>  <SCORE.INTRA.POLAR>
-0.56644

>  <SCORE.INTRA.POLAR.0>
-1.20161

>  <SCORE.INTRA.REPUL>
-0.115675

>  <SCORE.INTRA.REPUL.0>
0.115675

>  <SCORE.INTRA.SOLV>
-6.79675

>  <SCORE.INTRA.SOLV.lig_0>
-154.895

>  <SCORE.INTRA.VDW>
-8.6082

>  <SCORE.INTRA.VDW.0>
2.2925

>  <SCORE.INTRA.norm>
-0.511738

>  <SCORE.RESTR>
0

>  <SCORE.RESTR.CAVITY>
0

>  <SCORE.RESTR.norm>
0

>  <SCORE.SYSTEM>
0

>  <SCORE.SYSTEM.CONST>
0

>  <SCORE.SYSTEM.DIHEDRAL>
0

>  <SCORE.SYSTEM.SOLV>
0

>  <SCORE.SYSTEM.norm>
0

>  <SCORE.heavy>
42

>  <SCORE.norm>
-1.08998

>  <RMSD>
9.458

$$$$

 OpenBabel11021811413D
libRbt.so/2013.1/901 2013/11/27
 42 45  0  0  0  0  0  0  0  0999 V2000
   10.4915    1.0845   -1.6488 O   0  0  0  0  0  0  0  0  0  0  0  0
   10.0111    0.5784   -0.4116 C   0  0  0  0  0  0  0  0  0  0  0  0
    8.7808   -0.2971   -0.6531 C   0  0  1  0  0  0  0  0  0  0  0  0
    9.0621   -1.3470   -1.6040 O   0  0  0  0  0  0  0  0  0  0  0  0
    8.2831   -0.9974    0.6003 C   0  0  2  0  0  0  0  0  0  0  0  0
    7.4525   -2.1108   -0.0157 C   0  0  1  0  0  0  0  0  0  0  0  0
    6.2068   -1.5891   -0.4651 O   0  0  0  0  0  0  0  0  0  0  0  0
    8.3126   -2.5293   -1.2255 C   0  0  2  0  0  0  0  0  0  0  0  0
    8.9911    3.2079    1.7018 C   0  0  2  0  0  0  0  0  0  0  0  0
    8.1746    2.1424    1.1923 O   0  0  0  0  0  0  0  0  0  0  0  0
    8.2814    0.9526    1.9945 C   0  0  2  0  0  0  0  0  0  0  0  0
    7.4958   -0.1143    1.4233 O   0  0  0  0  0  0  0  0  0  0  0  0
    7.8341    1.2304    3.4399 C   0  0  2  0  0  0  0  0  0  0  0  0
    6.3871    1.3005    3.5266 N   0  3  0  0  0  0  0  0  0  0  0  0
    8.4695    2.4939    4.0319 C   0  0  1  0  0  0  0  0  0  0  0  0
    9.8070    2.2139    4.4136 O   0  0  0  0  0  0  0  0  0  0  0  0
    8.4521    3.6637    3.0518 C   0  0  2  0  0  0  0  0  0  0  0  0
    7.1253    4.1572    2.9082 O   0  0  0  0  0  0  0  0  0  0  0  0
    9.0361    4.3704    0.7142 C   0  0  0  0  0  0  0  0  0  0  0  0
    9.6909    5.5185    1.3127 N   0  3  0  0  0  0  0  0  0  0  0  0
    6.4258   -6.4771   -5.0504 C   0  0  1  0  0  0  0  0  0  0  0  0
    6.3943   -5.1993   -4.3810 O   0  0  0  0  0  0  0  0  0  0  0  0
    6.8395   -5.2616   -3.0065 C   0  0  2  0  0  0  0  0  0  0  0  0
    8.2421   -5.6106   -2.9048 O   0  0  0  0  0  0  0  0  0  0  0  0
    5.9683   -6.2322   -2.1998 C   0  0  2  0  0  0  0  0  0  0  0  0
    6.5496   -6.4459   -0.8874 N   0  3  0  0  0  0  0  0  0  0  0  0
    5.8166   -7.5752   -2.9053 C   0  0  1  0  0  0  0  0  0  0  0  0
    4.8235   -8.3495   -2.2508 O   0  0  0  0  0  0  0  0  0  0  0  0
    5.4630   -7.4426   -4.3787 C   0  0  2  0  0  0  0  0  0  0  0  0
    5.5215   -8.7101   -5.0163 O   0  0  0  0  0  0  0  0  0  0  0  0
    5.9837   -6.3173   -6.5022 C   0  0  0  0  0  0  0  0  0  0  0  0
    6.1779   -4.9508   -6.9512 N   0  3  0  0  0  0  0  0  0  0  0  0
   12.0171   -3.7105   -3.3934 C   0  0  2  0  0  0  0  0  0  0  0  0
   11.0920   -3.7750   -4.5927 C   0  0  0  0  0  0  0  0  0  0  0  0
   10.0035   -4.8084   -4.3693 C   0  0  1  0  0  0  0  0  0  0  0  0
    9.1222   -4.4851   -3.1619 C   0  0  2  0  0  0  0  0  0  0  0  0
    9.9829   -4.1926   -1.9111 C   0  0  1  0  0  0  0  0  0  0  0  0
   11.2425   -3.3454   -2.1343 C   0  0  1  0  0  0  0  0  0  0  0  0
   13.0501   -2.7211   -3.6344 N   0  3  0  0  0  0  0  0  0  0  0  0
    9.2009   -4.9150   -5.5721 N   0  3  0  0  0  0  0  0  0  0  0  0
    9.1885   -3.6272   -0.8396 O   0  0  0  0  0  0  0  0  0  0  0  0
   12.0969   -3.4438   -0.9996 O   0  0  0  0  0  0  0  0  0  0  0  0
  1  2  1  0  0  0  0
  3  2  1  1  0  0  0
  3  4  1  0  0  0  0
  3  5  1  0  0  0  0
  4  8  1  0  0  0  0
  5  6  1  0  0  0  0
  5 12  1  1  0  0  0
  6  7  1  6  0  0  0
  6  8  1  0  0  0  0
  8 41  1  1  0  0  0
  9 10  1  0  0  0  0
  9 17  1  0  0  0  0
  9 19  1  6  0  0  0
 10 11  1  0  0  0  0
 11 12  1  6  0  0  0
 11 13  1  0  0  0  0
 13 14  1  6  0  0  0
 13 15  1  0  0  0  0
 15 16  1  6  0  0  0
 15 17  1  0  0  0  0
 17 18  1  6  0  0  0
 19 20  1  0  0  0  0
 21 22  1  0  0  0  0
 21 29  1  0  0  0  0
 21 31  1  6  0  0  0
 22 23  1  0  0  0  0
 23 24  1  6  0  0  0
 23 25  1  0  0  0  0
 25 26  1  1  0  0  0
 25 27  1  0  0  0  0
 27 28  1  1  0  0  0
 27 29  1  0  0  0  0
 29 30  1  6  0  0  0
 31 32  1  0  0  0  0
 33 34  1  0  0  0  0
 33 38  1  0  0  0  0
 33 39  1  6  0  0  0
 34 35  1  0  0  0  0
 35 36  1  0  0  0  0
 35 40  1  6  0  0  0
 36 24  1  1  0  0  0
 36 37  1  0  0  0  0
 37 38  1  0  0  0  0
 37 41  1  1  0  0  0
 38 42  1  1  0  0  0
M  CHG  6  14   1  20   1  26   1  32   1  39   1  40   1
M  END
>  <CHROM.1>
72.47567754,54.95269603,-67.21551366,-68.90350606,-67.72678185,171.45096396
96.30741833,-153.64048508,-72.75036045,-58.58503039,-87.39921185,23.04540536
79.16992349,-119.34816849,77.46184359,59.94711714,-178.59562901,-178.02564021
43.61586652,117.45907823,-47.91205475,62.91129104,8.30940157,-2.20374411
-1.25507421,-1.41657486,-0.48073052,-2.44864904

>  <Name>


>  <RI>
0

>  <Rbt.Current_Directory>
/home/itssahil/PROJECTS/Mol_Feturizer/New_Systems/rnas/1qd3

>  <Rbt.Executable>
rbdock ($Id: //depot/dev/client3/rdock/2013.1/src/exe/rbdock.cxx#4 $)

>  <Rbt.Library>
libRbt.so (2013.1, Build901 2013/11/27)

>  <Rbt.Parameter_File>
/export/apps/rDock/src/rDock_2013.1_src/data/scripts/dock_solv.prm

>  <Rbt.Receptor>
prm/pocket_docking_2.prm

>  <SCORE>
-63.3399

>  <SCORE.INTER>
-55.1017

>  <SCORE.INTER.CONST>
1

>  <SCORE.INTER.POLAR>
-9.78325

>  <SCORE.INTER.ROT>
9

>  <SCORE.INTER.SOLV>
43.2031

>  <SCORE.INTER.VDW>
-28.1247

>  <SCORE.INTER.norm>
-1.31195

>  <SCORE.INTRA>
-13.807

>  <SCORE.INTRA.DIHEDRAL>
-12.4032

>  <SCORE.INTRA.DIHEDRAL.0>
40.6252

>  <SCORE.INTRA.POLAR>
0.817621

>  <SCORE.INTRA.POLAR.0>
-1.20161

>  <SCORE.INTRA.REPUL>
-0.115675

>  <SCORE.INTRA.REPUL.0>
0.115675

>  <SCORE.INTRA.SOLV>
-5.91223

>  <SCORE.INTRA.SOLV.lig_0>
-154.895

>  <SCORE.INTRA.VDW>
-6.85089

>  <SCORE.INTRA.VDW.0>
2.2925

>  <SCORE.INTRA.norm>
-0.328739

>  <SCORE.RESTR>
5.56879

>  <SCORE.RESTR.CAVITY>
5.56879

>  <SCORE.RESTR.norm>
0.13259

>  <SCORE.SYSTEM>
0

>  <SCORE.SYSTEM.CONST>
0

>  <SCORE.SYSTEM.DIHEDRAL>
0

>  <SCORE.SYSTEM.SOLV>
0

>  <SCORE.SYSTEM.norm>
0

>  <SCORE.heavy>
42

>  <SCORE.norm>
-1.50809

>  <RMSD>
9.462

$$$$

 OpenBabel11021811413D
libRbt.so/2013.1/901 2013/11/27
 42 45  0  0  0  0  0  0  0  0999 V2000
   15.5317   -3.3386   -3.5024 O   0  0  0  0  0  0  0  0  0  0  0  0
   14.2573   -3.2390   -2.8830 C   0  0  0  0  0  0  0  0  0  0  0  0
   13.1629   -3.2193   -3.9508 C   0  0  1  0  0  0  0  0  0  0  0  0
   13.2275   -4.3925   -4.7906 O   0  0  0  0  0  0  0  0  0  0  0  0
   11.7571   -3.2013   -3.3738 C   0  0  2  0  0  0  0  0  0  0  0  0
   10.9589   -3.6830   -4.5737 C   0  0  1  0  0  0  0  0  0  0  0  0
   10.8083   -2.6207   -5.5090 O   0  0  0  0  0  0  0  0  0  0  0  0
   11.8783   -4.7727   -5.1619 C   0  0  2  0  0  0  0  0  0  0  0  0
    8.3632   -2.1953   -0.9081 C   0  0  2  0  0  0  0  0  0  0  0  0
    9.7553   -2.2153   -1.2588 O   0  0  0  0  0  0  0  0  0  0  0  0
    9.9740   -1.7897   -2.6160 C   0  0  2  0  0  0  0  0  0  0  0  0
   11.3740   -1.8770   -2.9536 O   0  0  0  0  0  0  0  0  0  0  0  0
    9.4630   -0.3538   -2.8237 C   0  0  2  0  0  0  0  0  0  0  0  0
   10.3847    0.6089   -2.2493 N   0  3  0  0  0  0  0  0  0  0  0  0
    8.0478   -0.1357   -2.2756 C   0  0  1  0  0  0  0  0  0  0  0  0
    7.1029   -0.6891   -3.1776 O   0  0  0  0  0  0  0  0  0  0  0  0
    7.8604   -0.7573   -0.8943 C   0  0  2  0  0  0  0  0  0  0  0  0
    8.5695    0.0001    0.0794 O   0  0  0  0  0  0  0  0  0  0  0  0
    8.1401   -2.8619    0.4464 C   0  0  0  0  0  0  0  0  0  0  0  0
    8.3483   -4.2942    0.3465 N   0  3  0  0  0  0  0  0  0  0  0  0
    7.3008   -6.2902   -5.6103 C   0  0  1  0  0  0  0  0  0  0  0  0
    8.5208   -6.0786   -4.8694 O   0  0  0  0  0  0  0  0  0  0  0  0
    9.0760   -7.2959   -4.3204 C   0  0  2  0  0  0  0  0  0  0  0  0
    9.5175   -8.2075   -5.3566 O   0  0  0  0  0  0  0  0  0  0  0  0
    8.0709   -7.9724   -3.3803 C   0  0  2  0  0  0  0  0  0  0  0  0
    8.5524   -9.2888   -3.0047 N   0  3  0  0  0  0  0  0  0  0  0  0
    6.6960   -8.1071   -4.0254 C   0  0  1  0  0  0  0  0  0  0  0  0
    5.7486   -8.5152   -3.0508 O   0  0  0  0  0  0  0  0  0  0  0  0
    6.2165   -6.8254   -4.6893 C   0  0  2  0  0  0  0  0  0  0  0  0
    5.0274   -7.0667   -5.4271 O   0  0  0  0  0  0  0  0  0  0  0  0
    6.8055   -4.9682   -6.1895 C   0  0  0  0  0  0  0  0  0  0  0  0
    5.6901   -5.1881   -7.0919 N   0  3  0  0  0  0  0  0  0  0  0  0
   13.2339   -7.9855   -7.4154 C   0  0  2  0  0  0  0  0  0  0  0  0
   11.9723   -8.1509   -8.2395 C   0  0  0  0  0  0  0  0  0  0  0  0
   10.8216   -8.6105   -7.3634 C   0  0  1  0  0  0  0  0  0  0  0  0
   10.4860   -7.6090   -6.2574 C   0  0  2  0  0  0  0  0  0  0  0  0
   11.7556   -7.2047   -5.4730 C   0  0  1  0  0  0  0  0  0  0  0  0
   13.0225   -6.9652   -6.3049 C   0  0  1  0  0  0  0  0  0  0  0  0
   14.3182   -7.5518   -8.2758 N   0  3  0  0  0  0  0  0  0  0  0  0
    9.6619   -8.8550   -8.1987 N   0  3  0  0  0  0  0  0  0  0  0  0
   11.5075   -6.0683   -4.6093 O   0  0  0  0  0  0  0  0  0  0  0  0
   14.1620   -6.9413   -5.4516 O   0  0  0  0  0  0  0  0  0  0  0  0
  1  2  1  0  0  0  0
  3  2  1  1  0  0  0
  3  4  1  0  0  0  0
  3  5  1  0  0  0  0
  4  8  1  0  0  0  0
  5  6  1  0  0  0  0
  5 12  1  6  0  0  0
  6  7  1  6  0  0  0
  6  8  1  0  0  0  0
  8 41  1  1  0  0  0
  9 10  1  0  0  0  0
  9 17  1  0  0  0  0
  9 19  1  1  0  0  0
 10 11  1  0  0  0  0
 11 12  1  1  0  0  0
 11 13  1  0  0  0  0
 13 14  1  1  0  0  0
 13 15  1  0  0  0  0
 15 16  1  6  0  0  0
 15 17  1  0  0  0  0
 17 18  1  1  0  0  0
 19 20  1  0  0  0  0
 21 22  1  0  0  0  0
 21 29  1  0  0  0  0
 21 31  1  1  0  0  0
 22 23  1  0  0  0  0
 23 24  1  6  0  0  0
 23 25  1  0  0  0  0
 25 26  1  6  0  0  0
 25 27  1  0  0  0  0
 27 28  1  1  0  0  0
 27 29  1  0  0  0  0
 29 30  1  6  0  0  0
 31 32  1  0  0  0  0
 33 34  1  0  0  0  0
 33 38  1  0  0  0  0
 33 39  1  6  0  0  0
 34 35  1  0  0  0  0
 35 36  1  0  0  0  0
 35 40  1  6  0  0  0
 36 24  1  1  0  0  0
 36 37  1  0  0  0  0
 37 38  1  0  0  0  0
 37 41  1  6  0  0  0
 38 42  1  1  0  0  0
M  CHG  6  14   1  20   1  26   1  32   1  39   1  40   1
M  END
>  <CHROM.1>
174.98328470,57.28622257,170.13995760,-172.27603184,-92.68748599,-70.49730823
84.02787891,76.87911236,-47.69651686,51.78324744,-126.05366807,171.90933328
56.48777652,-176.35754969,-33.57867170,170.90384815,-163.58850561,158.45174808
-65.45530807,173.05966779,-96.29219695,170.04353789,9.92092527,-4.91912573
-4.20123275,-1.74416012,-0.24218266,-2.55273566

>  <Name>


>  <RI>
0

>  <Rbt.Current_Directory>
/home/itssahil/PROJECTS/Mol_Feturizer/New_Systems/rnas/1qd3

>  <Rbt.Executable>
rbdock ($Id: //depot/dev/client3/rdock/2013.1/src/exe/rbdock.cxx#4 $)

>  <Rbt.Library>
libRbt.so (2013.1, Build901 2013/11/27)

>  <Rbt.Parameter_File>
/export/apps/rDock/src/rDock_2013.1_src/data/scripts/dock_solv.prm

>  <Rbt.Receptor>
prm/pocket_docking_5.prm

>  <SCORE>
-54.21

>  <SCORE.INTER>
-31.6092

>  <SCORE.INTER.CONST>
1

>  <SCORE.INTER.POLAR>
-7.23185

>  <SCORE.INTER.ROT>
9

>  <SCORE.INTER.SOLV>
26.7526

>  <SCORE.INTER.VDW>
-15.4841

>  <SCORE.INTER.norm>
-0.7526

>  <SCORE.INTRA>
-22.6008

>  <SCORE.INTRA.DIHEDRAL>
-16.7235

>  <SCORE.INTRA.DIHEDRAL.0>
40.6252

>  <SCORE.INTRA.POLAR>
-0.362874

>  <SCORE.INTRA.POLAR.0>
-1.20161

>  <SCORE.INTRA.REPUL>
-0.115675

>  <SCORE.INTRA.REPUL.0>
0.115675

>  <SCORE.INTRA.SOLV>
-14.3356

>  <SCORE.INTRA.SOLV.lig_0>
-154.895

>  <SCORE.INTRA.VDW>
-5.25907

>  <SCORE.INTRA.VDW.0>
2.2925

>  <SCORE.INTRA.norm>
-0.538113

>  <SCORE.RESTR>
0

>  <SCORE.RESTR.CAVITY>
0

>  <SCORE.RESTR.norm>
0

>  <SCORE.SYSTEM>
0

>  <SCORE.SYSTEM.CONST>
0

>  <SCORE.SYSTEM.DIHEDRAL>
0

>  <SCORE.SYSTEM.SOLV>
0

>  <SCORE.SYSTEM.norm>
0

>  <SCORE.heavy>
42

>  <SCORE.norm>
-1.29071

>  <RMSD>
9.463

$$$$

 OpenBabel11021811413D
libRbt.so/2013.1/901 2013/11/27
 42 45  0  0  0  0  0  0  0  0999 V2000
   11.2304    1.3422   -1.8442 O   0  0  0  0  0  0  0  0  0  0  0  0
   10.6760    0.6805   -0.7162 C   0  0  0  0  0  0  0  0  0  0  0  0
    9.3439    0.0341   -1.0983 C   0  0  1  0  0  0  0  0  0  0  0  0
    9.5414   -1.0974   -1.9737 O   0  0  0  0  0  0  0  0  0  0  0  0
    8.5669   -0.4973    0.0947 C   0  0  2  0  0  0  0  0  0  0  0  0
    7.6270   -1.4699   -0.5977 C   0  0  1  0  0  0  0  0  0  0  0  0
    6.5699   -0.7528   -1.2255 O   0  0  0  0  0  0  0  0  0  0  0  0
    8.5402   -2.1011   -1.6683 C   0  0  2  0  0  0  0  0  0  0  0  0
    9.4663    3.7810    1.3947 C   0  0  2  0  0  0  0  0  0  0  0  0
    8.5523    2.8206    0.8436 O   0  0  0  0  0  0  0  0  0  0  0  0
    8.7550    1.5073    1.3957 C   0  0  2  0  0  0  0  0  0  0  0  0
    7.8616    0.5566    0.7795 O   0  0  0  0  0  0  0  0  0  0  0  0
    8.5505    1.5218    2.9203 C   0  0  2  0  0  0  0  0  0  0  0  0
    7.1379    1.5707    3.2498 N   0  3  0  0  0  0  0  0  0  0  0  0
    9.3039    2.6618    3.6156 C   0  0  1  0  0  0  0  0  0  0  0  0
   10.6775    2.3227    3.7214 O   0  0  0  0  0  0  0  0  0  0  0  0
    9.1607    3.9874    2.8727 C   0  0  2  0  0  0  0  0  0  0  0  0
    7.8409    4.4942    3.0339 O   0  0  0  0  0  0  0  0  0  0  0  0
    9.3833    5.1009    0.6332 C   0  0  0  0  0  0  0  0  0  0  0  0
   10.5067    5.9536    0.9736 N   0  3  0  0  0  0  0  0  0  0  0  0
    6.2009   -6.0194   -4.8965 C   0  0  1  0  0  0  0  0  0  0  0  0
    6.3947   -4.8403   -4.0876 O   0  0  0  0  0  0  0  0  0  0  0  0
    7.0732   -5.1077   -2.8387 C   0  0  2  0  0  0  0  0  0  0  0  0
    8.4381   -5.5484   -3.0453 O   0  0  0  0  0  0  0  0  0  0  0  0
    6.2852   -6.1229   -2.0021 C   0  0  2  0  0  0  0  0  0  0  0  0
    7.0736   -6.5400   -0.8574 N   0  3  0  0  0  0  0  0  0  0  0  0
    5.8999   -7.3510   -2.8194 C   0  0  1  0  0  0  0  0  0  0  0  0
    4.9809   -8.1449   -2.0850 O   0  0  0  0  0  0  0  0  0  0  0  0
    5.2991   -7.0064   -4.1735 C   0  0  2  0  0  0  0  0  0  0  0  0
    5.1383   -8.1809   -4.9553 O   0  0  0  0  0  0  0  0  0  0  0  0
    5.5194   -5.6456   -6.2097 C   0  0  0  0  0  0  0  0  0  0  0  0
    6.5030   -5.4132   -7.2514 N   0  3  0  0  0  0  0  0  0  0  0  0
   12.2506   -3.6787   -3.3070 C   0  0  2  0  0  0  0  0  0  0  0  0
   11.4757   -3.8981   -4.5913 C   0  0  0  0  0  0  0  0  0  0  0  0
   10.3648   -4.9092   -4.3757 C   0  0  1  0  0  0  0  0  0  0  0  0
    9.3464   -4.4523   -3.3302 C   0  0  2  0  0  0  0  0  0  0  0  0
   10.0519   -4.0012   -2.0304 C   0  0  1  0  0  0  0  0  0  0  0  0
   11.3320   -3.1729   -2.2029 C   0  0  1  0  0  0  0  0  0  0  0  0
   13.3083   -2.7141   -3.5412 N   0  3  0  0  0  0  0  0  0  0  0  0
    9.7117   -5.1693   -5.6438 N   0  3  0  0  0  0  0  0  0  0  0  0
    9.1368   -3.3195   -1.1379 O   0  0  0  0  0  0  0  0  0  0  0  0
   12.0439   -3.1239   -0.9709 O   0  0  0  0  0  0  0  0  0  0  0  0
  1  2  1  0  0  0  0
  3  2  1  1  0  0  0
  3  4  1  0  0  0  0
  3  5  1  0  0  0  0
  4  8  1  0  0  0  0
  5  6  1  0  0  0  0
  5 12  1  6  0  0  0
  6  7  1  6  0  0  0
  6  8  1  0  0  0  0
  8 41  1  1  0  0  0
  9 10  1  0  0  0  0
  9 17  1  0  0  0  0
  9 19  1  6  0  0  0
 10 11  1  0  0  0  0
 11 12  1  6  0  0  0
 11 13  1  0  0  0  0
 13 14  1  6  0  0  0
 13 15  1  0  0  0  0
 15 16  1  6  0  0  0
 15 17  1  0  0  0  0
 17 18  1  6  0  0  0
 19 20  1  0  0  0  0
 21 22  1  0  0  0  0
 21 29  1  0  0  0  0
 21 31  1  6  0  0  0
 22 23  1  0  0  0  0
 23 24  1  6  0  0  0
 23 25  1  0  0  0  0
 25 26  1  1  0  0  0
 25 27  1  0  0  0  0
 27 28  1  1  0  0  0
 27 29  1  0  0  0  0
 29 30  1  6  0  0  0
 31 32  1  0  0  0  0
 33 34  1  0  0  0  0
 33 38  1  0  0  0  0
 33 39  1  6  0  0  0
 34 35  1  0  0  0  0
 35 36  1  0  0  0  0
 35 40  1  6  0  0  0
 36 24  1  1  0  0  0
 36 37  1  0  0  0  0
 37 38  1  0  0  0  0
 37 41  1  1  0  0  0
 38 42  1  1  0  0  0
M  CHG  6  14   1  20   1  26   1  32   1  39   1  40   1
M  END
>  <CHROM.1>
-175.90514253,70.48475582,-65.82622835,-84.93004524,-61.52948362,-166.58881962
119.04274297,73.25311317,64.47110755,-176.23989987,-178.17916760,93.86758798
79.14514082,-142.27631736,83.21658238,-58.42081767,-174.13560463,-174.61984812
-62.65650518,-54.09660401,-61.12619749,177.38582585,8.64413505,-1.93389293
-1.42599128,-1.35937487,-0.42305410,-2.48162145

>  <Name>


>  <RI>
0

>  <Rbt.Current_Directory>
/home/itssahil/PROJECTS/Mol_Feturizer/New_Systems/rnas/1qd3

>  <Rbt.Executable>
rbdock ($Id: //depot/dev/client3/rdock/2013.1/src/exe/rbdock.cxx#4 $)

>  <Rbt.Library>
libRbt.so (2013.1, Build901 2013/11/27)

>  <Rbt.Parameter_File>
/export/apps/rDock/src/rDock_2013.1_src/data/scripts/dock_solv.prm

>  <Rbt.Receptor>
prm/pocket_docking_4.prm

>  <SCORE>
-64.3224

>  <SCORE.INTER>
-44.6384

>  <SCORE.INTER.CONST>
1

>  <SCORE.INTER.POLAR>
-6.98989

>  <SCORE.INTER.ROT>
9

>  <SCORE.INTER.SOLV>
32.5318

>  <SCORE.INTER.VDW>
-26.9033

>  <SCORE.INTER.norm>
-1.06282

>  <SCORE.INTRA>
-19.684

>  <SCORE.INTRA.DIHEDRAL>
-16.2347

>  <SCORE.INTRA.DIHEDRAL.0>
40.6252

>  <SCORE.INTRA.POLAR>
1.19712

>  <SCORE.INTRA.POLAR.0>
-1.20161

>  <SCORE.INTRA.REPUL>
-0.115675

>  <SCORE.INTRA.REPUL.0>
0.115675

>  <SCORE.INTRA.SOLV>
-11.9501

>  <SCORE.INTRA.SOLV.lig_0>
-154.895

>  <SCORE.INTRA.VDW>
-9.08341

>  <SCORE.INTRA.VDW.0>
2.2925

>  <SCORE.INTRA.norm>
-0.468666

>  <SCORE.RESTR>
0

>  <SCORE.RESTR.CAVITY>
0

>  <SCORE.RESTR.norm>
0

>  <SCORE.SYSTEM>
0

>  <SCORE.SYSTEM.CONST>
0

>  <SCORE.SYSTEM.DIHEDRAL>
0

>  <SCORE.SYSTEM.SOLV>
0

>  <SCORE.SYSTEM.norm>
0

>  <SCORE.heavy>
42

>  <SCORE.norm>
-1.53149

>  <RMSD>
9.469

$$$$

 OpenBabel11021811413D
libRbt.so/2013.1/901 2013/11/27
 42 45  0  0  0  0  0  0  0  0999 V2000
   10.2215    3.0597    0.0706 O   0  0  0  0  0  0  0  0  0  0  0  0
    9.8852    1.9216    0.8512 C   0  0  0  0  0  0  0  0  0  0  0  0
    8.8307    1.0875    0.1227 C   0  0  1  0  0  0  0  0  0  0  0  0
    9.4222    0.2986   -0.9325 O   0  0  0  0  0  0  0  0  0  0  0  0
    8.1142    0.0978    1.0263 C   0  0  2  0  0  0  0  0  0  0  0  0
    7.5564   -0.8670   -0.0066 C   0  0  1  0  0  0  0  0  0  0  0  0
    6.4116   -0.2953   -0.6298 O   0  0  0  0  0  0  0  0  0  0  0  0
    8.7130   -0.9631   -1.0223 C   0  0  2  0  0  0  0  0  0  0  0  0
    7.1862    3.5123    4.1726 C   0  0  2  0  0  0  0  0  0  0  0  0
    6.6652    2.6156    3.1797 O   0  0  0  0  0  0  0  0  0  0  0  0
    7.6097    1.5855    2.8370 C   0  0  2  0  0  0  0  0  0  0  0  0
    7.0784    0.7382    1.7971 O   0  0  0  0  0  0  0  0  0  0  0  0
    7.9725    0.7478    4.0753 C   0  0  2  0  0  0  0  0  0  0  0  0
    6.9034   -0.1777    4.4020 N   0  3  0  0  0  0  0  0  0  0  0  0
    8.3325    1.6048    5.2946 C   0  0  1  0  0  0  0  0  0  0  0  0
    9.6519    2.1049    5.1458 O   0  0  0  0  0  0  0  0  0  0  0  0
    7.3641    2.7683    5.4900 C   0  0  2  0  0  0  0  0  0  0  0  0
    6.1089    2.2830    5.9518 O   0  0  0  0  0  0  0  0  0  0  0  0
    6.2635    4.7151    4.3483 C   0  0  0  0  0  0  0  0  0  0  0  0
    5.4870    4.5842    5.5668 N   0  3  0  0  0  0  0  0  0  0  0  0
    7.0240   -5.2480   -3.6358 C   0  0  1  0  0  0  0  0  0  0  0  0
    7.2358   -4.2680   -2.5981 O   0  0  0  0  0  0  0  0  0  0  0  0
    8.3492   -4.5836   -1.7308 C   0  0  2  0  0  0  0  0  0  0  0  0
    9.6151   -4.5424   -2.4348 O   0  0  0  0  0  0  0  0  0  0  0  0
    8.1377   -5.9426   -1.0526 C   0  0  2  0  0  0  0  0  0  0  0  0
    9.3464   -6.3422   -0.3561 N   0  3  0  0  0  0  0  0  0  0  0  0
    7.7586   -7.0234   -2.0589 C   0  0  1  0  0  0  0  0  0  0  0  0
    7.3451   -8.1936   -1.3705 O   0  0  0  0  0  0  0  0  0  0  0  0
    6.6629   -6.5903   -3.0207 C   0  0  2  0  0  0  0  0  0  0  0  0
    6.4898   -7.5621   -4.0416 O   0  0  0  0  0  0  0  0  0  0  0  0
    5.8628   -4.8205   -4.5288 C   0  0  0  0  0  0  0  0  0  0  0  0
    4.6435   -4.6789   -3.7542 N   0  3  0  0  0  0  0  0  0  0  0  0
   12.3335   -1.3595   -3.1956 C   0  0  2  0  0  0  0  0  0  0  0  0
   11.5825   -1.9510   -4.3722 C   0  0  0  0  0  0  0  0  0  0  0  0
   10.9884   -3.2971   -4.0012 C   0  0  1  0  0  0  0  0  0  0  0  0
    9.9836   -3.2018   -2.8522 C   0  0  2  0  0  0  0  0  0  0  0  0
   10.5814   -2.4234   -1.6574 C   0  0  1  0  0  0  0  0  0  0  0  0
   11.4065   -1.1764   -2.0015 C   0  0  1  0  0  0  0  0  0  0  0  0
   12.8954   -0.0780   -3.5775 N   0  3  0  0  0  0  0  0  0  0  0  0
   10.3665   -3.8775   -5.1754 N   0  3  0  0  0  0  0  0  0  0  0  0
    9.5667   -2.0918   -0.6779 O   0  0  0  0  0  0  0  0  0  0  0  0
   12.1618   -0.7696   -0.8652 O   0  0  0  0  0  0  0  0  0  0  0  0
  1  2  1  0  0  0  0
  3  2  1  1  0  0  0
  3  4  1  0  0  0  0
  3  5  1  0  0  0  0
  4  8  1  0  0  0  0
  5  6  1  0  0  0  0
  5 12  1  6  0  0  0
  6  7  1  6  0  0  0
  6  8  1  0  0  0  0
  8 41  1  1  0  0  0
  9 10  1  0  0  0  0
  9 17  1  0  0  0  0
  9 19  1  1  0  0  0
 10 11  1  0  0  0  0
 11 12  1  6  0  0  0
 11 13  1  0  0  0  0
 13 14  1  1  0  0  0
 13 15  1  0  0  0  0
 15 16  1  6  0  0  0
 15 17  1  0  0  0  0
 17 18  1  6  0  0  0
 19 20  1  0  0  0  0
 21 22  1  0  0  0  0
 21 29  1  0  0  0  0
 21 31  1  6  0  0  0
 22 23  1  0  0  0  0
 23 24  1  6  0  0  0
 23 25  1  0  0  0  0
 25 26  1  6  0  0  0
 25 27  1  0  0  0  0
 27 28  1  1  0  0  0
 27 29  1  0  0  0  0
 29 30  1  6  0  0  0
 31 32  1  0  0  0  0
 33 34  1  0  0  0  0
 33 38  1  0  0  0  0
 33 39  1  6  0  0  0
 34 35  1  0  0  0  0
 35 36  1  0  0  0  0
 35 40  1  6  0  0  0
 36 24  1  1  0  0  0
 36 37  1  0  0  0  0
 37 38  1  0  0  0  0
 37 41  1  1  0  0  0
 38 42  1  1  0  0  0
M  CHG  6  14   1  20   1  26   1  32   1  39   1  40   1
M  END
>  <CHROM.1>
176.36369077,77.89409468,-71.84811566,61.95409310,-71.85862241,103.66580025
154.82147246,-27.41660258,-108.45481445,-177.99786368,-130.53233913,-59.35089445
67.72182403,-158.51665781,174.73718289,-65.83975666,-170.50197414,-102.98012847
-62.75164930,-160.39282100,-77.89725006,63.87011611,8.45772050,-1.39424432
-0.15163511,-1.69179218,-0.63614161,-2.45902947

>  <Name>


>  <RI>
0

>  <Rbt.Current_Directory>
/home/itssahil/PROJECTS/Mol_Feturizer/New_Systems/rnas/1qd3

>  <Rbt.Executable>
rbdock ($Id: //depot/dev/client3/rdock/2013.1/src/exe/rbdock.cxx#4 $)

>  <Rbt.Library>
libRbt.so (2013.1, Build901 2013/11/27)

>  <Rbt.Parameter_File>
/export/apps/rDock/src/rDock_2013.1_src/data/scripts/dock_solv.prm

>  <Rbt.Receptor>
prm/pocket_docking_2.prm

>  <SCORE>
-59.4558

>  <SCORE.INTER>
-59.6507

>  <SCORE.INTER.CONST>
1

>  <SCORE.INTER.POLAR>
-9.81878

>  <SCORE.INTER.ROT>
9

>  <SCORE.INTER.SOLV>
49.0154

>  <SCORE.INTER.VDW>
-32.9763

>  <SCORE.INTER.norm>
-1.42025

>  <SCORE.INTRA>
-10.7494

>  <SCORE.INTRA.DIHEDRAL>
-10.0659

>  <SCORE.INTRA.DIHEDRAL.0>
40.6252

>  <SCORE.INTRA.POLAR>
0.638433

>  <SCORE.INTRA.POLAR.0>
-1.20161

>  <SCORE.INTRA.REPUL>
-0.115675

>  <SCORE.INTRA.REPUL.0>
0.115675

>  <SCORE.INTRA.SOLV>
-7.9578

>  <SCORE.INTRA.SOLV.lig_0>
-154.895

>  <SCORE.INTRA.VDW>
-3.32986

>  <SCORE.INTRA.VDW.0>
2.2925

>  <SCORE.INTRA.norm>
-0.255938

>  <SCORE.RESTR>
10.9443

>  <SCORE.RESTR.CAVITY>
10.9443

>  <SCORE.RESTR.norm>
0.260578

>  <SCORE.SYSTEM>
0

>  <SCORE.SYSTEM.CONST>
0

>  <SCORE.SYSTEM.DIHEDRAL>
0

>  <SCORE.SYSTEM.SOLV>
0

>  <SCORE.SYSTEM.norm>
0

>  <SCORE.heavy>
42

>  <SCORE.norm>
-1.41561

>  <RMSD>
9.473

$$$$

 OpenBabel11021811413D
libRbt.so/2013.1/901 2013/11/27
 42 45  0  0  0  0  0  0  0  0999 V2000
    9.3275    0.1645   -1.8414 O   0  0  0  0  0  0  0  0  0  0  0  0
    7.9660    0.5372   -1.6835 C   0  0  0  0  0  0  0  0  0  0  0  0
    7.2456   -0.4915   -0.8109 C   0  0  1  0  0  0  0  0  0  0  0  0
    7.0532   -1.7364   -1.5171 O   0  0  0  0  0  0  0  0  0  0  0  0
    8.0072   -0.8480    0.4549 C   0  0  2  0  0  0  0  0  0  0  0  0
    7.3487   -2.1703    0.8113 C   0  0  1  0  0  0  0  0  0  0  0  0
    6.0757   -1.9300    1.4009 O   0  0  0  0  0  0  0  0  0  0  0  0
    7.1698   -2.8295   -0.5715 C   0  0  2  0  0  0  0  0  0  0  0  0
   10.5029    2.4915    0.6353 C   0  0  2  0  0  0  0  0  0  0  0  0
    9.2995    1.7213    0.4934 O   0  0  0  0  0  0  0  0  0  0  0  0
    9.0091    0.9550    1.6762 C   0  0  2  0  0  0  0  0  0  0  0  0
    7.8283    0.1496    1.4795 O   0  0  0  0  0  0  0  0  0  0  0  0
    8.8281    1.8803    2.8917 C   0  0  2  0  0  0  0  0  0  0  0  0
    7.5322    2.5326    2.8538 N   0  3  0  0  0  0  0  0  0  0  0  0
    9.9483    2.9184    3.0272 C   0  0  1  0  0  0  0  0  0  0  0  0
   11.1029    2.2974    3.5695 O   0  0  0  0  0  0  0  0  0  0  0  0
   10.2979    3.5696    1.6918 C   0  0  2  0  0  0  0  0  0  0  0  0
    9.2554    4.4528    1.2946 O   0  0  0  0  0  0  0  0  0  0  0  0
   10.9066    3.1095   -0.7004 C   0  0  0  0  0  0  0  0  0  0  0  0
   12.2176    3.7227   -0.5993 N   0  3  0  0  0  0  0  0  0  0  0  0
    8.4174   -5.4345   -5.0929 C   0  0  1  0  0  0  0  0  0  0  0  0
    8.2242   -4.4031   -4.1025 O   0  0  0  0  0  0  0  0  0  0  0  0
    6.9729   -4.5226   -3.3876 C   0  0  2  0  0  0  0  0  0  0  0  0
    6.9236   -5.7214   -2.5749 O   0  0  0  0  0  0  0  0  0  0  0  0
    5.7877   -4.4642   -4.3590 C   0  0  2  0  0  0  0  0  0  0  0  0
    4.5588   -4.7948   -3.6617 N   0  3  0  0  0  0  0  0  0  0  0  0
    5.9710   -5.4207   -5.5321 C   0  0  1  0  0  0  0  0  0  0  0  0
    4.9803   -5.1658   -6.5159 O   0  0  0  0  0  0  0  0  0  0  0  0
    7.3492   -5.3318   -6.1693 C   0  0  2  0  0  0  0  0  0  0  0  0
    7.5194   -6.3693   -7.1239 O   0  0  0  0  0  0  0  0  0  0  0  0
    9.7744   -5.2616   -5.7692 C   0  0  0  0  0  0  0  0  0  0  0  0
   10.8437   -5.2774   -4.7878 N   0  3  0  0  0  0  0  0  0  0  0  0
    9.2062   -7.0015    0.7793 C   0  0  2  0  0  0  0  0  0  0  0  0
    9.4009   -7.7317   -0.5349 C   0  0  0  0  0  0  0  0  0  0  0  0
    8.2555   -7.4322   -1.4842 C   0  0  1  0  0  0  0  0  0  0  0  0
    8.1484   -5.9460   -1.8285 C   0  0  2  0  0  0  0  0  0  0  0  0
    8.1514   -5.0796   -0.5479 C   0  0  1  0  0  0  0  0  0  0  0  0
    9.1337   -5.4972    0.5544 C   0  0  1  0  0  0  0  0  0  0  0  0
   10.3096   -7.3087    1.6693 N   0  3  0  0  0  0  0  0  0  0  0  0
    8.4217   -8.2235   -2.6877 N   0  3  0  0  0  0  0  0  0  0  0  0
    8.3213   -3.6744   -0.8571 O   0  0  0  0  0  0  0  0  0  0  0  0
    8.7952   -4.8452    1.7740 O   0  0  0  0  0  0  0  0  0  0  0  0
  1  2  1  0  0  0  0
  3  2  1  6  0  0  0
  3  4  1  0  0  0  0
  3  5  1  0  0  0  0
  4  8  1  0  0  0  0
  5  6  1  0  0  0  0
  5 12  1  1  0  0  0
  6  7  1  6  0  0  0
  6  8  1  0  0  0  0
  8 41  1  6  0  0  0
  9 10  1  0  0  0  0
  9 17  1  0  0  0  0
  9 19  1  6  0  0  0
 10 11  1  0  0  0  0
 11 12  1  6  0  0  0
 11 13  1  0  0  0  0
 13 14  1  6  0  0  0
 13 15  1  0  0  0  0
 15 16  1  6  0  0  0
 15 17  1  0  0  0  0
 17 18  1  6  0  0  0
 19 20  1  0  0  0  0
 21 22  1  0  0  0  0
 21 29  1  0  0  0  0
 21 31  1  6  0  0  0
 22 23  1  0  0  0  0
 23 24  1  6  0  0  0
 23 25  1  0  0  0  0
 25 26  1  1  0  0  0
 25 27  1  0  0  0  0
 27 28  1  6  0  0  0
 27 29  1  0  0  0  0
 29 30  1  6  0  0  0
 31 32  1  0  0  0  0
 33 34  1  0  0  0  0
 33 38  1  0  0  0  0
 33 39  1  1  0  0  0
 34 35  1  0  0  0  0
 35 36  1  0  0  0  0
 35 40  1  6  0  0  0
 36 24  1  1  0  0  0
 36 37  1  0  0  0  0
 37 38  1  0  0  0  0
 37 41  1  6  0  0  0
 38 42  1  1  0  0  0
M  CHG  6  14   1  20   1  26   1  32   1  39   1  40   1
M  END
>  <CHROM.1>
-75.52487327,-71.65333301,-107.08091785,-57.33395116,-146.74975658,-171.76790785
64.36859545,-173.65818165,-69.31210923,-173.70726100,176.53003583,56.97061572
44.60207700,-156.88987159,0.12884161,52.60287362,-62.31764083,71.80439670
-60.78660000,-42.57045525,113.02908764,-79.70663894,8.39959563,-2.46606696
-1.13599247,0.71966674,-1.31582699,-0.26964502

>  <Name>


>  <RI>
0

>  <Rbt.Current_Directory>
/home/itssahil/PROJECTS/Mol_Feturizer/New_Systems/rnas/1qd3

>  <Rbt.Executable>
rbdock ($Id: //depot/dev/client3/rdock/2013.1/src/exe/rbdock.cxx#4 $)

>  <Rbt.Library>
libRbt.so (2013.1, Build901 2013/11/27)

>  <Rbt.Parameter_File>
/export/apps/rDock/src/rDock_2013.1_src/data/scripts/dock_solv.prm

>  <Rbt.Receptor>
prm/pocket_docking_5.prm

>  <SCORE>
-66.5675

>  <SCORE.INTER>
-47.819

>  <SCORE.INTER.CONST>
1

>  <SCORE.INTER.POLAR>
-7.39888

>  <SCORE.INTER.ROT>
9

>  <SCORE.INTER.SOLV>
30.1719

>  <SCORE.INTER.VDW>
-26.8737

>  <SCORE.INTER.norm>
-1.13855

>  <SCORE.INTRA>
-18.7486

>  <SCORE.INTRA.DIHEDRAL>
-10.0382

>  <SCORE.INTRA.DIHEDRAL.0>
40.6252

>  <SCORE.INTRA.POLAR>
0.484964

>  <SCORE.INTRA.POLAR.0>
-1.20161

>  <SCORE.INTRA.REPUL>
-0.115675

>  <SCORE.INTRA.REPUL.0>
0.115675

>  <SCORE.INTRA.SOLV>
-12.7067

>  <SCORE.INTRA.SOLV.lig_0>
-154.895

>  <SCORE.INTRA.VDW>
-8.44665

>  <SCORE.INTRA.VDW.0>
2.2925

>  <SCORE.INTRA.norm>
-0.446394

>  <SCORE.RESTR>
0

>  <SCORE.RESTR.CAVITY>
0

>  <SCORE.RESTR.norm>
0

>  <SCORE.SYSTEM>
0

>  <SCORE.SYSTEM.CONST>
0

>  <SCORE.SYSTEM.DIHEDRAL>
0

>  <SCORE.SYSTEM.SOLV>
0

>  <SCORE.SYSTEM.norm>
0

>  <SCORE.heavy>
42

>  <SCORE.norm>
-1.58494

>  <RMSD>
9.473

$$$$

 OpenBabel11021811413D
libRbt.so/2013.1/901 2013/11/27
 42 45  0  0  0  0  0  0  0  0999 V2000
    8.2620    0.1565   -3.2360 O   0  0  0  0  0  0  0  0  0  0  0  0
    7.5326   -1.0492   -3.0573 C   0  0  0  0  0  0  0  0  0  0  0  0
    7.3051   -1.3005   -1.5662 C   0  0  1  0  0  0  0  0  0  0  0  0
    6.8482   -2.6490   -1.3247 O   0  0  0  0  0  0  0  0  0  0  0  0
    8.5614   -1.1335   -0.7276 C   0  0  2  0  0  0  0  0  0  0  0  0
    8.1656   -1.9037    0.5209 C   0  0  1  0  0  0  0  0  0  0  0  0
    7.2856   -1.1146    1.3140 O   0  0  0  0  0  0  0  0  0  0  0  0
    7.4031   -3.1089   -0.0663 C   0  0  2  0  0  0  0  0  0  0  0  0
   12.4206    0.4791   -1.1217 C   0  0  2  0  0  0  0  0  0  0  0  0
   11.0179    0.3010   -1.3713 O   0  0  0  0  0  0  0  0  0  0  0  0
   10.2312    0.4977   -0.1825 C   0  0  2  0  0  0  0  0  0  0  0  0
    8.8352    0.2547   -0.4542 O   0  0  0  0  0  0  0  0  0  0  0  0
   10.4282    1.9199    0.3698 C   0  0  2  0  0  0  0  0  0  0  0  0
    9.6887    2.8863   -0.4211 N   0  3  0  0  0  0  0  0  0  0  0  0
   11.9035    2.3249    0.4710 C   0  0  1  0  0  0  0  0  0  0  0  0
   12.4823    1.7138    1.6131 O   0  0  0  0  0  0  0  0  0  0  0  0
   12.6966    1.9363   -0.7738 C   0  0  2  0  0  0  0  0  0  0  0  0
   12.3340    2.7771   -1.8628 O   0  0  0  0  0  0  0  0  0  0  0  0
   13.2416    0.0447   -2.3326 C   0  0  0  0  0  0  0  0  0  0  0  0
   14.6335   -0.1326   -1.9636 N   0  3  0  0  0  0  0  0  0  0  0  0
    6.7568   -8.0274   -4.3962 C   0  0  1  0  0  0  0  0  0  0  0  0
    7.9350   -7.2759   -4.0366 O   0  0  0  0  0  0  0  0  0  0  0  0
    7.6361   -6.0109   -3.4026 C   0  0  2  0  0  0  0  0  0  0  0  0
    6.9966   -6.1864   -2.1143 O   0  0  0  0  0  0  0  0  0  0  0  0
    6.7856   -5.1308   -4.3267 C   0  0  2  0  0  0  0  0  0  0  0  0
    6.3181   -3.9618   -3.6052 N   0  3  0  0  0  0  0  0  0  0  0  0
    5.5857   -5.8896   -4.8827 C   0  0  1  0  0  0  0  0  0  0  0  0
    4.9676   -5.1234   -5.9050 O   0  0  0  0  0  0  0  0  0  0  0  0
    5.9447   -7.2630   -5.4288 C   0  0  2  0  0  0  0  0  0  0  0  0
    4.7677   -7.9874   -5.7551 O   0  0  0  0  0  0  0  0  0  0  0  0
    7.1582   -9.3619   -5.0180 C   0  0  0  0  0  0  0  0  0  0  0  0
    5.9926  -10.1993   -5.2347 N   0  3  0  0  0  0  0  0  0  0  0  0
    8.1039   -7.4220    1.8032 C   0  0  2  0  0  0  0  0  0  0  0  0
    8.4560   -8.3325    0.6434 C   0  0  0  0  0  0  0  0  0  0  0  0
    7.6557   -7.9561   -0.5898 C   0  0  1  0  0  0  0  0  0  0  0  0
    7.9360   -6.5287   -1.0617 C   0  0  2  0  0  0  0  0  0  0  0  0
    7.8070   -5.5242    0.1068 C   0  0  1  0  0  0  0  0  0  0  0  0
    8.3921   -5.9682    1.4540 C   0  0  1  0  0  0  0  0  0  0  0  0
    8.8769   -7.8058    2.9690 N   0  3  0  0  0  0  0  0  0  0  0  0
    7.9420   -8.9075   -1.6458 N   0  3  0  0  0  0  0  0  0  0  0  0
    8.3257   -4.2203   -0.2535 O   0  0  0  0  0  0  0  0  0  0  0  0
    7.9102   -5.1206    2.4915 O   0  0  0  0  0  0  0  0  0  0  0  0
  1  2  1  0  0  0  0
  3  2  1  6  0  0  0
  3  4  1  0  0  0  0
  3  5  1  0  0  0  0
  4  8  1  0  0  0  0
  5  6  1  0  0  0  0
  5 12  1  1  0  0  0
  6  7  1  1  0  0  0
  6  8  1  0  0  0  0
  8 41  1  6  0  0  0
  9 10  1  0  0  0  0
  9 17  1  0  0  0  0
  9 19  1  6  0  0  0
 10 11  1  0  0  0  0
 11 12  1  6  0  0  0
 11 13  1  0  0  0  0
 13 14  1  6  0  0  0
 13 15  1  0  0  0  0
 15 16  1  1  0  0  0
 15 17  1  0  0  0  0
 17 18  1  6  0  0  0
 19 20  1  0  0  0  0
 21 22  1  0  0  0  0
 21 29  1  0  0  0  0
 21 31  1  6  0  0  0
 22 23  1  0  0  0  0
 23 24  1  1  0  0  0
 23 25  1  0  0  0  0
 25 26  1  1  0  0  0
 25 27  1  0  0  0  0
 27 28  1  6  0  0  0
 27 29  1  0  0  0  0
 29 30  1  1  0  0  0
 31 32  1  0  0  0  0
 33 34  1  0  0  0  0
 33 38  1  0  0  0  0
 33 39  1  1  0  0  0
 34 35  1  0  0  0  0
 35 36  1  0  0  0  0
 35 40  1  6  0  0  0
 36 24  1  6  0  0  0
 36 37  1  0  0  0  0
 37 38  1  0  0  0  0
 37 41  1  6  0  0  0
 38 42  1  1  0  0  0
M  CHG  6  14   1  20   1  26   1  32   1  39   1  40   1
M  END
>  <CHROM.1>
171.56682124,-166.68761389,-155.47435486,-175.68681326,-104.12264090,-164.06399866
68.42997550,73.33921554,81.57054538,-172.44673639,-172.68866485,172.98522184
78.69686976,-113.11501085,151.78600845,-48.57636223,88.33138063,-57.93556084
62.12134250,141.41775610,125.53040025,52.46412130,8.55754316,-3.49056035
-1.54627687,0.38917473,-1.07454886,-0.84169683

>  <Name>


>  <RI>
0

>  <Rbt.Current_Directory>
/home/itssahil/PROJECTS/Mol_Feturizer/New_Systems/rnas/1qd3

>  <Rbt.Executable>
rbdock ($Id: //depot/dev/client3/rdock/2013.1/src/exe/rbdock.cxx#4 $)

>  <Rbt.Library>
libRbt.so (2013.1, Build901 2013/11/27)

>  <Rbt.Parameter_File>
/export/apps/rDock/src/rDock_2013.1_src/data/scripts/dock_solv.prm

>  <Rbt.Receptor>
prm/pocket_docking_6.prm

>  <SCORE>
-44.7335

>  <SCORE.INTER>
-31.017

>  <SCORE.INTER.CONST>
1

>  <SCORE.INTER.POLAR>
-6.18078

>  <SCORE.INTER.ROT>
9

>  <SCORE.INTER.SOLV>
26.2647

>  <SCORE.INTER.VDW>
-18.4303

>  <SCORE.INTER.norm>
-0.738499

>  <SCORE.INTRA>
-13.7165

>  <SCORE.INTRA.DIHEDRAL>
-0.873491

>  <SCORE.INTRA.DIHEDRAL.0>
40.6252

>  <SCORE.INTRA.POLAR>
-0.993416

>  <SCORE.INTRA.POLAR.0>
-1.20161

>  <SCORE.INTRA.REPUL>
0.0856997

>  <SCORE.INTRA.REPUL.0>
0.115675

>  <SCORE.INTRA.SOLV>
-2.76817

>  <SCORE.INTRA.SOLV.lig_0>
-154.895

>  <SCORE.INTRA.VDW>
-8.94656

>  <SCORE.INTRA.VDW.0>
2.2925

>  <SCORE.INTRA.norm>
-0.326583

>  <SCORE.RESTR>
0

>  <SCORE.RESTR.CAVITY>
0

>  <SCORE.RESTR.norm>
0

>  <SCORE.SYSTEM>
0

>  <SCORE.SYSTEM.CONST>
0

>  <SCORE.SYSTEM.DIHEDRAL>
0

>  <SCORE.SYSTEM.SOLV>
0

>  <SCORE.SYSTEM.norm>
0

>  <SCORE.heavy>
42

>  <SCORE.norm>
-1.06508

>  <RMSD>
9.476

$$$$

 OpenBabel11021811413D
libRbt.so/2013.1/901 2013/11/27
 42 45  0  0  0  0  0  0  0  0999 V2000
    9.4559    0.1111   -1.4429 O   0  0  0  0  0  0  0  0  0  0  0  0
    8.0454    0.2176   -1.5732 C   0  0  0  0  0  0  0  0  0  0  0  0
    7.3619   -0.7622   -0.6186 C   0  0  1  0  0  0  0  0  0  0  0  0
    7.3895   -2.1088   -1.1399 O   0  0  0  0  0  0  0  0  0  0  0  0
    8.0236   -0.8345    0.7476 C   0  0  2  0  0  0  0  0  0  0  0  0
    7.4890   -2.1674    1.2442 C   0  0  1  0  0  0  0  0  0  0  0  0
    6.1423   -2.0136    1.6785 O   0  0  0  0  0  0  0  0  0  0  0  0
    7.5326   -3.0329   -0.0316 C   0  0  2  0  0  0  0  0  0  0  0  0
   10.1456    2.8638    1.0906 C   0  0  2  0  0  0  0  0  0  0  0  0
    9.0148    2.0219    0.8188 O   0  0  0  0  0  0  0  0  0  0  0  0
    8.7277    1.1365    1.9162 C   0  0  2  0  0  0  0  0  0  0  0  0
    7.6248    0.2661    1.5882 O   0  0  0  0  0  0  0  0  0  0  0  0
    8.4152    1.9369    3.1922 C   0  0  2  0  0  0  0  0  0  0  0  0
    7.0755    2.4923    3.1364 N   0  3  0  0  0  0  0  0  0  0  0  0
    9.4425    3.0394    3.4751 C   0  0  1  0  0  0  0  0  0  0  0  0
   10.6142    2.4608    4.0275 O   0  0  0  0  0  0  0  0  0  0  0  0
    9.8051    3.8280    2.2197 C   0  0  2  0  0  0  0  0  0  0  0  0
    8.7173    4.6628    1.8396 O   0  0  0  0  0  0  0  0  0  0  0  0
   10.5646    3.6235   -0.1648 C   0  0  0  0  0  0  0  0  0  0  0  0
   11.0939    2.7080   -1.1580 N   0  3  0  0  0  0  0  0  0  0  0  0
   11.1413   -5.0669   -3.6098 C   0  0  1  0  0  0  0  0  0  0  0  0
   10.2657   -4.3089   -2.7490 O   0  0  0  0  0  0  0  0  0  0  0  0
    8.9708   -4.9254   -2.5631 C   0  0  2  0  0  0  0  0  0  0  0  0
    9.0651   -6.1832   -1.8499 O   0  0  0  0  0  0  0  0  0  0  0  0
    8.2596   -5.1054   -3.9098 C   0  0  2  0  0  0  0  0  0  0  0  0
    7.0644   -5.9096   -3.7352 N   0  3  0  0  0  0  0  0  0  0  0  0
    9.1640   -5.7693   -4.9421 C   0  0  1  0  0  0  0  0  0  0  0  0
    8.5571   -5.7015   -6.2233 O   0  0  0  0  0  0  0  0  0  0  0  0
   10.5527   -5.1526   -5.0085 C   0  0  2  0  0  0  0  0  0  0  0  0
   11.3979   -5.9289   -5.8450 O   0  0  0  0  0  0  0  0  0  0  0  0
   12.4957   -4.3725   -3.7190 C   0  0  0  0  0  0  0  0  0  0  0  0
   13.4542   -5.2203   -4.4041 N   0  3  0  0  0  0  0  0  0  0  0  0
    9.1640   -6.6387    2.3788 C   0  0  2  0  0  0  0  0  0  0  0  0
   10.2164   -7.3602    1.5603 C   0  0  0  0  0  0  0  0  0  0  0  0
    9.8040   -7.4232    0.1012 C   0  0  1  0  0  0  0  0  0  0  0  0
    9.6443   -6.0379   -0.5267 C   0  0  2  0  0  0  0  0  0  0  0  0
    8.7430   -5.1349    0.3468 C   0  0  1  0  0  0  0  0  0  0  0  0
    8.9591   -5.2206    1.8635 C   0  0  1  0  0  0  0  0  0  0  0  0
    9.5789   -6.5973    3.7681 N   0  3  0  0  0  0  0  0  0  0  0  0
   10.7809   -8.2053   -0.6312 N   0  3  0  0  0  0  0  0  0  0  0  0
    8.7976   -3.7530   -0.0845 O   0  0  0  0  0  0  0  0  0  0  0  0
    7.8620   -4.6173    2.5414 O   0  0  0  0  0  0  0  0  0  0  0  0
  1  2  1  0  0  0  0
  3  2  1  6  0  0  0
  3  4  1  0  0  0  0
  3  5  1  0  0  0  0
  4  8  1  0  0  0  0
  5  6  1  0  0  0  0
  5 12  1  1  0  0  0
  6  7  1  6  0  0  0
  6  8  1  0  0  0  0
  8 41  1  6  0  0  0
  9 10  1  0  0  0  0
  9 17  1  0  0  0  0
  9 19  1  6  0  0  0
 10 11  1  0  0  0  0
 11 12  1  6  0  0  0
 11 13  1  0  0  0  0
 13 14  1  6  0  0  0
 13 15  1  0  0  0  0
 15 16  1  6  0  0  0
 15 17  1  0  0  0  0
 17 18  1  6  0  0  0
 19 20  1  0  0  0  0
 21 22  1  0  0  0  0
 21 29  1  0  0  0  0
 21 31  1  6  0  0  0
 22 23  1  0  0  0  0
 23 24  1  6  0  0  0
 23 25  1  0  0  0  0
 25 26  1  1  0  0  0
 25 27  1  0  0  0  0
 27 28  1  6  0  0  0
 27 29  1  0  0  0  0
 29 30  1  6  0  0  0
 31 32  1  0  0  0  0
 33 34  1  0  0  0  0
 33 38  1  0  0  0  0
 33 39  1  1  0  0  0
 34 35  1  0  0  0  0
 35 36  1  0  0  0  0
 35 40  1  6  0  0  0
 36 24  1  6  0  0  0
 36 37  1  0  0  0  0
 37 38  1  0  0  0  0
 37 41  1  6  0  0  0
 38 42  1  1  0  0  0
M  CHG  6  14   1  20   1  26   1  32   1  39   1  40   1
M  END
>  <CHROM.1>
65.77861399,-78.22683030,-115.36556324,62.09979448,-143.27550522,-67.51530422
79.08987187,-56.92367503,-162.84519456,-170.11499652,146.68445656,170.99349303
59.92931686,-175.58873106,72.28312273,62.06989863,-174.29535083,-55.91951423
-119.82043088,73.90925848,141.55608260,53.68814293,9.21020017,-2.47190277
-0.41037415,-1.95922451,-1.30096675,-3.01383501

>  <Name>


>  <RI>
0

>  <Rbt.Current_Directory>
/home/itssahil/PROJECTS/Mol_Feturizer/New_Systems/rnas/1qd3

>  <Rbt.Executable>
rbdock ($Id: //depot/dev/client3/rdock/2013.1/src/exe/rbdock.cxx#4 $)

>  <Rbt.Library>
libRbt.so (2013.1, Build901 2013/11/27)

>  <Rbt.Parameter_File>
/export/apps/rDock/src/rDock_2013.1_src/data/scripts/dock_solv.prm

>  <Rbt.Receptor>
prm/pocket_docking_5.prm

>  <SCORE>
-57.7246

>  <SCORE.INTER>
-36.3942

>  <SCORE.INTER.CONST>
1

>  <SCORE.INTER.POLAR>
-5.87019

>  <SCORE.INTER.ROT>
9

>  <SCORE.INTER.SOLV>
29.201

>  <SCORE.INTER.VDW>
-24.0292

>  <SCORE.INTER.norm>
-0.866529

>  <SCORE.INTRA>
-21.3304

>  <SCORE.INTRA.DIHEDRAL>
-11.6384

>  <SCORE.INTRA.DIHEDRAL.0>
40.6252

>  <SCORE.INTRA.POLAR>
-0.626609

>  <SCORE.INTRA.POLAR.0>
-1.20161

>  <SCORE.INTRA.REPUL>
-0.115675

>  <SCORE.INTRA.REPUL.0>
0.115675

>  <SCORE.INTRA.SOLV>
-9.44508

>  <SCORE.INTRA.SOLV.lig_0>
-154.895

>  <SCORE.INTRA.VDW>
-8.07984

>  <SCORE.INTRA.VDW.0>
2.2925

>  <SCORE.INTRA.norm>
-0.507867

>  <SCORE.RESTR>
0

>  <SCORE.RESTR.CAVITY>
0

>  <SCORE.RESTR.norm>
0

>  <SCORE.SYSTEM>
0

>  <SCORE.SYSTEM.CONST>
0

>  <SCORE.SYSTEM.DIHEDRAL>
0

>  <SCORE.SYSTEM.SOLV>
0

>  <SCORE.SYSTEM.norm>
0

>  <SCORE.heavy>
42

>  <SCORE.norm>
-1.3744

>  <RMSD>
9.477

$$$$

 OpenBabel11021811413D
libRbt.so/2013.1/901 2013/11/27
 42 45  0  0  0  0  0  0  0  0999 V2000
   11.2781    0.5297    0.1107 O   0  0  0  0  0  0  0  0  0  0  0  0
   10.1818    1.3223   -0.3223 C   0  0  0  0  0  0  0  0  0  0  0  0
    8.9946    0.4211   -0.6640 C   0  0  1  0  0  0  0  0  0  0  0  0
    9.3709   -0.6094   -1.6032 O   0  0  0  0  0  0  0  0  0  0  0  0
    8.4232   -0.3072    0.5413 C   0  0  2  0  0  0  0  0  0  0  0  0
    7.6679   -1.4318   -0.1469 C   0  0  1  0  0  0  0  0  0  0  0  0
    6.4463   -0.9340   -0.6814 O   0  0  0  0  0  0  0  0  0  0  0  0
    8.6249   -1.8140   -1.2944 C   0  0  2  0  0  0  0  0  0  0  0  0
    8.9682    3.6802    2.5525 C   0  0  2  0  0  0  0  0  0  0  0  0
    8.2016    2.7858    1.7316 O   0  0  0  0  0  0  0  0  0  0  0  0
    8.2884    1.4254    2.1925 C   0  0  2  0  0  0  0  0  0  0  0  0
    7.5560    0.5462    1.3137 O   0  0  0  0  0  0  0  0  0  0  0  0
    7.7584    1.3049    3.6316 C   0  0  2  0  0  0  0  0  0  0  0  0
    6.3077    1.3426    3.6508 N   0  3  0  0  0  0  0  0  0  0  0  0
    8.3359    2.3672    4.5743 C   0  0  1  0  0  0  0  0  0  0  0  0
    9.6561    2.0016    4.9434 O   0  0  0  0  0  0  0  0  0  0  0  0
    8.3483    3.7563    3.9419 C   0  0  2  0  0  0  0  0  0  0  0  0
    7.0217    4.2640    3.8593 O   0  0  0  0  0  0  0  0  0  0  0  0
    9.0435    5.0645    1.9146 C   0  0  0  0  0  0  0  0  0  0  0  0
    9.2473    4.9520    0.4825 N   0  3  0  0  0  0  0  0  0  0  0  0
    7.0234   -6.8635   -4.0602 C   0  0  1  0  0  0  0  0  0  0  0  0
    6.9020   -5.4520   -3.7865 O   0  0  0  0  0  0  0  0  0  0  0  0
    7.6349   -5.0310   -2.6131 C   0  0  2  0  0  0  0  0  0  0  0  0
    9.0665   -5.1733   -2.7864 O   0  0  0  0  0  0  0  0  0  0  0  0
    7.1501   -5.7901   -1.3719 C   0  0  2  0  0  0  0  0  0  0  0  0
    8.0281   -5.5163   -0.2494 N   0  3  0  0  0  0  0  0  0  0  0  0
    7.1000   -7.2946   -1.6135 C   0  0  1  0  0  0  0  0  0  0  0  0
    6.4296   -7.9297   -0.5358 O   0  0  0  0  0  0  0  0  0  0  0  0
    6.4208   -7.6701   -2.9215 C   0  0  2  0  0  0  0  0  0  0  0  0
    6.5730   -9.0589   -3.1757 O   0  0  0  0  0  0  0  0  0  0  0  0
    6.2589   -7.2164   -5.3329 C   0  0  0  0  0  0  0  0  0  0  0  0
    6.6958   -8.4977   -5.8565 N   0  3  0  0  0  0  0  0  0  0  0  0
   12.4193   -2.6027   -3.2867 C   0  0  2  0  0  0  0  0  0  0  0  0
   11.5898   -2.9372   -4.5107 C   0  0  0  0  0  0  0  0  0  0  0  0
   10.7131   -4.1469   -4.2443 C   0  0  1  0  0  0  0  0  0  0  0  0
    9.7227   -3.9173   -3.1018 C   0  0  2  0  0  0  0  0  0  0  0  0
   10.4420   -3.3692   -1.8477 C   0  0  1  0  0  0  0  0  0  0  0  0
   11.5225   -2.3074   -2.0920 C   0  0  1  0  0  0  0  0  0  0  0  0
   13.2510   -1.4484   -3.5690 N   0  3  0  0  0  0  0  0  0  0  0  0
   10.0119   -4.4984   -5.4638 N   0  3  0  0  0  0  0  0  0  0  0  0
    9.4967   -2.8957   -0.8571 O   0  0  0  0  0  0  0  0  0  0  0  0
   12.3179   -2.1510   -0.9216 O   0  0  0  0  0  0  0  0  0  0  0  0
  1  2  1  0  0  0  0
  3  2  1  1  0  0  0
  3  4  1  0  0  0  0
  3  5  1  0  0  0  0
  4  8  1  0  0  0  0
  5  6  1  0  0  0  0
  5 12  1  6  0  0  0
  6  7  1  6  0  0  0
  6  8  1  0  0  0  0
  8 41  1  1  0  0  0
  9 10  1  0  0  0  0
  9 17  1  0  0  0  0
  9 19  1  6  0  0  0
 10 11  1  0  0  0  0
 11 12  1  6  0  0  0
 11 13  1  0  0  0  0
 13 14  1  6  0  0  0
 13 15  1  0  0  0  0
 15 16  1  6  0  0  0
 15 17  1  0  0  0  0
 17 18  1  6  0  0  0
 19 20  1  0  0  0  0
 21 22  1  0  0  0  0
 21 29  1  0  0  0  0
 21 31  1  6  0  0  0
 22 23  1  0  0  0  0
 23 24  1  6  0  0  0
 23 25  1  0  0  0  0
 25 26  1  1  0  0  0
 25 27  1  0  0  0  0
 27 28  1  1  0  0  0
 27 29  1  0  0  0  0
 29 30  1  6  0  0  0
 31 32  1  0  0  0  0
 33 34  1  0  0  0  0
 33 38  1  0  0  0  0
 33 39  1  6  0  0  0
 34 35  1  0  0  0  0
 35 36  1  0  0  0  0
 35 40  1  6  0  0  0
 36 24  1  1  0  0  0
 36 37  1  0  0  0  0
 37 38  1  0  0  0  0
 37 41  1  1  0  0  0
 38 42  1  1  0  0  0
M  CHG  6  14   1  20   1  26   1  32   1  39   1  40   1
M  END
>  <CHROM.1>
53.91352094,-53.28165228,-80.62357034,-87.87467568,-63.86436866,-41.10938796
109.62246794,-140.37692205,163.68735634,-175.55758963,79.18186849,162.08004782
100.74322425,-135.13424814,128.43616360,-178.02728034,-179.19571815,-179.41208683
-60.84150349,70.20871642,-60.36689013,-65.57924984,8.71907118,-1.93686769
-0.79252317,-1.49809944,-0.63780482,-2.51625969

>  <Name>


>  <RI>
0

>  <Rbt.Current_Directory>
/home/itssahil/PROJECTS/Mol_Feturizer/New_Systems/rnas/1qd3

>  <Rbt.Executable>
rbdock ($Id: //depot/dev/client3/rdock/2013.1/src/exe/rbdock.cxx#4 $)

>  <Rbt.Library>
libRbt.so (2013.1, Build901 2013/11/27)

>  <Rbt.Parameter_File>
/export/apps/rDock/src/rDock_2013.1_src/data/scripts/dock_solv.prm

>  <Rbt.Receptor>
prm/pocket_docking_3.prm

>  <SCORE>
-47.3598

>  <SCORE.INTER>
-27.5743

>  <SCORE.INTER.CONST>
1

>  <SCORE.INTER.POLAR>
-6.52298

>  <SCORE.INTER.ROT>
9

>  <SCORE.INTER.SOLV>
33.9412

>  <SCORE.INTER.VDW>
-17.5533

>  <SCORE.INTER.norm>
-0.656531

>  <SCORE.INTRA>
-19.8338

>  <SCORE.INTRA.DIHEDRAL>
-4.76374

>  <SCORE.INTRA.DIHEDRAL.0>
40.6252

>  <SCORE.INTRA.POLAR>
-1.09588

>  <SCORE.INTRA.POLAR.0>
-1.20161

>  <SCORE.INTRA.REPUL>
-0.115675

>  <SCORE.INTRA.REPUL.0>
0.115675

>  <SCORE.INTRA.SOLV>
-8.51447

>  <SCORE.INTRA.SOLV.lig_0>
-154.895

>  <SCORE.INTRA.VDW>
-8.89032

>  <SCORE.INTRA.VDW.0>
2.2925

>  <SCORE.INTRA.norm>
-0.472234

>  <SCORE.RESTR>
0.0483232

>  <SCORE.RESTR.CAVITY>
0.0483232

>  <SCORE.RESTR.norm>
0.00115055

>  <SCORE.SYSTEM>
0

>  <SCORE.SYSTEM.CONST>
0

>  <SCORE.SYSTEM.DIHEDRAL>
0

>  <SCORE.SYSTEM.SOLV>
0

>  <SCORE.SYSTEM.norm>
0

>  <SCORE.heavy>
42

>  <SCORE.norm>
-1.12761

>  <RMSD>
9.478

$$$$

 OpenBabel11021811413D
libRbt.so/2013.1/901 2013/11/27
 42 45  0  0  0  0  0  0  0  0999 V2000
    4.8018  -12.2134   -1.8010 O   0  0  0  0  0  0  0  0  0  0  0  0
    5.0694  -10.9596   -1.1893 C   0  0  0  0  0  0  0  0  0  0  0  0
    6.1699  -10.2312   -1.9618 C   0  0  1  0  0  0  0  0  0  0  0  0
    5.7467   -9.9149   -3.3059 O   0  0  0  0  0  0  0  0  0  0  0  0
    6.5733   -8.9076   -1.3335 C   0  0  2  0  0  0  0  0  0  0  0  0
    7.2445   -8.2320   -2.5175 C   0  0  1  0  0  0  0  0  0  0  0  0
    8.5474   -8.7734   -2.7050 O   0  0  0  0  0  0  0  0  0  0  0  0
    6.3317   -8.6449   -3.6901 C   0  0  2  0  0  0  0  0  0  0  0  0
    7.6342  -11.7207    2.3153 C   0  0  2  0  0  0  0  0  0  0  0  0
    8.0832  -10.7030    1.4075 O   0  0  0  0  0  0  0  0  0  0  0  0
    6.9867  -10.0750    0.7190 C   0  0  2  0  0  0  0  0  0  0  0  0
    7.4750   -9.1001   -0.2258 O   0  0  0  0  0  0  0  0  0  0  0  0
    6.0245   -9.4131    1.7203 C   0  0  2  0  0  0  0  0  0  0  0  0
    6.5778   -8.1677    2.2197 N   0  3  0  0  0  0  0  0  0  0  0  0
    5.6418  -10.3356    2.8836 C   0  0  1  0  0  0  0  0  0  0  0  0
    4.6697  -11.2704    2.4432 O   0  0  0  0  0  0  0  0  0  0  0  0
    6.8468  -11.0806    3.4515 C   0  0  2  0  0  0  0  0  0  0  0  0
    7.6767  -10.1805    4.1764 O   0  0  0  0  0  0  0  0  0  0  0  0
    8.8171  -12.5188    2.8563 C   0  0  0  0  0  0  0  0  0  0  0  0
    9.9578  -11.6491    3.0740 N   0  3  0  0  0  0  0  0  0  0  0  0
    8.9951   -5.0722   -4.0291 C   0  0  1  0  0  0  0  0  0  0  0  0
    7.8491   -5.8184   -3.5689 O   0  0  0  0  0  0  0  0  0  0  0  0
    6.5873   -5.2118   -3.9314 C   0  0  2  0  0  0  0  0  0  0  0  0
    6.3779   -5.2087   -5.3652 O   0  0  0  0  0  0  0  0  0  0  0  0
    6.4834   -3.7947   -3.3545 C   0  0  2  0  0  0  0  0  0  0  0  0
    5.3165   -3.1235   -3.8963 N   0  3  0  0  0  0  0  0  0  0  0  0
    7.7259   -2.9667   -3.6626 C   0  0  1  0  0  0  0  0  0  0  0  0
    7.6920   -1.7587   -2.9184 O   0  0  0  0  0  0  0  0  0  0  0  0
    9.0249   -3.7023   -3.3712 C   0  0  2  0  0  0  0  0  0  0  0  0
   10.1333   -2.9560   -3.8520 O   0  0  0  0  0  0  0  0  0  0  0  0
   10.2805   -5.7989   -3.6440 C   0  0  0  0  0  0  0  0  0  0  0  0
   10.3523   -7.0952   -4.2928 N   0  3  0  0  0  0  0  0  0  0  0  0
    4.4545   -8.3151   -7.5448 C   0  0  2  0  0  0  0  0  0  0  0  0
    5.7654   -7.7751   -8.0816 C   0  0  0  0  0  0  0  0  0  0  0  0
    6.0950   -6.4416   -7.4365 C   0  0  1  0  0  0  0  0  0  0  0  0
    6.2602   -6.5452   -5.9197 C   0  0  2  0  0  0  0  0  0  0  0  0
    5.0571   -7.2767   -5.2806 C   0  0  1  0  0  0  0  0  0  0  0  0
    4.5266   -8.5028   -6.0354 C   0  0  1  0  0  0  0  0  0  0  0  0
    4.1602   -9.5852   -8.1805 N   0  3  0  0  0  0  0  0  0  0  0  0
    7.2982   -5.9084   -8.0450 N   0  3  0  0  0  0  0  0  0  0  0  0
    5.3175   -7.6203   -3.8975 O   0  0  0  0  0  0  0  0  0  0  0  0
    3.2425   -8.8589   -5.5340 O   0  0  0  0  0  0  0  0  0  0  0  0
  1  2  1  0  0  0  0
  3  2  1  1  0  0  0
  3  4  1  0  0  0  0
  3  5  1  0  0  0  0
  4  8  1  0  0  0  0
  5  6  1  0  0  0  0
  5 12  1  1  0  0  0
  6  7  1  6  0  0  0
  6  8  1  0  0  0  0
  8 41  1  1  0  0  0
  9 10  1  0  0  0  0
  9 17  1  0  0  0  0
  9 19  1  1  0  0  0
 10 11  1  0  0  0  0
 11 12  1  6  0  0  0
 11 13  1  0  0  0  0
 13 14  1  1  0  0  0
 13 15  1  0  0  0  0
 15 16  1  6  0  0  0
 15 17  1  0  0  0  0
 17 18  1  6  0  0  0
 19 20  1  0  0  0  0
 21 22  1  0  0  0  0
 21 29  1  0  0  0  0
 21 31  1  1  0  0  0
 22 23  1  0  0  0  0
 23 24  1  6  0  0  0
 23 25  1  0  0  0  0
 25 26  1  6  0  0  0
 25 27  1  0  0  0  0
 27 28  1  1  0  0  0
 27 29  1  0  0  0  0
 29 30  1  6  0  0  0
 31 32  1  0  0  0  0
 33 34  1  0  0  0  0
 33 38  1  0  0  0  0
 33 39  1  6  0  0  0
 34 35  1  0  0  0  0
 35 36  1  0  0  0  0
 35 40  1  6  0  0  0
 36 24  1  1  0  0  0
 36 37  1  0  0  0  0
 37 38  1  0  0  0  0
 37 41  1  1  0  0  0
 38 42  1  1  0  0  0
M  CHG  6  14   1  20   1  26   1  32   1  39   1  40   1
M  END
>  <CHROM.1>
67.89932022,63.89576347,-50.39933093,-55.79285658,-105.81807317,37.15132294
152.66859900,47.79135252,-62.85009668,-73.17776755,-73.66614050,62.82587626
64.70913840,-177.89874569,75.16702071,-69.06078786,-177.95523403,-169.46599575
173.17257531,-65.36241739,-68.56876277,-44.47393842,6.82561939,-7.93734536
-2.44492372,1.48113471,0.95022782,2.23206462

>  <Name>


>  <RI>
0

>  <Rbt.Current_Directory>
/home/itssahil/PROJECTS/Mol_Feturizer/New_Systems/rnas/1qd3

>  <Rbt.Executable>
rbdock ($Id: //depot/dev/client3/rdock/2013.1/src/exe/rbdock.cxx#4 $)

>  <Rbt.Library>
libRbt.so (2013.1, Build901 2013/11/27)

>  <Rbt.Parameter_File>
/export/apps/rDock/src/rDock_2013.1_src/data/scripts/dock_solv.prm

>  <Rbt.Receptor>
prm/pocket_docking_8.prm

>  <SCORE>
-43.6817

>  <SCORE.INTER>
-20.7333

>  <SCORE.INTER.CONST>
1

>  <SCORE.INTER.POLAR>
-4.56356

>  <SCORE.INTER.ROT>
9

>  <SCORE.INTER.SOLV>
25.6934

>  <SCORE.INTER.VDW>
-16.7748

>  <SCORE.INTER.norm>
-0.49365

>  <SCORE.INTRA>
-22.9484

>  <SCORE.INTRA.DIHEDRAL>
-22.3481

>  <SCORE.INTRA.DIHEDRAL.0>
40.6252

>  <SCORE.INTRA.POLAR>
-0.085742

>  <SCORE.INTRA.POLAR.0>
-1.20161

>  <SCORE.INTRA.REPUL>
-0.115675

>  <SCORE.INTRA.REPUL.0>
0.115675

>  <SCORE.INTRA.SOLV>
-9.77251

>  <SCORE.INTRA.SOLV.lig_0>
-154.895

>  <SCORE.INTRA.VDW>
-6.01824

>  <SCORE.INTRA.VDW.0>
2.2925

>  <SCORE.INTRA.norm>
-0.546391

>  <SCORE.RESTR>
0

>  <SCORE.RESTR.CAVITY>
0

>  <SCORE.RESTR.norm>
0

>  <SCORE.SYSTEM>
0

>  <SCORE.SYSTEM.CONST>
0

>  <SCORE.SYSTEM.DIHEDRAL>
0

>  <SCORE.SYSTEM.SOLV>
0

>  <SCORE.SYSTEM.norm>
0

>  <SCORE.heavy>
42

>  <SCORE.norm>
-1.04004

>  <RMSD>
9.489

$$$$

 OpenBabel11021811413D
libRbt.so/2013.1/901 2013/11/27
 42 45  0  0  0  0  0  0  0  0999 V2000
    9.6726   -4.1585   -4.8940 O   0  0  0  0  0  0  0  0  0  0  0  0
    9.2827   -5.3487   -4.2240 C   0  0  0  0  0  0  0  0  0  0  0  0
    8.2543   -5.0201   -3.1411 C   0  0  1  0  0  0  0  0  0  0  0  0
    7.8257   -6.2108   -2.4453 O   0  0  0  0  0  0  0  0  0  0  0  0
    8.7857   -4.0836   -2.0686 C   0  0  2  0  0  0  0  0  0  0  0  0
    7.7915   -4.3500   -0.9508 C   0  0  1  0  0  0  0  0  0  0  0  0
    6.5690   -3.6740   -1.2232 O   0  0  0  0  0  0  0  0  0  0  0  0
    7.5820   -5.8744   -1.0559 C   0  0  2  0  0  0  0  0  0  0  0  0
   11.9267   -1.4250   -1.2003 C   0  0  2  0  0  0  0  0  0  0  0  0
   11.0225   -2.2028   -1.9996 O   0  0  0  0  0  0  0  0  0  0  0  0
    9.6478   -1.8725   -1.7316 C   0  0  2  0  0  0  0  0  0  0  0  0
    8.7661   -2.7109   -2.5070 O   0  0  0  0  0  0  0  0  0  0  0  0
    9.3771   -0.3887   -2.0342 C   0  0  2  0  0  0  0  0  0  0  0  0
    9.2744   -0.1654   -3.4646 N   0  3  0  0  0  0  0  0  0  0  0  0
   10.4215    0.5494   -1.4178 C   0  0  1  0  0  0  0  0  0  0  0  0
   10.1590    0.7003   -0.0317 O   0  0  0  0  0  0  0  0  0  0  0  0
   11.8461    0.0385   -1.6154 C   0  0  2  0  0  0  0  0  0  0  0  0
   12.2290    0.1829   -2.9781 O   0  0  0  0  0  0  0  0  0  0  0  0
   13.3530   -1.9505   -1.3363 C   0  0  0  0  0  0  0  0  0  0  0  0
   13.7699   -1.9306   -2.7258 N   0  3  0  0  0  0  0  0  0  0  0  0
    5.8453   -8.8920   -1.5219 C   0  0  1  0  0  0  0  0  0  0  0  0
    6.7674   -9.9816   -1.7330 O   0  0  0  0  0  0  0  0  0  0  0  0
    7.7648   -9.7006   -2.7418 C   0  0  2  0  0  0  0  0  0  0  0  0
    8.6594   -8.6341   -2.3394 O   0  0  0  0  0  0  0  0  0  0  0  0
    7.0991   -9.3857   -4.0870 C   0  0  2  0  0  0  0  0  0  0  0  0
    8.0910   -8.9025   -5.0295 N   0  3  0  0  0  0  0  0  0  0  0  0
    5.9964   -8.3430   -3.9414 C   0  0  1  0  0  0  0  0  0  0  0  0
    5.2571   -8.2572   -5.1498 O   0  0  0  0  0  0  0  0  0  0  0  0
    5.0469   -8.6306   -2.7886 C   0  0  2  0  0  0  0  0  0  0  0  0
    4.1653   -7.5351   -2.5902 O   0  0  0  0  0  0  0  0  0  0  0  0
    4.8562   -9.2515   -0.4169 C   0  0  0  0  0  0  0  0  0  0  0  0
    4.3180  -10.5838   -0.6222 N   0  3  0  0  0  0  0  0  0  0  0  0
    8.4185   -9.8629    1.7265 C   0  0  2  0  0  0  0  0  0  0  0  0
    9.4491  -10.5337    0.8399 C   0  0  0  0  0  0  0  0  0  0  0  0
    9.1351  -10.2833   -0.6234 C   0  0  1  0  0  0  0  0  0  0  0  0
    9.1567   -8.7975   -0.9853 C   0  0  2  0  0  0  0  0  0  0  0  0
    8.2901   -7.9760   -0.0030 C   0  0  1  0  0  0  0  0  0  0  0  0
    8.3906   -8.3606    1.4790 C   0  0  1  0  0  0  0  0  0  0  0  0
    8.7378  -10.1219    3.1175 N   0  3  0  0  0  0  0  0  0  0  0  0
   10.0787  -11.0207   -1.4408 N   0  3  0  0  0  0  0  0  0  0  0  0
    8.5104   -6.5530   -0.1619 O   0  0  0  0  0  0  0  0  0  0  0  0
    7.3138   -7.7747    2.2031 O   0  0  0  0  0  0  0  0  0  0  0  0
  1  2  1  0  0  0  0
  3  2  1  6  0  0  0
  3  4  1  0  0  0  0
  3  5  1  0  0  0  0
  4  8  1  0  0  0  0
  5  6  1  0  0  0  0
  5 12  1  6  0  0  0
  6  7  1  6  0  0  0
  6  8  1  0  0  0  0
  8 41  1  1  0  0  0
  9 10  1  0  0  0  0
  9 17  1  0  0  0  0
  9 19  1  6  0  0  0
 10 11  1  0  0  0  0
 11 12  1  6  0  0  0
 11 13  1  0  0  0  0
 13 14  1  6  0  0  0
 13 15  1  0  0  0  0
 15 16  1  1  0  0  0
 15 17  1  0  0  0  0
 17 18  1  6  0  0  0
 19 20  1  0  0  0  0
 21 22  1  0  0  0  0
 21 29  1  0  0  0  0
 21 31  1  1  0  0  0
 22 23  1  0  0  0  0
 23 24  1  1  0  0  0
 23 25  1  0  0  0  0
 25 26  1  6  0  0  0
 25 27  1  0  0  0  0
 27 28  1  6  0  0  0
 27 29  1  0  0  0  0
 29 30  1  1  0  0  0
 31 32  1  0  0  0  0
 33 34  1  0  0  0  0
 33 38  1  0  0  0  0
 33 39  1  1  0  0  0
 34 35  1  0  0  0  0
 35 36  1  0  0  0  0
 35 40  1  6  0  0  0
 36 24  1  6  0  0  0
 36 37  1  0  0  0  0
 37 38  1  0  0  0  0
 37 41  1  1  0  0  0
 38 42  1  1  0  0  0
M  CHG  6  14   1  20   1  26   1  32   1  39   1  40   1
M  END
>  <CHROM.1>
-74.18390333,179.50557893,-160.59342141,-54.78305024,-72.17141517,57.75748234
69.10778898,-71.44335267,-63.88258638,-177.90779314,-70.35410391,-47.10855119
47.09982612,25.90104036,175.23470747,59.62755308,-89.53052933,164.91162756
-179.78448169,-58.41333562,93.94127203,167.92409821,8.54033047,-5.91757447
-1.69293134,0.87940483,-0.86277119,-0.67315465

>  <Name>


>  <RI>
0

>  <Rbt.Current_Directory>
/home/itssahil/PROJECTS/Mol_Feturizer/New_Systems/rnas/1qd3

>  <Rbt.Executable>
rbdock ($Id: //depot/dev/client3/rdock/2013.1/src/exe/rbdock.cxx#4 $)

>  <Rbt.Library>
libRbt.so (2013.1, Build901 2013/11/27)

>  <Rbt.Parameter_File>
/export/apps/rDock/src/rDock_2013.1_src/data/scripts/dock_solv.prm

>  <Rbt.Receptor>
prm/pocket_docking_6.prm

>  <SCORE>
-37.0324

>  <SCORE.INTER>
-20.6173

>  <SCORE.INTER.CONST>
1

>  <SCORE.INTER.POLAR>
-4.97622

>  <SCORE.INTER.ROT>
9

>  <SCORE.INTER.SOLV>
25.6531

>  <SCORE.INTER.VDW>
-15.3085

>  <SCORE.INTER.norm>
-0.490889

>  <SCORE.INTRA>
-16.4898

>  <SCORE.INTRA.DIHEDRAL>
-18.8095

>  <SCORE.INTRA.DIHEDRAL.0>
40.6252

>  <SCORE.INTRA.POLAR>
0.456454

>  <SCORE.INTRA.POLAR.0>
-1.20161

>  <SCORE.INTRA.REPUL>
0.266192

>  <SCORE.INTRA.REPUL.0>
0.115675

>  <SCORE.INTRA.SOLV>
-7.15124

>  <SCORE.INTRA.SOLV.lig_0>
-154.895

>  <SCORE.INTRA.VDW>
-6.39229

>  <SCORE.INTRA.VDW.0>
2.2925

>  <SCORE.INTRA.norm>
-0.392614

>  <SCORE.RESTR>
0.0747147

>  <SCORE.RESTR.CAVITY>
0.0747147

>  <SCORE.RESTR.norm>
0.00177892

>  <SCORE.SYSTEM>
0

>  <SCORE.SYSTEM.CONST>
0

>  <SCORE.SYSTEM.DIHEDRAL>
0

>  <SCORE.SYSTEM.SOLV>
0

>  <SCORE.SYSTEM.norm>
0

>  <SCORE.heavy>
42

>  <SCORE.norm>
-0.881723

>  <RMSD>
9.490

$$$$

 OpenBabel11021811413D
libRbt.so/2013.1/901 2013/11/27
 42 45  0  0  0  0  0  0  0  0999 V2000
    5.3148   -3.5574   -3.2080 O   0  0  0  0  0  0  0  0  0  0  0  0
    6.1596   -4.5003   -3.8520 C   0  0  0  0  0  0  0  0  0  0  0  0
    7.1705   -5.0589   -2.8497 C   0  0  1  0  0  0  0  0  0  0  0  0
    8.0287   -6.0449   -3.4637 O   0  0  0  0  0  0  0  0  0  0  0  0
    8.0999   -4.0015   -2.2772 C   0  0  2  0  0  0  0  0  0  0  0  0
    9.2331   -4.8757   -1.7668 C   0  0  1  0  0  0  0  0  0  0  0  0
    8.8501   -5.4936   -0.5432 O   0  0  0  0  0  0  0  0  0  0  0  0
    9.3507   -5.9398   -2.8770 C   0  0  2  0  0  0  0  0  0  0  0  0
   10.1743   -0.8025   -1.1722 C   0  0  2  0  0  0  0  0  0  0  0  0
    9.4729   -2.0215   -1.4610 O   0  0  0  0  0  0  0  0  0  0  0  0
    8.1213   -1.9938   -0.9677 C   0  0  2  0  0  0  0  0  0  0  0  0
    7.4644   -3.2528   -1.2224 O   0  0  0  0  0  0  0  0  0  0  0  0
    7.3324   -0.8401   -1.6104 C   0  0  2  0  0  0  0  0  0  0  0  0
    6.9534   -1.1711   -2.9717 N   0  3  0  0  0  0  0  0  0  0  0  0
    8.0846    0.4954   -1.5719 C   0  0  1  0  0  0  0  0  0  0  0  0
    7.9926    1.0503   -0.2694 O   0  0  0  0  0  0  0  0  0  0  0  0
    9.5528    0.3436   -1.9602 C   0  0  2  0  0  0  0  0  0  0  0  0
    9.6625    0.0939   -3.3567 O   0  0  0  0  0  0  0  0  0  0  0  0
   11.6580   -0.9452   -1.4997 C   0  0  0  0  0  0  0  0  0  0  0  0
   11.8441   -1.8376   -2.6284 N   0  3  0  0  0  0  0  0  0  0  0  0
    7.0219   -8.2574   -5.1958 C   0  0  1  0  0  0  0  0  0  0  0  0
    7.7178   -8.0292   -6.4390 O   0  0  0  0  0  0  0  0  0  0  0  0
    7.6095   -6.6678   -6.9147 C   0  0  2  0  0  0  0  0  0  0  0  0
    8.2725   -5.7294   -6.0318 O   0  0  0  0  0  0  0  0  0  0  0  0
    6.1398   -6.2844   -7.1258 C   0  0  2  0  0  0  0  0  0  0  0  0
    6.0327   -4.8630   -7.3972 N   0  3  0  0  0  0  0  0  0  0  0  0
    5.2859   -6.6283   -5.9105 C   0  0  1  0  0  0  0  0  0  0  0  0
    3.9121   -6.4790   -6.2338 O   0  0  0  0  0  0  0  0  0  0  0  0
    5.5302   -8.0340   -5.3836 C   0  0  2  0  0  0  0  0  0  0  0  0
    4.8511   -8.2241   -4.1511 O   0  0  0  0  0  0  0  0  0  0  0  0
    7.2206   -9.7011   -4.7432 C   0  0  0  0  0  0  0  0  0  0  0  0
    8.6157   -9.9556   -4.4342 N   0  3  0  0  0  0  0  0  0  0  0  0
   12.1346   -7.4093   -6.6333 C   0  0  2  0  0  0  0  0  0  0  0  0
   11.5412   -6.5712   -7.7485 C   0  0  0  0  0  0  0  0  0  0  0  0
   10.0473   -6.3983   -7.5462 C   0  0  1  0  0  0  0  0  0  0  0  0
    9.7085   -5.6794   -6.2396 C   0  0  2  0  0  0  0  0  0  0  0  0
   10.4371   -6.3336   -5.0429 C   0  0  1  0  0  0  0  0  0  0  0  0
   11.8936   -6.7541   -5.2800 C   0  0  1  0  0  0  0  0  0  0  0  0
   13.5600   -7.5641   -6.8529 N   0  3  0  0  0  0  0  0  0  0  0  0
    9.4982   -5.6805   -8.6800 N   0  3  0  0  0  0  0  0  0  0  0  0
   10.3453   -5.5137   -3.8520 O   0  0  0  0  0  0  0  0  0  0  0  0
   12.3177   -7.6295   -4.2404 O   0  0  0  0  0  0  0  0  0  0  0  0
  1  2  1  0  0  0  0
  3  2  1  6  0  0  0
  3  4  1  0  0  0  0
  3  5  1  0  0  0  0
  4  8  1  0  0  0  0
  5  6  1  0  0  0  0
  5 12  1  1  0  0  0
  6  7  1  1  0  0  0
  6  8  1  0  0  0  0
  8 41  1  6  0  0  0
  9 10  1  0  0  0  0
  9 17  1  0  0  0  0
  9 19  1  6  0  0  0
 10 11  1  0  0  0  0
 11 12  1  6  0  0  0
 11 13  1  0  0  0  0
 13 14  1  6  0  0  0
 13 15  1  0  0  0  0
 15 16  1  1  0  0  0
 15 17  1  0  0  0  0
 17 18  1  6  0  0  0
 19 20  1  0  0  0  0
 21 22  1  0  0  0  0
 21 29  1  0  0  0  0
 21 31  1  6  0  0  0
 22 23  1  0  0  0  0
 23 24  1  1  0  0  0
 23 25  1  0  0  0  0
 25 26  1  1  0  0  0
 25 27  1  0  0  0  0
 27 28  1  6  0  0  0
 27 29  1  0  0  0  0
 29 30  1  1  0  0  0
 31 32  1  0  0  0  0
 33 34  1  0  0  0  0
 33 38  1  0  0  0  0
 33 39  1  6  0  0  0
 34 35  1  0  0  0  0
 35 36  1  0  0  0  0
 35 40  1  6  0  0  0
 36 24  1  1  0  0  0
 36 37  1  0  0  0  0
 37 38  1  0  0  0  0
 37 41  1  1  0  0  0
 38 42  1  1  0  0  0
M  CHG  6  14   1  20   1  26   1  32   1  39   1  40   1
M  END
>  <CHROM.1>
-158.46913859,178.71796169,-160.80750627,67.47894345,-55.46238586,32.56266952
-20.89169181,177.83245048,65.22229714,-70.63137858,-69.17352646,64.83287243
80.57145446,12.89868835,112.05199750,63.32058195,116.02517825,-173.21658658
-174.70699046,-16.55577949,101.17851260,-52.36422273,8.56709581,-4.87448682
-4.13947240,1.51977910,0.07900559,0.61097055

>  <Name>


>  <RI>
0

>  <Rbt.Current_Directory>
/home/itssahil/PROJECTS/Mol_Feturizer/New_Systems/rnas/1qd3

>  <Rbt.Executable>
rbdock ($Id: //depot/dev/client3/rdock/2013.1/src/exe/rbdock.cxx#4 $)

>  <Rbt.Library>
libRbt.so (2013.1, Build901 2013/11/27)

>  <Rbt.Parameter_File>
/export/apps/rDock/src/rDock_2013.1_src/data/scripts/dock_solv.prm

>  <Rbt.Receptor>
prm/pocket_docking_3.prm

>  <SCORE>
-44.3379

>  <SCORE.INTER>
-39.9241

>  <SCORE.INTER.CONST>
1

>  <SCORE.INTER.POLAR>
-7.90134

>  <SCORE.INTER.ROT>
9

>  <SCORE.INTER.SOLV>
32.3298

>  <SCORE.INTER.VDW>
-20.6548

>  <SCORE.INTER.norm>
-0.950573

>  <SCORE.INTRA>
-4.99996

>  <SCORE.INTRA.DIHEDRAL>
0.42153

>  <SCORE.INTRA.DIHEDRAL.0>
40.6252

>  <SCORE.INTRA.POLAR>
-0.0755181

>  <SCORE.INTRA.POLAR.0>
-1.20161

>  <SCORE.INTRA.REPUL>
-0.0136351

>  <SCORE.INTRA.REPUL.0>
0.115675

>  <SCORE.INTRA.SOLV>
-3.05736

>  <SCORE.INTRA.SOLV.lig_0>
-154.895

>  <SCORE.INTRA.VDW>
-3.35711

>  <SCORE.INTRA.VDW.0>
2.2925

>  <SCORE.INTRA.norm>
-0.119047

>  <SCORE.RESTR>
0.586142

>  <SCORE.RESTR.CAVITY>
0.586142

>  <SCORE.RESTR.norm>
0.0139558

>  <SCORE.SYSTEM>
0

>  <SCORE.SYSTEM.CONST>
0

>  <SCORE.SYSTEM.DIHEDRAL>
0

>  <SCORE.SYSTEM.SOLV>
0

>  <SCORE.SYSTEM.norm>
0

>  <SCORE.heavy>
42

>  <SCORE.norm>
-1.05566

>  <RMSD>
9.501

$$$$

 OpenBabel11021811413D
libRbt.so/2013.1/901 2013/11/27
 42 45  0  0  0  0  0  0  0  0999 V2000
    9.8907   -5.3526    2.0002 O   0  0  0  0  0  0  0  0  0  0  0  0
   11.0786   -5.9268    1.4740 C   0  0  0  0  0  0  0  0  0  0  0  0
   10.9795   -6.0162   -0.0494 C   0  0  1  0  0  0  0  0  0  0  0  0
    9.8331   -6.7948   -0.4561 O   0  0  0  0  0  0  0  0  0  0  0  0
   10.8208   -4.6638   -0.7242 C   0  0  2  0  0  0  0  0  0  0  0  0
   10.2613   -5.0902   -2.0711 C   0  0  1  0  0  0  0  0  0  0  0  0
   11.3093   -5.6025   -2.8867 O   0  0  0  0  0  0  0  0  0  0  0  0
    9.2978   -6.2289   -1.6793 C   0  0  2  0  0  0  0  0  0  0  0  0
   10.7393   -0.9146   -2.3085 C   0  0  2  0  0  0  0  0  0  0  0  0
   10.8725   -2.0257   -1.4089 O   0  0  0  0  0  0  0  0  0  0  0  0
   12.0128   -2.8430   -1.7291 C   0  0  2  0  0  0  0  0  0  0  0  0
   12.0839   -3.9804   -0.8443 O   0  0  0  0  0  0  0  0  0  0  0  0
   13.3102   -2.0206   -1.6472 C   0  0  2  0  0  0  0  0  0  0  0  0
   13.7007   -1.8112   -0.2652 N   0  3  0  0  0  0  0  0  0  0  0  0
   13.2193   -0.6816   -2.3885 C   0  0  1  0  0  0  0  0  0  0  0  0
   13.3533   -0.9053   -3.7831 O   0  0  0  0  0  0  0  0  0  0  0  0
   11.9059    0.0449   -2.1114 C   0  0  2  0  0  0  0  0  0  0  0  0
   11.9031    0.5530   -0.7823 O   0  0  0  0  0  0  0  0  0  0  0  0
    9.4073   -0.2025   -2.0902 C   0  0  0  0  0  0  0  0  0  0  0  0
    9.2089    0.0801   -0.6811 N   0  3  0  0  0  0  0  0  0  0  0  0
    7.0200   -7.6563   -5.7551 C   0  0  1  0  0  0  0  0  0  0  0  0
    7.5886   -6.7238   -4.8121 O   0  0  0  0  0  0  0  0  0  0  0  0
    6.5955   -5.9363   -4.1156 C   0  0  2  0  0  0  0  0  0  0  0  0
    5.7619   -6.7510   -3.2548 O   0  0  0  0  0  0  0  0  0  0  0  0
    5.7466   -5.1349   -5.1100 C   0  0  2  0  0  0  0  0  0  0  0  0
    4.6274   -4.5187   -4.4219 N   0  3  0  0  0  0  0  0  0  0  0  0
    5.2187   -6.0133   -6.2387 C   0  0  1  0  0  0  0  0  0  0  0  0
    4.6456   -5.1990   -7.2501 O   0  0  0  0  0  0  0  0  0  0  0  0
    6.2857   -6.9057   -6.8540 C   0  0  2  0  0  0  0  0  0  0  0  0
    5.6966   -7.8256   -7.7613 O   0  0  0  0  0  0  0  0  0  0  0  0
    8.1275   -8.4742   -6.4133 C   0  0  0  0  0  0  0  0  0  0  0  0
    8.8732   -9.2238   -5.4190 N   0  3  0  0  0  0  0  0  0  0  0  0
    6.5040   -8.5882    0.5099 C   0  0  2  0  0  0  0  0  0  0  0  0
    6.3283   -9.4867   -0.6984 C   0  0  0  0  0  0  0  0  0  0  0  0
    5.6853   -8.7218   -1.8405 C   0  0  1  0  0  0  0  0  0  0  0  0
    6.5305   -7.5349   -2.3050 C   0  0  2  0  0  0  0  0  0  0  0  0
    6.9479   -6.6504   -1.1074 C   0  0  1  0  0  0  0  0  0  0  0  0
    7.3773   -7.3888    0.1673 C   0  0  1  0  0  0  0  0  0  0  0  0
    7.1143   -9.3436    1.5874 N   0  3  0  0  0  0  0  0  0  0  0  0
    5.4406   -9.6346   -2.9401 N   0  3  0  0  0  0  0  0  0  0  0  0
    7.9601   -5.6857   -1.4864 O   0  0  0  0  0  0  0  0  0  0  0  0
    7.4000   -6.4822    1.2649 O   0  0  0  0  0  0  0  0  0  0  0  0
  1  2  1  0  0  0  0
  3  2  1  1  0  0  0
  3  4  1  0  0  0  0
  3  5  1  0  0  0  0
  4  8  1  0  0  0  0
  5  6  1  0  0  0  0
  5 12  1  6  0  0  0
  6  7  1  6  0  0  0
  6  8  1  0  0  0  0
  8 41  1  1  0  0  0
  9 10  1  0  0  0  0
  9 17  1  0  0  0  0
  9 19  1  1  0  0  0
 10 11  1  0  0  0  0
 11 12  1  1  0  0  0
 11 13  1  0  0  0  0
 13 14  1  1  0  0  0
 13 15  1  0  0  0  0
 15 16  1  6  0  0  0
 15 17  1  0  0  0  0
 17 18  1  1  0  0  0
 19 20  1  0  0  0  0
 21 22  1  0  0  0  0
 21 29  1  0  0  0  0
 21 31  1  6  0  0  0
 22 23  1  0  0  0  0
 23 24  1  6  0  0  0
 23 25  1  0  0  0  0
 25 26  1  1  0  0  0
 25 27  1  0  0  0  0
 27 28  1  6  0  0  0
 27 29  1  0  0  0  0
 29 30  1  6  0  0  0
 31 32  1  0  0  0  0
 33 34  1  0  0  0  0
 33 38  1  0  0  0  0
 33 39  1  1  0  0  0
 34 35  1  0  0  0  0
 35 36  1  0  0  0  0
 35 40  1  6  0  0  0
 36 24  1  6  0  0  0
 36 37  1  0  0  0  0
 37 38  1  0  0  0  0
 37 41  1  6  0  0  0
 38 42  1  1  0  0  0
M  CHG  6  14   1  20   1  26   1  32   1  39   1  40   1
M  END
>  <CHROM.1>
-177.48596702,-57.99507559,167.34416467,62.61881819,-62.88839501,49.61842944
48.15872343,73.85915200,-62.52333591,51.81117576,-48.20588557,60.13782957
55.18484113,-158.07737511,54.37084416,89.36434357,-179.60411964,-157.86593762
-69.38654448,66.60223585,-74.48043461,164.03796728,8.78228903,-5.23697210
-2.33552240,-0.09348614,0.85778134,2.14286420

>  <Name>


>  <RI>
0

>  <Rbt.Current_Directory>
/home/itssahil/PROJECTS/Mol_Feturizer/New_Systems/rnas/1qd3

>  <Rbt.Executable>
rbdock ($Id: //depot/dev/client3/rdock/2013.1/src/exe/rbdock.cxx#4 $)

>  <Rbt.Library>
libRbt.so (2013.1, Build901 2013/11/27)

>  <Rbt.Parameter_File>
/export/apps/rDock/src/rDock_2013.1_src/data/scripts/dock_solv.prm

>  <Rbt.Receptor>
prm/pocket_docking_4.prm

>  <SCORE>
-52.9865

>  <SCORE.INTER>
-28.3633

>  <SCORE.INTER.CONST>
1

>  <SCORE.INTER.POLAR>
-4.96078

>  <SCORE.INTER.ROT>
9

>  <SCORE.INTER.SOLV>
21.8238

>  <SCORE.INTER.VDW>
-19.2475

>  <SCORE.INTER.norm>
-0.675316

>  <SCORE.INTRA>
-25.5171

>  <SCORE.INTRA.DIHEDRAL>
-26.8054

>  <SCORE.INTRA.DIHEDRAL.0>
40.6252

>  <SCORE.INTRA.POLAR>
0.208188

>  <SCORE.INTRA.POLAR.0>
-1.20161

>  <SCORE.INTRA.REPUL>
-0.115675

>  <SCORE.INTRA.REPUL.0>
0.115675

>  <SCORE.INTRA.SOLV>
-10.3573

>  <SCORE.INTRA.SOLV.lig_0>
-154.895

>  <SCORE.INTRA.VDW>
-7.06524

>  <SCORE.INTRA.VDW.0>
2.2925

>  <SCORE.INTRA.norm>
-0.607551

>  <SCORE.RESTR>
0.893885

>  <SCORE.RESTR.CAVITY>
0.893885

>  <SCORE.RESTR.norm>
0.021283

>  <SCORE.SYSTEM>
0

>  <SCORE.SYSTEM.CONST>
0

>  <SCORE.SYSTEM.DIHEDRAL>
0

>  <SCORE.SYSTEM.SOLV>
0

>  <SCORE.SYSTEM.norm>
0

>  <SCORE.heavy>
42

>  <SCORE.norm>
-1.26158

>  <RMSD>
9.508

$$$$

 OpenBabel11021811413D
libRbt.so/2013.1/901 2013/11/27
 42 45  0  0  0  0  0  0  0  0999 V2000
    6.7947   -1.1441   -0.2796 O   0  0  0  0  0  0  0  0  0  0  0  0
    7.7954   -1.4401    0.6841 C   0  0  0  0  0  0  0  0  0  0  0  0
    8.5868   -2.6733    0.2467 C   0  0  1  0  0  0  0  0  0  0  0  0
    7.8966   -3.8921    0.5986 O   0  0  0  0  0  0  0  0  0  0  0  0
    8.8117   -2.7446   -1.2546 C   0  0  2  0  0  0  0  0  0  0  0  0
    9.1323   -4.2210   -1.4168 C   0  0  1  0  0  0  0  0  0  0  0  0
   10.4697   -4.4714   -0.9989 O   0  0  0  0  0  0  0  0  0  0  0  0
    8.1438   -4.8802   -0.4335 C   0  0  2  0  0  0  0  0  0  0  0  0
   11.3738    0.9948    0.0123 C   0  0  2  0  0  0  0  0  0  0  0  0
   11.2971   -0.2119   -0.7619 O   0  0  0  0  0  0  0  0  0  0  0  0
    9.9385   -0.6528   -0.9371 C   0  0  2  0  0  0  0  0  0  0  0  0
    9.9009   -1.8962   -1.6679 O   0  0  0  0  0  0  0  0  0  0  0  0
    9.1093    0.4195   -1.6643 C   0  0  2  0  0  0  0  0  0  0  0  0
    9.4127    0.4302   -3.0836 N   0  3  0  0  0  0  0  0  0  0  0  0
    9.2847    1.8206   -1.0669 C   0  0  1  0  0  0  0  0  0  0  0  0
    8.5220    1.9232    0.1250 O   0  0  0  0  0  0  0  0  0  0  0  0
   10.7462    2.1430   -0.7677 C   0  0  2  0  0  0  0  0  0  0  0  0
   11.4553    2.3549   -1.9829 O   0  0  0  0  0  0  0  0  0  0  0  0
   12.8225    1.3111    0.3732 C   0  0  0  0  0  0  0  0  0  0  0  0
   12.8833    2.4426    1.2793 N   0  3  0  0  0  0  0  0  0  0  0  0
    7.9518   -6.4079   -6.2250 C   0  0  1  0  0  0  0  0  0  0  0  0
    8.0935   -5.5846   -5.0485 O   0  0  0  0  0  0  0  0  0  0  0  0
    6.8559   -5.4060   -4.3220 C   0  0  2  0  0  0  0  0  0  0  0  0
    6.3755   -6.6491   -3.7530 O   0  0  0  0  0  0  0  0  0  0  0  0
    5.7917   -4.7603   -5.2176 C   0  0  2  0  0  0  0  0  0  0  0  0
    4.5036   -4.7800   -4.5497 N   0  3  0  0  0  0  0  0  0  0  0  0
    5.6718   -5.4759   -6.5586 C   0  0  1  0  0  0  0  0  0  0  0  0
    4.8578   -4.7133   -7.4362 O   0  0  0  0  0  0  0  0  0  0  0  0
    7.0157   -5.7410   -7.2196 C   0  0  2  0  0  0  0  0  0  0  0  0
    6.8493   -6.5689   -8.3613 O   0  0  0  0  0  0  0  0  0  0  0  0
    9.3056   -6.5809   -6.9076 C   0  0  0  0  0  0  0  0  0  0  0  0
   10.2982   -7.0648   -5.9655 N   0  3  0  0  0  0  0  0  0  0  0  0
    7.2540   -8.9386   -0.2765 C   0  0  2  0  0  0  0  0  0  0  0  0
    7.9664   -9.2991   -1.5652 C   0  0  0  0  0  0  0  0  0  0  0  0
    7.2594   -8.6774   -2.7553 C   0  0  1  0  0  0  0  0  0  0  0  0
    7.2302   -7.1496   -2.6916 C   0  0  2  0  0  0  0  0  0  0  0  0
    6.7075   -6.6627   -1.3203 C   0  0  1  0  0  0  0  0  0  0  0  0
    7.2105   -7.4280   -0.0892 C   0  0  1  0  0  0  0  0  0  0  0  0
    7.9452   -9.5489    0.8432 N   0  3  0  0  0  0  0  0  0  0  0  0
    7.9057   -9.1245   -3.9737 N   0  3  0  0  0  0  0  0  0  0  0  0
    6.9241   -5.2412   -1.1431 O   0  0  0  0  0  0  0  0  0  0  0  0
    6.4047   -7.1073    1.0400 O   0  0  0  0  0  0  0  0  0  0  0  0
  1  2  1  0  0  0  0
  3  2  1  6  0  0  0
  3  4  1  0  0  0  0
  3  5  1  0  0  0  0
  4  8  1  0  0  0  0
  5  6  1  0  0  0  0
  5 12  1  1  0  0  0
  6  7  1  1  0  0  0
  6  8  1  0  0  0  0
  8 41  1  6  0  0  0
  9 10  1  0  0  0  0
  9 17  1  0  0  0  0
  9 19  1  6  0  0  0
 10 11  1  0  0  0  0
 11 12  1  6  0  0  0
 11 13  1  0  0  0  0
 13 14  1  6  0  0  0
 13 15  1  0  0  0  0
 15 16  1  1  0  0  0
 15 17  1  0  0  0  0
 17 18  1  6  0  0  0
 19 20  1  0  0  0  0
 21 22  1  0  0  0  0
 21 29  1  0  0  0  0
 21 31  1  6  0  0  0
 22 23  1  0  0  0  0
 23 24  1  6  0  0  0
 23 25  1  0  0  0  0
 25 26  1  1  0  0  0
 25 27  1  0  0  0  0
 27 28  1  6  0  0  0
 27 29  1  0  0  0  0
 29 30  1  6  0  0  0
 31 32  1  0  0  0  0
 33 34  1  0  0  0  0
 33 38  1  0  0  0  0
 33 39  1  1  0  0  0
 34 35  1  0  0  0  0
 35 36  1  0  0  0  0
 35 40  1  6  0  0  0
 36 24  1  6  0  0  0
 36 37  1  0  0  0  0
 37 38  1  0  0  0  0
 37 41  1  1  0  0  0
 38 42  1  1  0  0  0
M  CHG  6  14   1  20   1  26   1  32   1  39   1  40   1
M  END
>  <CHROM.1>
108.26792169,-82.22701008,-38.00495108,-176.15457830,-132.87507591,-173.56000938
146.90545349,77.49428088,62.96880931,179.92533285,62.32808916,53.12055877
67.68346919,-144.33889965,34.65263856,161.62578667,-169.57194821,79.00335039
-174.30098783,74.99015030,-94.77435848,-58.16487082,8.35626982,-3.87286854
-2.30722410,-0.06509220,1.20369958,2.08092898

>  <Name>


>  <RI>
0

>  <Rbt.Current_Directory>
/home/itssahil/PROJECTS/Mol_Feturizer/New_Systems/rnas/1qd3

>  <Rbt.Executable>
rbdock ($Id: //depot/dev/client3/rdock/2013.1/src/exe/rbdock.cxx#4 $)

>  <Rbt.Library>
libRbt.so (2013.1, Build901 2013/11/27)

>  <Rbt.Parameter_File>
/export/apps/rDock/src/rDock_2013.1_src/data/scripts/dock_solv.prm

>  <Rbt.Receptor>
prm/pocket_docking_5.prm

>  <SCORE>
-55.0935

>  <SCORE.INTER>
-47.7603

>  <SCORE.INTER.CONST>
1

>  <SCORE.INTER.POLAR>
-9.21031

>  <SCORE.INTER.ROT>
9

>  <SCORE.INTER.SOLV>
38.7171

>  <SCORE.INTER.VDW>
-23.6449

>  <SCORE.INTER.norm>
-1.13715

>  <SCORE.INTRA>
-7.33314

>  <SCORE.INTRA.DIHEDRAL>
-3.30892

>  <SCORE.INTRA.DIHEDRAL.0>
40.6252

>  <SCORE.INTRA.POLAR>
1.20161

>  <SCORE.INTRA.POLAR.0>
-1.20161

>  <SCORE.INTRA.REPUL>
-0.106262

>  <SCORE.INTRA.REPUL.0>
0.115675

>  <SCORE.INTRA.SOLV>
-9.79983

>  <SCORE.INTRA.SOLV.lig_0>
-154.895

>  <SCORE.INTRA.VDW>
-4.33292

>  <SCORE.INTRA.VDW.0>
2.2925

>  <SCORE.INTRA.norm>
-0.174599

>  <SCORE.RESTR>
0

>  <SCORE.RESTR.CAVITY>
0

>  <SCORE.RESTR.norm>
0

>  <SCORE.SYSTEM>
0

>  <SCORE.SYSTEM.CONST>
0

>  <SCORE.SYSTEM.DIHEDRAL>
0

>  <SCORE.SYSTEM.SOLV>
0

>  <SCORE.SYSTEM.norm>
0

>  <SCORE.heavy>
42

>  <SCORE.norm>
-1.31175

>  <RMSD>
9.508

$$$$

 OpenBabel11021811413D
libRbt.so/2013.1/901 2013/11/27
 42 45  0  0  0  0  0  0  0  0999 V2000
   10.3138    1.6796   -1.1861 O   0  0  0  0  0  0  0  0  0  0  0  0
    9.5816    0.8520   -2.0787 C   0  0  0  0  0  0  0  0  0  0  0  0
    8.4535    0.1476   -1.3239 C   0  0  1  0  0  0  0  0  0  0  0  0
    7.6505   -0.6588   -2.2129 O   0  0  0  0  0  0  0  0  0  0  0  0
    8.9495   -0.7983   -0.2428 C   0  0  2  0  0  0  0  0  0  0  0  0
    7.7197   -1.6702   -0.0521 C   0  0  1  0  0  0  0  0  0  0  0  0
    6.7494   -0.9709    0.7194 O   0  0  0  0  0  0  0  0  0  0  0  0
    7.2138   -1.8429   -1.4987 C   0  0  2  0  0  0  0  0  0  0  0  0
    6.9863    1.8672    2.9876 C   0  0  2  0  0  0  0  0  0  0  0  0
    7.9609    0.8680    2.6513 O   0  0  0  0  0  0  0  0  0  0  0  0
    8.3781    0.9648    1.2775 C   0  0  2  0  0  0  0  0  0  0  0  0
    9.3118   -0.0875    0.9574 O   0  0  0  0  0  0  0  0  0  0  0  0
    9.0068    2.3404    0.9967 C   0  0  2  0  0  0  0  0  0  0  0  0
   10.3536    2.4101    1.5331 N   0  3  0  0  0  0  0  0  0  0  0  0
    8.1590    3.5055    1.5206 C   0  0  1  0  0  0  0  0  0  0  0  0
    7.0720    3.7315    0.6372 O   0  0  0  0  0  0  0  0  0  0  0  0
    7.6283    3.2474    2.9282 C   0  0  2  0  0  0  0  0  0  0  0  0
    8.6902    3.3347    3.8711 O   0  0  0  0  0  0  0  0  0  0  0  0
    6.3979    1.6008    4.3703 C   0  0  0  0  0  0  0  0  0  0  0  0
    7.4570    1.4238    5.3460 N   0  3  0  0  0  0  0  0  0  0  0  0
    8.5095   -4.5467   -4.4445 C   0  0  1  0  0  0  0  0  0  0  0  0
    7.3868   -3.6881   -4.7350 O   0  0  0  0  0  0  0  0  0  0  0  0
    6.1179   -4.3818   -4.7259 C   0  0  2  0  0  0  0  0  0  0  0  0
    5.7765   -4.8732   -3.4062 O   0  0  0  0  0  0  0  0  0  0  0  0
    6.1154   -5.5174   -5.7565 C   0  0  2  0  0  0  0  0  0  0  0  0
    4.9264   -6.3329   -5.5922 N   0  3  0  0  0  0  0  0  0  0  0  0
    7.3509   -6.4012   -5.6264 C   0  0  1  0  0  0  0  0  0  0  0  0
    7.4266   -7.2833   -6.7357 O   0  0  0  0  0  0  0  0  0  0  0  0
    8.6460   -5.6105   -5.5216 C   0  0  2  0  0  0  0  0  0  0  0  0
    9.7293   -6.4761   -5.2155 O   0  0  0  0  0  0  0  0  0  0  0  0
    9.8001   -3.7325   -4.4316 C   0  0  0  0  0  0  0  0  0  0  0  0
    9.5968   -2.4573   -3.7689 N   0  3  0  0  0  0  0  0  0  0  0  0
    7.8216   -6.2114    0.0761 C   0  0  2  0  0  0  0  0  0  0  0  0
    7.7310   -7.1582   -1.1043 C   0  0  0  0  0  0  0  0  0  0  0  0
    6.6556   -6.7001   -2.0719 C   0  0  1  0  0  0  0  0  0  0  0  0
    6.9364   -5.3133   -2.6522 C   0  0  2  0  0  0  0  0  0  0  0  0
    7.2519   -4.2974   -1.5301 C   0  0  1  0  0  0  0  0  0  0  0  0
    8.1479   -4.7989   -0.3898 C   0  0  1  0  0  0  0  0  0  0  0  0
    8.8511   -6.6741    0.9872 N   0  3  0  0  0  0  0  0  0  0  0  0
    6.5276   -7.6801   -3.1328 N   0  3  0  0  0  0  0  0  0  0  0  0
    7.7790   -3.0592   -2.0668 O   0  0  0  0  0  0  0  0  0  0  0  0
    8.0733   -3.9006    0.7123 O   0  0  0  0  0  0  0  0  0  0  0  0
  1  2  1  0  0  0  0
  3  2  1  6  0  0  0
  3  4  1  0  0  0  0
  3  5  1  0  0  0  0
  4  8  1  0  0  0  0
  5  6  1  0  0  0  0
  5 12  1  1  0  0  0
  6  7  1  1  0  0  0
  6  8  1  0  0  0  0
  8 41  1  6  0  0  0
  9 10  1  0  0  0  0
  9 17  1  0  0  0  0
  9 19  1  1  0  0  0
 10 11  1  0  0  0  0
 11 12  1  1  0  0  0
 11 13  1  0  0  0  0
 13 14  1  1  0  0  0
 13 15  1  0  0  0  0
 15 16  1  6  0  0  0
 15 17  1  0  0  0  0
 17 18  1  1  0  0  0
 19 20  1  0  0  0  0
 21 22  1  0  0  0  0
 21 29  1  0  0  0  0
 21 31  1  6  0  0  0
 22 23  1  0  0  0  0
 23 24  1  1  0  0  0
 23 25  1  0  0  0  0
 25 26  1  1  0  0  0
 25 27  1  0  0  0  0
 27 28  1  6  0  0  0
 27 29  1  0  0  0  0
 29 30  1  1  0  0  0
 31 32  1  0  0  0  0
 33 34  1  0  0  0  0
 33 38  1  0  0  0  0
 33 39  1  1  0  0  0
 34 35  1  0  0  0  0
 35 36  1  0  0  0  0
 35 40  1  6  0  0  0
 36 24  1  1  0  0  0
 36 37  1  0  0  0  0
 37 38  1  0  0  0  0
 37 41  1  6  0  0  0
 38 42  1  1  0  0  0
M  CHG  6  14   1  20   1  26   1  32   1  39   1  40   1
M  END
>  <CHROM.1>
-88.40938086,177.49319294,41.10365544,-73.32457129,-171.91796475,51.49656465
129.90207129,-42.95594180,63.66009335,-166.04406880,128.91868700,41.21002026
-35.25585472,-130.86328893,-9.32118413,69.43297594,64.93286732,55.51202842
-151.55549468,-179.37656372,135.09570626,67.02507068,7.90499595,-2.25221077
-1.16325129,-1.23397150,-1.31915312,-2.13368881

>  <Name>


>  <RI>
0

>  <Rbt.Current_Directory>
/home/itssahil/PROJECTS/Mol_Feturizer/New_Systems/rnas/1qd3

>  <Rbt.Executable>
rbdock ($Id: //depot/dev/client3/rdock/2013.1/src/exe/rbdock.cxx#4 $)

>  <Rbt.Library>
libRbt.so (2013.1, Build901 2013/11/27)

>  <Rbt.Parameter_File>
/export/apps/rDock/src/rDock_2013.1_src/data/scripts/dock_solv.prm

>  <Rbt.Receptor>
prm/pocket_docking_2.prm

>  <SCORE>
-18.8481

>  <SCORE.INTER>
-30.3914

>  <SCORE.INTER.CONST>
1

>  <SCORE.INTER.POLAR>
-3.81783

>  <SCORE.INTER.ROT>
9

>  <SCORE.INTER.SOLV>
34.4398

>  <SCORE.INTER.VDW>
-28.6148

>  <SCORE.INTER.norm>
-0.723605

>  <SCORE.INTRA>
8.95048

>  <SCORE.INTRA.DIHEDRAL>
0.231376

>  <SCORE.INTRA.DIHEDRAL.0>
40.6252

>  <SCORE.INTRA.POLAR>
-0.602083

>  <SCORE.INTRA.POLAR.0>
-1.20161

>  <SCORE.INTRA.REPUL>
-0.105391

>  <SCORE.INTRA.REPUL.0>
0.115675

>  <SCORE.INTRA.SOLV>
10.5251

>  <SCORE.INTRA.SOLV.lig_0>
-154.895

>  <SCORE.INTRA.VDW>
6.14626

>  <SCORE.INTRA.VDW.0>
2.2925

>  <SCORE.INTRA.norm>
0.213107

>  <SCORE.RESTR>
2.59283

>  <SCORE.RESTR.CAVITY>
2.59283

>  <SCORE.RESTR.norm>
0.061734

>  <SCORE.SYSTEM>
0

>  <SCORE.SYSTEM.CONST>
0

>  <SCORE.SYSTEM.DIHEDRAL>
0

>  <SCORE.SYSTEM.SOLV>
0

>  <SCORE.SYSTEM.norm>
0

>  <SCORE.heavy>
42

>  <SCORE.norm>
-0.448765

>  <RMSD>
9.512

$$$$

 OpenBabel11021811413D
libRbt.so/2013.1/901 2013/11/27
 42 45  0  0  0  0  0  0  0  0999 V2000
    8.6452   -4.3718    0.6946 O   0  0  0  0  0  0  0  0  0  0  0  0
    9.6971   -5.2571    1.0513 C   0  0  0  0  0  0  0  0  0  0  0  0
   10.2519   -5.9338   -0.2028 C   0  0  1  0  0  0  0  0  0  0  0  0
    9.3371   -6.9293   -0.7105 O   0  0  0  0  0  0  0  0  0  0  0  0
   10.4926   -4.9694   -1.3523 C   0  0  2  0  0  0  0  0  0  0  0  0
   10.5332   -5.9379   -2.5225 C   0  0  1  0  0  0  0  0  0  0  0  0
   11.7899   -6.6055   -2.5508 O   0  0  0  0  0  0  0  0  0  0  0  0
    9.4167   -6.9377   -2.1584 C   0  0  2  0  0  0  0  0  0  0  0  0
   11.2498   -0.9675   -2.7205 C   0  0  2  0  0  0  0  0  0  0  0  0
   11.1637   -2.0199   -1.7477 O   0  0  0  0  0  0  0  0  0  0  0  0
   11.8859   -3.1941   -2.1606 C   0  0  2  0  0  0  0  0  0  0  0  0
   11.7309   -4.2502   -1.1899 O   0  0  0  0  0  0  0  0  0  0  0  0
   13.3759   -2.8711   -2.3652 C   0  0  2  0  0  0  0  0  0  0  0  0
   14.0579   -2.7569   -1.0891 N   0  3  0  0  0  0  0  0  0  0  0  0
   13.6062   -1.6136   -3.2116 C   0  0  1  0  0  0  0  0  0  0  0  0
   13.4020   -1.9238   -4.5809 O   0  0  0  0  0  0  0  0  0  0  0  0
   12.6858   -0.4660   -2.8049 C   0  0  2  0  0  0  0  0  0  0  0  0
   13.0946    0.0624   -1.5487 O   0  0  0  0  0  0  0  0  0  0  0  0
   10.2967    0.1708   -2.3673 C   0  0  0  0  0  0  0  0  0  0  0  0
    9.0181   -0.0160   -3.0269 N   0  3  0  0  0  0  0  0  0  0  0  0
    5.6715   -5.9610   -4.8541 C   0  0  1  0  0  0  0  0  0  0  0  0
    5.1517   -7.2867   -4.6210 O   0  0  0  0  0  0  0  0  0  0  0  0
    5.8655   -8.3169   -5.3427 C   0  0  2  0  0  0  0  0  0  0  0  0
    7.2330   -8.4540   -4.8835 O   0  0  0  0  0  0  0  0  0  0  0  0
    5.8130   -8.0541   -6.8526 C   0  0  2  0  0  0  0  0  0  0  0  0
    6.7025   -8.9676   -7.5456 N   0  3  0  0  0  0  0  0  0  0  0  0
    6.2050   -6.6200   -7.1906 C   0  0  1  0  0  0  0  0  0  0  0  0
    5.9173   -6.3547   -8.5548 O   0  0  0  0  0  0  0  0  0  0  0  0
    5.5095   -5.5863   -6.3182 C   0  0  2  0  0  0  0  0  0  0  0  0
    6.0538   -4.2959   -6.5530 O   0  0  0  0  0  0  0  0  0  0  0  0
    4.8935   -4.9420   -4.0264 C   0  0  0  0  0  0  0  0  0  0  0  0
    5.5087   -3.6303   -4.1152 N   0  3  0  0  0  0  0  0  0  0  0  0
    5.7224   -8.7739   -0.9192 C   0  0  2  0  0  0  0  0  0  0  0  0
    6.1879  -10.0415   -1.6081 C   0  0  0  0  0  0  0  0  0  0  0  0
    6.3058   -9.8205   -3.1048 C   0  0  1  0  0  0  0  0  0  0  0  0
    7.3238   -8.7366   -3.4624 C   0  0  2  0  0  0  0  0  0  0  0  0
    7.0660   -7.4459   -2.6509 C   0  0  1  0  0  0  0  0  0  0  0  0
    6.6983   -7.6329   -1.1730 C   0  0  1  0  0  0  0  0  0  0  0  0
    5.6125   -9.0132    0.5072 N   0  3  0  0  0  0  0  0  0  0  0  0
    6.6538  -11.0762   -3.7407 N   0  3  0  0  0  0  0  0  0  0  0  0
    8.1669   -6.5122   -2.7736 O   0  0  0  0  0  0  0  0  0  0  0  0
    6.1650   -6.4200   -0.6519 O   0  0  0  0  0  0  0  0  0  0  0  0
  1  2  1  0  0  0  0
  3  2  1  1  0  0  0
  3  4  1  0  0  0  0
  3  5  1  0  0  0  0
  4  8  1  0  0  0  0
  5  6  1  0  0  0  0
  5 12  1  1  0  0  0
  6  7  1  1  0  0  0
  6  8  1  0  0  0  0
  8 41  1  6  0  0  0
  9 10  1  0  0  0  0
  9 17  1  0  0  0  0
  9 19  1  1  0  0  0
 10 11  1  0  0  0  0
 11 12  1  1  0  0  0
 11 13  1  0  0  0  0
 13 14  1  1  0  0  0
 13 15  1  0  0  0  0
 15 16  1  6  0  0  0
 15 17  1  0  0  0  0
 17 18  1  1  0  0  0
 19 20  1  0  0  0  0
 21 22  1  0  0  0  0
 21 29  1  0  0  0  0
 21 31  1  1  0  0  0
 22 23  1  0  0  0  0
 23 24  1  1  0  0  0
 23 25  1  0  0  0  0
 25 26  1  6  0  0  0
 25 27  1  0  0  0  0
 27 28  1  6  0  0  0
 27 29  1  0  0  0  0
 29 30  1  1  0  0  0
 31 32  1  0  0  0  0
 33 34  1  0  0  0  0
 33 38  1  0  0  0  0
 33 39  1  1  0  0  0
 34 35  1  0  0  0  0
 35 36  1  0  0  0  0
 35 40  1  6  0  0  0
 36 24  1  6  0  0  0
 36 37  1  0  0  0  0
 37 38  1  0  0  0  0
 37 41  1  1  0  0  0
 38 42  1  6  0  0  0
M  CHG  6  14   1  20   1  26   1  32   1  39   1  40   1
M  END
>  <CHROM.1>
80.99706766,-73.37393299,-171.50650462,-179.58884749,-70.33860602,-92.46600026
81.66832938,82.31655487,-51.25117471,54.46238847,-65.00256457,172.71456219
57.08982092,45.30409368,-41.32052474,55.73519243,69.06078849,-166.51455339
-36.06528905,-175.65390578,-67.46355969,-169.86919996,8.62780109,-5.46912250
-3.02753060,-0.21076594,0.80587234,2.21102273

>  <Name>


>  <RI>
0

>  <Rbt.Current_Directory>
/home/itssahil/PROJECTS/Mol_Feturizer/New_Systems/rnas/1qd3

>  <Rbt.Executable>
rbdock ($Id: //depot/dev/client3/rdock/2013.1/src/exe/rbdock.cxx#4 $)

>  <Rbt.Library>
libRbt.so (2013.1, Build901 2013/11/27)

>  <Rbt.Parameter_File>
/export/apps/rDock/src/rDock_2013.1_src/data/scripts/dock_solv.prm

>  <Rbt.Receptor>
prm/pocket_docking_4.prm

>  <SCORE>
-48.0289

>  <SCORE.INTER>
-27.6621

>  <SCORE.INTER.CONST>
1

>  <SCORE.INTER.POLAR>
-5.50448

>  <SCORE.INTER.ROT>
9

>  <SCORE.INTER.SOLV>
32.3563

>  <SCORE.INTER.VDW>
-20.4785

>  <SCORE.INTER.norm>
-0.65862

>  <SCORE.INTRA>
-21.0755

>  <SCORE.INTRA.DIHEDRAL>
-24.2875

>  <SCORE.INTRA.DIHEDRAL.0>
40.6252

>  <SCORE.INTRA.POLAR>
0.861297

>  <SCORE.INTRA.POLAR.0>
-1.20161

>  <SCORE.INTRA.REPUL>
-0.104904

>  <SCORE.INTRA.REPUL.0>
0.115675

>  <SCORE.INTRA.SOLV>
-11.4235

>  <SCORE.INTRA.SOLV.lig_0>
-154.895

>  <SCORE.INTRA.VDW>
-5.62393

>  <SCORE.INTRA.VDW.0>
2.2925

>  <SCORE.INTRA.norm>
-0.501798

>  <SCORE.RESTR>
0.708651

>  <SCORE.RESTR.CAVITY>
0.708651

>  <SCORE.RESTR.norm>
0.0168727

>  <SCORE.SYSTEM>
0

>  <SCORE.SYSTEM.CONST>
0

>  <SCORE.SYSTEM.DIHEDRAL>
0

>  <SCORE.SYSTEM.SOLV>
0

>  <SCORE.SYSTEM.norm>
0

>  <SCORE.heavy>
42

>  <SCORE.norm>
-1.14355

>  <RMSD>
9.520

$$$$

 OpenBabel11021811413D
libRbt.so/2013.1/901 2013/11/27
 42 45  0  0  0  0  0  0  0  0999 V2000
    8.2871   -3.1952    0.6328 O   0  0  0  0  0  0  0  0  0  0  0  0
    8.8435   -3.5775   -0.6170 C   0  0  0  0  0  0  0  0  0  0  0  0
    8.9223   -5.1022   -0.7038 C   0  0  1  0  0  0  0  0  0  0  0  0
    7.7657   -5.7229   -0.1016 O   0  0  0  0  0  0  0  0  0  0  0  0
    8.9750   -5.6235   -2.1303 C   0  0  2  0  0  0  0  0  0  0  0  0
    8.5458   -7.0650   -1.9146 C   0  0  1  0  0  0  0  0  0  0  0  0
    9.6322   -7.8159   -1.3836 O   0  0  0  0  0  0  0  0  0  0  0  0
    7.4388   -6.9208   -0.8505 C   0  0  2  0  0  0  0  0  0  0  0  0
   11.2678   -2.0004   -2.8312 C   0  0  2  0  0  0  0  0  0  0  0  0
   11.0601   -3.3129   -2.2876 O   0  0  0  0  0  0  0  0  0  0  0  0
   10.5543   -4.2298   -3.2747 C   0  0  2  0  0  0  0  0  0  0  0  0
   10.3021   -5.5212   -2.6829 O   0  0  0  0  0  0  0  0  0  0  0  0
   11.5408   -4.3632   -4.4476 C   0  0  2  0  0  0  0  0  0  0  0  0
   12.6689   -5.1986   -4.0791 N   0  3  0  0  0  0  0  0  0  0  0  0
   12.0259   -3.0098   -4.9801 C   0  0  1  0  0  0  0  0  0  0  0  0
   11.0144   -2.4325   -5.7904 O   0  0  0  0  0  0  0  0  0  0  0  0
   12.3935   -2.0443   -3.8566 C   0  0  2  0  0  0  0  0  0  0  0  0
   13.6049   -2.4597   -3.2364 O   0  0  0  0  0  0  0  0  0  0  0  0
   11.5828   -1.0020   -1.7209 C   0  0  0  0  0  0  0  0  0  0  0  0
   11.0160    0.2968   -2.0316 N   0  3  0  0  0  0  0  0  0  0  0  0
    8.1409   -7.2185   -6.5127 C   0  0  1  0  0  0  0  0  0  0  0  0
    8.2601   -6.8097   -5.1340 O   0  0  0  0  0  0  0  0  0  0  0  0
    7.0013   -6.4113   -4.5439 C   0  0  2  0  0  0  0  0  0  0  0  0
    6.0743   -7.5203   -4.4411 O   0  0  0  0  0  0  0  0  0  0  0  0
    6.3836   -5.2449   -5.3245 C   0  0  2  0  0  0  0  0  0  0  0  0
    5.0330   -4.9952   -4.8560 N   0  3  0  0  0  0  0  0  0  0  0  0
    6.3507   -5.5224   -6.8233 C   0  0  1  0  0  0  0  0  0  0  0  0
    5.9963   -4.3385   -7.5211 O   0  0  0  0  0  0  0  0  0  0  0  0
    7.6699   -6.0514   -7.3648 C   0  0  2  0  0  0  0  0  0  0  0  0
    7.5190   -6.4648   -8.7150 O   0  0  0  0  0  0  0  0  0  0  0  0
    9.5005   -7.6618   -7.0454 C   0  0  0  0  0  0  0  0  0  0  0  0
    9.3422   -8.5636   -8.1716 N   0  3  0  0  0  0  0  0  0  0  0  0
    5.2368  -10.5146   -1.5373 C   0  0  2  0  0  0  0  0  0  0  0  0
    6.1898  -10.8622   -2.6638 C   0  0  0  0  0  0  0  0  0  0  0  0
    6.0622   -9.8600   -3.7962 C   0  0  1  0  0  0  0  0  0  0  0  0
    6.4076   -8.4344   -3.3636 C   0  0  2  0  0  0  0  0  0  0  0  0
    5.6357   -8.0425   -2.0824 C   0  0  1  0  0  0  0  0  0  0  0  0
    5.5268   -9.1211   -0.9965 C   0  0  1  0  0  0  0  0  0  0  0  0
    5.3742  -11.4893   -0.4719 N   0  3  0  0  0  0  0  0  0  0  0  0
    6.9112  -10.2792   -4.8943 N   0  3  0  0  0  0  0  0  0  0  0  0
    6.1448   -6.8126   -1.5104 O   0  0  0  0  0  0  0  0  0  0  0  0
    4.5264   -8.7547   -0.0521 O   0  0  0  0  0  0  0  0  0  0  0  0
  1  2  1  0  0  0  0
  3  2  1  6  0  0  0
  3  4  1  0  0  0  0
  3  5  1  0  0  0  0
  4  8  1  0  0  0  0
  5  6  1  0  0  0  0
  5 12  1  1  0  0  0
  6  7  1  1  0  0  0
  6  8  1  0  0  0  0
  8 41  1  6  0  0  0
  9 10  1  0  0  0  0
  9 17  1  0  0  0  0
  9 19  1  1  0  0  0
 10 11  1  0  0  0  0
 11 12  1  1  0  0  0
 11 13  1  0  0  0  0
 13 14  1  1  0  0  0
 13 15  1  0  0  0  0
 15 16  1  1  0  0  0
 15 17  1  0  0  0  0
 17 18  1  1  0  0  0
 19 20  1  0  0  0  0
 21 22  1  0  0  0  0
 21 29  1  0  0  0  0
 21 31  1  6  0  0  0
 22 23  1  0  0  0  0
 23 24  1  6  0  0  0
 23 25  1  0  0  0  0
 25 26  1  1  0  0  0
 25 27  1  0  0  0  0
 27 28  1  6  0  0  0
 27 29  1  0  0  0  0
 29 30  1  6  0  0  0
 31 32  1  0  0  0  0
 33 34  1  0  0  0  0
 33 38  1  0  0  0  0
 33 39  1  1  0  0  0
 34 35  1  0  0  0  0
 35 36  1  0  0  0  0
 35 40  1  6  0  0  0
 36 24  1  6  0  0  0
 36 37  1  0  0  0  0
 37 38  1  0  0  0  0
 37 41  1  1  0  0  0
 38 42  1  1  0  0  0
M  CHG  6  14   1  20   1  26   1  32   1  39   1  40   1
M  END
>  <CHROM.1>
-51.95571498,38.29425352,-86.25257426,64.71370375,-169.59772492,-145.18160246
88.15203054,78.37458183,-170.54682091,50.45979328,-65.11343827,156.39959807
75.37274747,-144.73363501,70.74478364,-49.57510705,-68.59295771,-82.00832863
-172.34062689,72.09848571,-73.13559257,67.21190538,8.40895225,-5.97086224
-3.48540892,0.02463666,0.88309717,1.47635466

>  <Name>


>  <RI>
0

>  <Rbt.Current_Directory>
/home/itssahil/PROJECTS/Mol_Feturizer/New_Systems/rnas/1qd3

>  <Rbt.Executable>
rbdock ($Id: //depot/dev/client3/rdock/2013.1/src/exe/rbdock.cxx#4 $)

>  <Rbt.Library>
libRbt.so (2013.1, Build901 2013/11/27)

>  <Rbt.Parameter_File>
/export/apps/rDock/src/rDock_2013.1_src/data/scripts/dock_solv.prm

>  <Rbt.Receptor>
prm/pocket_docking_8.prm

>  <SCORE>
-45.7162

>  <SCORE.INTER>
-27.7527

>  <SCORE.INTER.CONST>
1

>  <SCORE.INTER.POLAR>
-5.52408

>  <SCORE.INTER.ROT>
9

>  <SCORE.INTER.SOLV>
24.2125

>  <SCORE.INTER.VDW>
-17.759

>  <SCORE.INTER.norm>
-0.66078

>  <SCORE.INTRA>
-17.9635

>  <SCORE.INTRA.DIHEDRAL>
-14.2017

>  <SCORE.INTRA.DIHEDRAL.0>
40.6252

>  <SCORE.INTRA.POLAR>
1.09926

>  <SCORE.INTRA.POLAR.0>
-1.20161

>  <SCORE.INTRA.REPUL>
-0.115675

>  <SCORE.INTRA.REPUL.0>
0.115675

>  <SCORE.INTRA.SOLV>
-11.7457

>  <SCORE.INTRA.SOLV.lig_0>
-154.895

>  <SCORE.INTRA.VDW>
-8.14891

>  <SCORE.INTRA.VDW.0>
2.2925

>  <SCORE.INTRA.norm>
-0.427702

>  <SCORE.RESTR>
0

>  <SCORE.RESTR.CAVITY>
0

>  <SCORE.RESTR.norm>
0

>  <SCORE.SYSTEM>
0

>  <SCORE.SYSTEM.CONST>
0

>  <SCORE.SYSTEM.DIHEDRAL>
0

>  <SCORE.SYSTEM.SOLV>
0

>  <SCORE.SYSTEM.norm>
0

>  <SCORE.heavy>
42

>  <SCORE.norm>
-1.08848

>  <RMSD>
9.520

$$$$

 OpenBabel11021811413D
libRbt.so/2013.1/901 2013/11/27
 42 45  0  0  0  0  0  0  0  0999 V2000
   12.2624   -4.3413   -0.7065 O   0  0  0  0  0  0  0  0  0  0  0  0
   11.2670   -3.3349   -0.8247 C   0  0  0  0  0  0  0  0  0  0  0  0
   11.1797   -2.8610   -2.2760 C   0  0  1  0  0  0  0  0  0  0  0  0
   10.7214   -3.9180   -3.1468 O   0  0  0  0  0  0  0  0  0  0  0  0
   10.2085   -1.7097   -2.4774 C   0  0  2  0  0  0  0  0  0  0  0  0
    9.9658   -1.8105   -3.9740 C   0  0  1  0  0  0  0  0  0  0  0  0
   11.0758   -1.2657   -4.6790 O   0  0  0  0  0  0  0  0  0  0  0  0
    9.9034   -3.3359   -4.1931 C   0  0  2  0  0  0  0  0  0  0  0  0
   10.5154    1.7478    0.8074 C   0  0  2  0  0  0  0  0  0  0  0  0
   10.9159    1.2858   -0.4917 O   0  0  0  0  0  0  0  0  0  0  0  0
   10.3277    0.0128   -0.8145 C   0  0  2  0  0  0  0  0  0  0  0  0
   10.7956   -0.4491   -2.0988 O   0  0  0  0  0  0  0  0  0  0  0  0
    8.7923    0.1067   -0.8075 C   0  0  2  0  0  0  0  0  0  0  0  0
    8.3113    0.7655   -2.0080 N   0  3  0  0  0  0  0  0  0  0  0  0
    8.2395    0.7995    0.4436 C   0  0  1  0  0  0  0  0  0  0  0  0
    8.2701   -0.1059    1.5355 O   0  0  0  0  0  0  0  0  0  0  0  0
    9.0241    2.0587    0.8017 C   0  0  2  0  0  0  0  0  0  0  0  0
    8.7423    3.0899   -0.1373 O   0  0  0  0  0  0  0  0  0  0  0  0
   11.3248    2.9757    1.2147 C   0  0  0  0  0  0  0  0  0  0  0  0
   12.5958    2.9994    0.5154 N   0  3  0  0  0  0  0  0  0  0  0  0
    6.1814   -5.7959   -5.2492 C   0  0  1  0  0  0  0  0  0  0  0  0
    6.7963   -7.0033   -4.7531 O   0  0  0  0  0  0  0  0  0  0  0  0
    7.9577   -7.4088   -5.5136 C   0  0  2  0  0  0  0  0  0  0  0  0
    9.0441   -6.4573   -5.3953 O   0  0  0  0  0  0  0  0  0  0  0  0
    7.5865   -7.6442   -6.9827 C   0  0  2  0  0  0  0  0  0  0  0  0
    8.7881   -7.8426   -7.7717 N   0  3  0  0  0  0  0  0  0  0  0  0
    6.7953   -6.4757   -7.5599 C   0  0  1  0  0  0  0  0  0  0  0  0
    6.2741   -6.8326   -8.8308 O   0  0  0  0  0  0  0  0  0  0  0  0
    5.6587   -6.0173   -6.6592 C   0  0  2  0  0  0  0  0  0  0  0  0
    5.0857   -4.8180   -7.1592 O   0  0  0  0  0  0  0  0  0  0  0  0
    4.9940   -5.4151   -4.3696 C   0  0  0  0  0  0  0  0  0  0  0  0
    5.0519   -4.0108   -4.0075 N   0  3  0  0  0  0  0  0  0  0  0  0
    8.2500   -6.2515   -1.2208 C   0  0  2  0  0  0  0  0  0  0  0  0
    9.4178   -7.1007   -1.6823 C   0  0  0  0  0  0  0  0  0  0  0  0
    9.3130   -7.3858   -3.1691 C   0  0  1  0  0  0  0  0  0  0  0  0
    9.3435   -6.1134   -4.0170 C   0  0  2  0  0  0  0  0  0  0  0  0
    8.3194   -5.0778   -3.4979 C   0  0  1  0  0  0  0  0  0  0  0  0
    8.2143   -4.9288   -1.9744 C   0  0  1  0  0  0  0  0  0  0  0  0
    8.3707   -5.9986    0.2024 N   0  3  0  0  0  0  0  0  0  0  0  0
   10.3868   -8.2807   -3.5542 N   0  3  0  0  0  0  0  0  0  0  0  0
    8.5187   -3.7801   -4.1104 O   0  0  0  0  0  0  0  0  0  0  0  0
    7.0269   -4.2178   -1.6404 O   0  0  0  0  0  0  0  0  0  0  0  0
  1  2  1  0  0  0  0
  3  2  1  1  0  0  0
  3  4  1  0  0  0  0
  3  5  1  0  0  0  0
  4  8  1  0  0  0  0
  5  6  1  0  0  0  0
  5 12  1  6  0  0  0
  6  7  1  6  0  0  0
  6  8  1  0  0  0  0
  8 41  1  1  0  0  0
  9 10  1  0  0  0  0
  9 17  1  0  0  0  0
  9 19  1  6  0  0  0
 10 11  1  0  0  0  0
 11 12  1  6  0  0  0
 11 13  1  0  0  0  0
 13 14  1  6  0  0  0
 13 15  1  0  0  0  0
 15 16  1  1  0  0  0
 15 17  1  0  0  0  0
 17 18  1  6  0  0  0
 19 20  1  0  0  0  0
 21 22  1  0  0  0  0
 21 29  1  0  0  0  0
 21 31  1  1  0  0  0
 22 23  1  0  0  0  0
 23 24  1  6  0  0  0
 23 25  1  0  0  0  0
 25 26  1  6  0  0  0
 25 27  1  0  0  0  0
 27 28  1  6  0  0  0
 27 29  1  0  0  0  0
 29 30  1  6  0  0  0
 31 32  1  0  0  0  0
 33 34  1  0  0  0  0
 33 38  1  0  0  0  0
 33 39  1  1  0  0  0
 34 35  1  0  0  0  0
 35 36  1  0  0  0  0
 35 40  1  6  0  0  0
 36 24  1  6  0  0  0
 36 37  1  0  0  0  0
 37 38  1  0  0  0  0
 37 41  1  6  0  0  0
 38 42  1  6  0  0  0
M  CHG  6  14   1  20   1  26   1  32   1  39   1  40   1
M  END
>  <CHROM.1>
-174.34483402,65.09740805,-102.87055419,-67.22613483,-27.08777396,-24.45355279
-178.71298183,75.03095525,-169.37900546,52.76115430,64.27047547,131.79054239
50.33671971,42.55741483,-175.27597847,-61.89971819,56.85275990,173.47609821
-71.07829507,-172.46412262,-44.32345678,41.69412282,8.85983982,-3.36050916
-2.91656363,-1.17384469,0.76495635,-2.79324038

>  <Name>


>  <RI>
0

>  <Rbt.Current_Directory>
/home/itssahil/PROJECTS/Mol_Feturizer/New_Systems/rnas/1qd3

>  <Rbt.Executable>
rbdock ($Id: //depot/dev/client3/rdock/2013.1/src/exe/rbdock.cxx#4 $)

>  <Rbt.Library>
libRbt.so (2013.1, Build901 2013/11/27)

>  <Rbt.Parameter_File>
/export/apps/rDock/src/rDock_2013.1_src/data/scripts/dock_solv.prm

>  <Rbt.Receptor>
prm/pocket_docking_4.prm

>  <SCORE>
-51.9322

>  <SCORE.INTER>
-36.4144

>  <SCORE.INTER.CONST>
1

>  <SCORE.INTER.POLAR>
-6.59057

>  <SCORE.INTER.ROT>
9

>  <SCORE.INTER.SOLV>
32.8242

>  <SCORE.INTER.VDW>
-22.8491

>  <SCORE.INTER.norm>
-0.867009

>  <SCORE.INTRA>
-15.5277

>  <SCORE.INTRA.DIHEDRAL>
-14.0145

>  <SCORE.INTRA.DIHEDRAL.0>
40.6252

>  <SCORE.INTRA.POLAR>
0.235345

>  <SCORE.INTRA.POLAR.0>
-1.20161

>  <SCORE.INTRA.REPUL>
-0.115675

>  <SCORE.INTRA.REPUL.0>
0.115675

>  <SCORE.INTRA.SOLV>
-7.08347

>  <SCORE.INTRA.SOLV.lig_0>
-154.895

>  <SCORE.INTRA.VDW>
-5.20049

>  <SCORE.INTRA.VDW.0>
2.2925

>  <SCORE.INTRA.norm>
-0.369707

>  <SCORE.RESTR>
0.00989366

>  <SCORE.RESTR.CAVITY>
0.00989366

>  <SCORE.RESTR.norm>
0.000235563

>  <SCORE.SYSTEM>
0

>  <SCORE.SYSTEM.CONST>
0

>  <SCORE.SYSTEM.DIHEDRAL>
0

>  <SCORE.SYSTEM.SOLV>
0

>  <SCORE.SYSTEM.norm>
0

>  <SCORE.heavy>
42

>  <SCORE.norm>
-1.23648

>  <RMSD>
9.528

$$$$

 OpenBabel11021811413D
libRbt.so/2013.1/901 2013/11/27
 42 45  0  0  0  0  0  0  0  0999 V2000
    9.3903    2.9372    0.6995 O   0  0  0  0  0  0  0  0  0  0  0  0
   10.1036    1.9073    0.0300 C   0  0  0  0  0  0  0  0  0  0  0  0
    9.1193    0.9159   -0.5918 C   0  0  1  0  0  0  0  0  0  0  0  0
    9.7995   -0.0436   -1.4298 O   0  0  0  0  0  0  0  0  0  0  0  0
    8.3558    0.0982    0.4367 C   0  0  2  0  0  0  0  0  0  0  0  0
    7.8913   -1.0650   -0.4236 C   0  0  1  0  0  0  0  0  0  0  0  0
    6.7854   -0.6603   -1.2230 O   0  0  0  0  0  0  0  0  0  0  0  0
    9.1203   -1.3201   -1.3198 C   0  0  2  0  0  0  0  0  0  0  0  0
    6.9592    3.2508    3.7277 C   0  0  2  0  0  0  0  0  0  0  0  0
    6.5991    2.4909    2.5639 O   0  0  0  0  0  0  0  0  0  0  0  0
    7.6230    1.5478    2.1996 C   0  0  2  0  0  0  0  0  0  0  0  0
    7.2559    0.8433    0.9952 O   0  0  0  0  0  0  0  0  0  0  0  0
    7.8764    0.5522    3.3446 C   0  0  2  0  0  0  0  0  0  0  0  0
    6.8196   -0.4406    3.4069 N   0  3  0  0  0  0  0  0  0  0  0  0
    8.0521    1.2358    4.7057 C   0  0  1  0  0  0  0  0  0  0  0  0
    9.3557    1.7893    4.7899 O   0  0  0  0  0  0  0  0  0  0  0  0
    7.0157    2.3313    4.9409 C   0  0  2  0  0  0  0  0  0  0  0  0
    5.7385    1.7493    5.1742 O   0  0  0  0  0  0  0  0  0  0  0  0
    5.9686    4.3893    3.9545 C   0  0  0  0  0  0  0  0  0  0  0  0
    5.8892    4.7181    5.3653 N   0  3  0  0  0  0  0  0  0  0  0  0
    7.3691   -6.6012   -3.5686 C   0  0  1  0  0  0  0  0  0  0  0  0
    8.0865   -5.7357   -4.4733 O   0  0  0  0  0  0  0  0  0  0  0  0
    8.1091   -4.3540   -4.0470 C   0  0  2  0  0  0  0  0  0  0  0  0
    8.8562   -4.1765   -2.8182 O   0  0  0  0  0  0  0  0  0  0  0  0
    6.6830   -3.8070   -3.9108 C   0  0  2  0  0  0  0  0  0  0  0  0
    6.7120   -2.4982   -3.2847 N   0  3  0  0  0  0  0  0  0  0  0  0
    5.7974   -4.7364   -3.0883 C   0  0  1  0  0  0  0  0  0  0  0  0
    4.4448   -4.3181   -3.1859 O   0  0  0  0  0  0  0  0  0  0  0  0
    5.9058   -6.1946   -3.5069 C   0  0  2  0  0  0  0  0  0  0  0  0
    5.2089   -7.0246   -2.5893 O   0  0  0  0  0  0  0  0  0  0  0  0
    7.4287   -8.0423   -4.0670 C   0  0  0  0  0  0  0  0  0  0  0  0
    8.7562   -8.5975   -3.8769 N   0  3  0  0  0  0  0  0  0  0  0  0
   13.0089   -3.2518   -2.8083 C   0  0  2  0  0  0  0  0  0  0  0  0
   12.2666   -3.1794   -4.1280 C   0  0  0  0  0  0  0  0  0  0  0  0
   10.9406   -3.9113   -4.0329 C   0  0  1  0  0  0  0  0  0  0  0  0
   10.0087   -3.3088   -2.9805 C   0  0  2  0  0  0  0  0  0  0  0  0
   10.7373   -3.1416   -1.6270 C   0  0  1  0  0  0  0  0  0  0  0  0
   12.1826   -2.6303   -1.6903 C   0  0  1  0  0  0  0  0  0  0  0  0
   14.2732   -2.5508   -2.9274 N   0  3  0  0  0  0  0  0  0  0  0  0
   10.3063   -3.9086   -5.3368 N   0  3  0  0  0  0  0  0  0  0  0  0
    9.9657   -2.3340   -0.7043 O   0  0  0  0  0  0  0  0  0  0  0  0
   12.8263   -2.8486   -0.4393 O   0  0  0  0  0  0  0  0  0  0  0  0
  1  2  1  0  0  0  0
  3  2  1  1  0  0  0
  3  4  1  0  0  0  0
  3  5  1  0  0  0  0
  4  8  1  0  0  0  0
  5  6  1  0  0  0  0
  5 12  1  6  0  0  0
  6  7  1  6  0  0  0
  6  8  1  0  0  0  0
  8 41  1  1  0  0  0
  9 10  1  0  0  0  0
  9 17  1  0  0  0  0
  9 19  1  1  0  0  0
 10 11  1  0  0  0  0
 11 12  1  6  0  0  0
 11 13  1  0  0  0  0
 13 14  1  1  0  0  0
 13 15  1  0  0  0  0
 15 16  1  6  0  0  0
 15 17  1  0  0  0  0
 17 18  1  6  0  0  0
 19 20  1  0  0  0  0
 21 22  1  0  0  0  0
 21 29  1  0  0  0  0
 21 31  1  6  0  0  0
 22 23  1  0  0  0  0
 23 24  1  1  0  0  0
 23 25  1  0  0  0  0
 25 26  1  1  0  0  0
 25 27  1  0  0  0  0
 27 28  1  6  0  0  0
 27 29  1  0  0  0  0
 29 30  1  1  0  0  0
 31 32  1  0  0  0  0
 33 34  1  0  0  0  0
 33 38  1  0  0  0  0
 33 39  1  6  0  0  0
 34 35  1  0  0  0  0
 35 36  1  0  0  0  0
 35 40  1  6  0  0  0
 36 24  1  1  0  0  0
 36 37  1  0  0  0  0
 37 38  1  0  0  0  0
 37 41  1  1  0  0  0
 38 42  1  1  0  0  0
M  CHG  6  14   1  20   1  26   1  32   1  39   1  40   1
M  END
>  <CHROM.1>
-56.03290665,172.30377003,-92.26870912,-78.17134808,-92.27685942,151.59582559
167.85698953,51.41342561,-159.07628458,-67.97651247,16.98014490,72.48836293
118.30357149,-59.39944493,-62.79907408,-162.25140553,158.90473920,-177.49797448
-69.17342262,-84.80983740,-30.40203237,-172.22798976,8.44187835,-1.65488192
-0.63399291,-1.71251525,-0.25304017,-2.41804561

>  <Name>


>  <RI>
0

>  <Rbt.Current_Directory>
/home/itssahil/PROJECTS/Mol_Feturizer/New_Systems/rnas/1qd3

>  <Rbt.Executable>
rbdock ($Id: //depot/dev/client3/rdock/2013.1/src/exe/rbdock.cxx#4 $)

>  <Rbt.Library>
libRbt.so (2013.1, Build901 2013/11/27)

>  <Rbt.Parameter_File>
/export/apps/rDock/src/rDock_2013.1_src/data/scripts/dock_solv.prm

>  <Rbt.Receptor>
prm/pocket_docking_3.prm

>  <SCORE>
-38.3424

>  <SCORE.INTER>
-36.4907

>  <SCORE.INTER.CONST>
1

>  <SCORE.INTER.POLAR>
-5.61978

>  <SCORE.INTER.ROT>
9

>  <SCORE.INTER.SOLV>
40.7996

>  <SCORE.INTER.VDW>
-28.7944

>  <SCORE.INTER.norm>
-0.868826

>  <SCORE.INTRA>
-2.698

>  <SCORE.INTRA.DIHEDRAL>
-4.68239

>  <SCORE.INTRA.DIHEDRAL.0>
40.6252

>  <SCORE.INTRA.POLAR>
0.374616

>  <SCORE.INTRA.POLAR.0>
-1.20161

>  <SCORE.INTRA.REPUL>
-0.074143

>  <SCORE.INTRA.REPUL.0>
0.115675

>  <SCORE.INTRA.SOLV>
-3.49451

>  <SCORE.INTRA.SOLV.lig_0>
-154.895

>  <SCORE.INTRA.VDW>
0.487474

>  <SCORE.INTRA.VDW.0>
2.2925

>  <SCORE.INTRA.norm>
-0.064238

>  <SCORE.RESTR>
0.846246

>  <SCORE.RESTR.CAVITY>
0.846246

>  <SCORE.RESTR.norm>
0.0201487

>  <SCORE.SYSTEM>
0

>  <SCORE.SYSTEM.CONST>
0

>  <SCORE.SYSTEM.DIHEDRAL>
0

>  <SCORE.SYSTEM.SOLV>
0

>  <SCORE.SYSTEM.norm>
0

>  <SCORE.heavy>
42

>  <SCORE.norm>
-0.912915

>  <RMSD>
9.540

$$$$

 OpenBabel11021811413D
libRbt.so/2013.1/901 2013/11/27
 42 45  0  0  0  0  0  0  0  0999 V2000
    8.3624    0.6149   -2.5370 O   0  0  0  0  0  0  0  0  0  0  0  0
    8.4761    0.6003   -1.1212 C   0  0  0  0  0  0  0  0  0  0  0  0
    7.5877   -0.5013   -0.5419 C   0  0  1  0  0  0  0  0  0  0  0  0
    7.5902   -1.6748   -1.3836 O   0  0  0  0  0  0  0  0  0  0  0  0
    8.0336   -0.9766    0.8309 C   0  0  2  0  0  0  0  0  0  0  0  0
    7.3328   -2.3231    0.8990 C   0  0  1  0  0  0  0  0  0  0  0  0
    5.9523   -2.1327    1.1885 O   0  0  0  0  0  0  0  0  0  0  0  0
    7.4984   -2.8511   -0.5406 C   0  0  2  0  0  0  0  0  0  0  0  0
    9.5926    2.9501    1.4067 C   0  0  2  0  0  0  0  0  0  0  0  0
    8.5819    1.9591    1.1656 O   0  0  0  0  0  0  0  0  0  0  0  0
    8.5857    0.9314    2.1729 C   0  0  2  0  0  0  0  0  0  0  0  0
    7.5994   -0.0770    1.8698 O   0  0  0  0  0  0  0  0  0  0  0  0
    8.3237    1.5336    3.5640 C   0  0  2  0  0  0  0  0  0  0  0  0
    6.9181    1.8547    3.7296 N   0  3  0  0  0  0  0  0  0  0  0  0
    9.1935    2.7612    3.8595 C   0  0  1  0  0  0  0  0  0  0  0  0
   10.5044    2.3386    4.1999 O   0  0  0  0  0  0  0  0  0  0  0  0
    9.2579    3.7229    2.6761 C   0  0  2  0  0  0  0  0  0  0  0  0
    8.0118    4.3935    2.5271 O   0  0  0  0  0  0  0  0  0  0  0  0
    9.7166    3.8931    0.2133 C   0  0  0  0  0  0  0  0  0  0  0  0
   10.6943    3.3879   -0.7321 N   0  3  0  0  0  0  0  0  0  0  0  0
    8.4569   -5.4409   -4.9237 C   0  0  1  0  0  0  0  0  0  0  0  0
    8.3325   -4.3316   -4.0093 O   0  0  0  0  0  0  0  0  0  0  0  0
    7.0969   -4.3446   -3.2579 C   0  0  2  0  0  0  0  0  0  0  0  0
    7.0208   -5.4766   -2.3566 O   0  0  0  0  0  0  0  0  0  0  0  0
    5.8895   -4.3079   -4.2025 C   0  0  2  0  0  0  0  0  0  0  0  0
    4.6673   -4.5333   -3.4534 N   0  3  0  0  0  0  0  0  0  0  0  0
    6.0021   -5.3555   -5.3045 C   0  0  1  0  0  0  0  0  0  0  0  0
    4.9966   -5.1322   -6.2809 O   0  0  0  0  0  0  0  0  0  0  0  0
    7.3652   -5.3727   -5.9791 C   0  0  2  0  0  0  0  0  0  0  0  0
    7.4674   -6.4844   -6.8568 O   0  0  0  0  0  0  0  0  0  0  0  0
    9.8012   -5.3764   -5.6431 C   0  0  0  0  0  0  0  0  0  0  0  0
   10.8939   -5.3397   -4.6885 N   0  3  0  0  0  0  0  0  0  0  0  0
    9.5885   -7.1793    0.5773 C   0  0  2  0  0  0  0  0  0  0  0  0
    9.6012   -7.7797   -0.8146 C   0  0  0  0  0  0  0  0  0  0  0  0
    8.3756   -7.3405   -1.5942 C   0  0  1  0  0  0  0  0  0  0  0  0
    8.3068   -5.8240   -1.7794 C   0  0  2  0  0  0  0  0  0  0  0  0
    8.4935   -5.0926   -0.4299 C   0  0  1  0  0  0  0  0  0  0  0  0
    9.5680   -5.6583    0.5080 C   0  0  1  0  0  0  0  0  0  0  0  0
   10.7655   -7.6185    1.3023 N   0  3  0  0  0  0  0  0  0  0  0  0
    8.3691   -8.0117   -2.8794 N   0  3  0  0  0  0  0  0  0  0  0  0
    8.6996   -3.6712   -0.6197 O   0  0  0  0  0  0  0  0  0  0  0  0
    9.3982   -5.1204    1.8153 O   0  0  0  0  0  0  0  0  0  0  0  0
  1  2  1  0  0  0  0
  3  2  1  6  0  0  0
  3  4  1  0  0  0  0
  3  5  1  0  0  0  0
  4  8  1  0  0  0  0
  5  6  1  0  0  0  0
  5 12  1  1  0  0  0
  6  7  1  6  0  0  0
  6  8  1  0  0  0  0
  8 41  1  1  0  0  0
  9 10  1  0  0  0  0
  9 17  1  0  0  0  0
  9 19  1  6  0  0  0
 10 11  1  0  0  0  0
 11 12  1  6  0  0  0
 11 13  1  0  0  0  0
 13 14  1  6  0  0  0
 13 15  1  0  0  0  0
 15 16  1  6  0  0  0
 15 17  1  0  0  0  0
 17 18  1  6  0  0  0
 19 20  1  0  0  0  0
 21 22  1  0  0  0  0
 21 29  1  0  0  0  0
 21 31  1  6  0  0  0
 22 23  1  0  0  0  0
 23 24  1  6  0  0  0
 23 25  1  0  0  0  0
 25 26  1  1  0  0  0
 25 27  1  0  0  0  0
 27 28  1  6  0  0  0
 27 29  1  0  0  0  0
 29 30  1  6  0  0  0
 31 32  1  0  0  0  0
 33 34  1  0  0  0  0
 33 38  1  0  0  0  0
 33 39  1  1  0  0  0
 34 35  1  0  0  0  0
 35 36  1  0  0  0  0
 35 40  1  6  0  0  0
 36 24  1  1  0  0  0
 36 37  1  0  0  0  0
 37 38  1  0  0  0  0
 37 41  1  6  0  0  0
 38 42  1  1  0  0  0
M  CHG  6  14   1  20   1  26   1  32   1  39   1  40   1
M  END
>  <CHROM.1>
174.06021505,37.49721422,-92.09878699,-63.92503262,-149.34903660,-90.09996671
77.20650587,113.80501093,-175.95755838,64.08889805,30.52654047,55.90315414
35.74856402,-145.87482772,-123.86061122,51.01685820,-66.15494035,-170.30359187
-61.32363083,78.35764058,93.89730168,-57.96574748,8.25878065,-2.47334227
-0.90258792,1.28674343,-1.25235289,0.34162293

>  <Name>


>  <RI>
0

>  <Rbt.Current_Directory>
/home/itssahil/PROJECTS/Mol_Feturizer/New_Systems/rnas/1qd3

>  <Rbt.Executable>
rbdock ($Id: //depot/dev/client3/rdock/2013.1/src/exe/rbdock.cxx#4 $)

>  <Rbt.Library>
libRbt.so (2013.1, Build901 2013/11/27)

>  <Rbt.Parameter_File>
/export/apps/rDock/src/rDock_2013.1_src/data/scripts/dock_solv.prm

>  <Rbt.Receptor>
prm/pocket_docking_7.prm

>  <SCORE>
-63.6304

>  <SCORE.INTER>
-50.4919

>  <SCORE.INTER.CONST>
1

>  <SCORE.INTER.POLAR>
-8.14447

>  <SCORE.INTER.ROT>
9

>  <SCORE.INTER.SOLV>
36.8963

>  <SCORE.INTER.VDW>
-28.4118

>  <SCORE.INTER.norm>
-1.20219

>  <SCORE.INTRA>
-13.1385

>  <SCORE.INTRA.DIHEDRAL>
-6.17068

>  <SCORE.INTRA.DIHEDRAL.0>
40.6252

>  <SCORE.INTRA.POLAR>
1.15493

>  <SCORE.INTRA.POLAR.0>
-1.20161

>  <SCORE.INTRA.REPUL>
-0.115675

>  <SCORE.INTRA.REPUL.0>
0.115675

>  <SCORE.INTRA.SOLV>
-12.0383

>  <SCORE.INTRA.SOLV.lig_0>
-154.895

>  <SCORE.INTRA.VDW>
-7.38243

>  <SCORE.INTRA.VDW.0>
2.2925

>  <SCORE.INTRA.norm>
-0.312822

>  <SCORE.RESTR>
0

>  <SCORE.RESTR.CAVITY>
0

>  <SCORE.RESTR.norm>
0

>  <SCORE.SYSTEM>
0

>  <SCORE.SYSTEM.CONST>
0

>  <SCORE.SYSTEM.DIHEDRAL>
0

>  <SCORE.SYSTEM.SOLV>
0

>  <SCORE.SYSTEM.norm>
0

>  <SCORE.heavy>
42

>  <SCORE.norm>
-1.51501

>  <RMSD>
9.548

$$$$

 OpenBabel11021811413D
libRbt.so/2013.1/901 2013/11/27
 42 45  0  0  0  0  0  0  0  0999 V2000
    9.0224   -0.1869   -3.1240 O   0  0  0  0  0  0  0  0  0  0  0  0
    8.8648    0.1545   -1.7543 C   0  0  0  0  0  0  0  0  0  0  0  0
    8.0353   -0.9172   -1.0458 C   0  0  1  0  0  0  0  0  0  0  0  0
    8.3365   -2.2352   -1.5535 O   0  0  0  0  0  0  0  0  0  0  0  0
    8.2874   -0.9836    0.4513 C   0  0  2  0  0  0  0  0  0  0  0  0
    7.7629   -2.3761    0.7591 C   0  0  1  0  0  0  0  0  0  0  0  0
    6.3401   -2.3574    0.7934 O   0  0  0  0  0  0  0  0  0  0  0  0
    8.2472   -3.1851   -0.4614 C   0  0  2  0  0  0  0  0  0  0  0  0
    9.2147    3.2951    1.4113 C   0  0  2  0  0  0  0  0  0  0  0  0
    8.3169    2.2796    0.9378 O   0  0  0  0  0  0  0  0  0  0  0  0
    8.4369    1.0610    1.6937 C   0  0  2  0  0  0  0  0  0  0  0  0
    7.5649    0.0449    1.1563 O   0  0  0  0  0  0  0  0  0  0  0  0
    8.1171    1.3090    3.1779 C   0  0  2  0  0  0  0  0  0  0  0  0
    6.6855    1.4330    3.3823 N   0  3  0  0  0  0  0  0  0  0  0  0
    8.8494    2.5267    3.7538 C   0  0  1  0  0  0  0  0  0  0  0  0
   10.2000    2.1821    4.0186 O   0  0  0  0  0  0  0  0  0  0  0  0
    8.8035    3.7275    2.8129 C   0  0  2  0  0  0  0  0  0  0  0  0
    7.4912    4.2771    2.7906 O   0  0  0  0  0  0  0  0  0  0  0  0
    9.2302    4.4864    0.4577 C   0  0  0  0  0  0  0  0  0  0  0  0
    9.7132    5.6735    1.1379 N   0  3  0  0  0  0  0  0  0  0  0  0
   12.4417   -4.4053   -3.3907 C   0  0  1  0  0  0  0  0  0  0  0  0
   11.3794   -3.8685   -2.5750 O   0  0  0  0  0  0  0  0  0  0  0  0
   10.1521   -4.6288   -2.6597 C   0  0  2  0  0  0  0  0  0  0  0  0
   10.2991   -5.9610   -2.1090 O   0  0  0  0  0  0  0  0  0  0  0  0
    9.6477   -4.6813   -4.1070 C   0  0  2  0  0  0  0  0  0  0  0  0
    8.5421   -5.6152   -4.2127 N   0  3  0  0  0  0  0  0  0  0  0  0
   10.7498   -5.0981   -5.0747 C   0  0  1  0  0  0  0  0  0  0  0  0
   10.3108   -4.9059   -6.4105 O   0  0  0  0  0  0  0  0  0  0  0  0
   12.0539   -4.3456   -4.8591 C   0  0  2  0  0  0  0  0  0  0  0  0
   13.0853   -4.9068   -5.6577 O   0  0  0  0  0  0  0  0  0  0  0  0
   13.7086   -3.5735   -3.2121 C   0  0  0  0  0  0  0  0  0  0  0  0
   14.1776   -3.6393   -1.8401 N   0  3  0  0  0  0  0  0  0  0  0  0
    9.6728   -6.9379    1.9840 C   0  0  2  0  0  0  0  0  0  0  0  0
   10.9060   -7.4942    1.2999 C   0  0  0  0  0  0  0  0  0  0  0  0
   10.7676   -7.3953   -0.2080 C   0  0  1  0  0  0  0  0  0  0  0  0
   10.6193   -5.9525   -0.6931 C   0  0  2  0  0  0  0  0  0  0  0  0
    9.5108   -5.2153    0.0934 C   0  0  1  0  0  0  0  0  0  0  0  0
    9.4576   -5.4792    1.6041 C   0  0  1  0  0  0  0  0  0  0  0  0
    9.8278   -7.0494    3.4219 N   0  3  0  0  0  0  0  0  0  0  0  0
   11.9158   -8.0263   -0.8291 N   0  3  0  0  0  0  0  0  0  0  0  0
    9.5378   -3.7892   -0.1601 O   0  0  0  0  0  0  0  0  0  0  0  0
    8.2146   -5.0247    2.1291 O   0  0  0  0  0  0  0  0  0  0  0  0
  1  2  1  0  0  0  0
  3  2  1  6  0  0  0
  3  4  1  0  0  0  0
  3  5  1  0  0  0  0
  4  8  1  0  0  0  0
  5  6  1  0  0  0  0
  5 12  1  1  0  0  0
  6  7  1  6  0  0  0
  6  8  1  0  0  0  0
  8 41  1  1  0  0  0
  9 10  1  0  0  0  0
  9 17  1  0  0  0  0
  9 19  1  6  0  0  0
 10 11  1  0  0  0  0
 11 12  1  6  0  0  0
 11 13  1  0  0  0  0
 13 14  1  6  0  0  0
 13 15  1  0  0  0  0
 15 16  1  6  0  0  0
 15 17  1  0  0  0  0
 17 18  1  6  0  0  0
 19 20  1  0  0  0  0
 21 22  1  0  0  0  0
 21 29  1  0  0  0  0
 21 31  1  6  0  0  0
 22 23  1  0  0  0  0
 23 24  1  6  0  0  0
 23 25  1  0  0  0  0
 25 26  1  1  0  0  0
 25 27  1  0  0  0  0
 27 28  1  6  0  0  0
 27 29  1  0  0  0  0
 29 30  1  6  0  0  0
 31 32  1  0  0  0  0
 33 34  1  0  0  0  0
 33 38  1  0  0  0  0
 33 39  1  1  0  0  0
 34 35  1  0  0  0  0
 35 36  1  0  0  0  0
 35 40  1  6  0  0  0
 36 24  1  6  0  0  0
 36 37  1  0  0  0  0
 37 38  1  0  0  0  0
 37 41  1  1  0  0  0
 38 42  1  6  0  0  0
M  CHG  6  14   1  20   1  26   1  32   1  39   1  40   1
M  END
>  <CHROM.1>
130.93858750,36.50695602,-110.15209847,-38.73894487,-137.48928955,158.94217633
107.16391290,-174.53430635,-176.44624239,-56.27011327,149.07996622,62.86224648
62.63218871,-179.44689173,-52.24830268,-177.76013276,-72.11109850,-174.87929825
73.84359114,-56.98989614,132.75321264,58.77302918,9.63201382,-2.30192982
-0.39872434,-2.40930429,-1.21103612,2.83533763

>  <Name>


>  <RI>
0

>  <Rbt.Current_Directory>
/home/itssahil/PROJECTS/Mol_Feturizer/New_Systems/rnas/1qd3

>  <Rbt.Executable>
rbdock ($Id: //depot/dev/client3/rdock/2013.1/src/exe/rbdock.cxx#4 $)

>  <Rbt.Library>
libRbt.so (2013.1, Build901 2013/11/27)

>  <Rbt.Parameter_File>
/export/apps/rDock/src/rDock_2013.1_src/data/scripts/dock_solv.prm

>  <Rbt.Receptor>
prm/pocket_docking_8.prm

>  <SCORE>
-46.3965

>  <SCORE.INTER>
-34.8533

>  <SCORE.INTER.CONST>
1

>  <SCORE.INTER.POLAR>
-5.67726

>  <SCORE.INTER.ROT>
9

>  <SCORE.INTER.SOLV>
27.4135

>  <SCORE.INTER.VDW>
-23.0491

>  <SCORE.INTER.norm>
-0.82984

>  <SCORE.INTRA>
-11.5433

>  <SCORE.INTRA.DIHEDRAL>
0.439705

>  <SCORE.INTRA.DIHEDRAL.0>
40.6252

>  <SCORE.INTRA.POLAR>
0.883429

>  <SCORE.INTRA.POLAR.0>
-1.20161

>  <SCORE.INTRA.REPUL>
-0.115675

>  <SCORE.INTRA.REPUL.0>
0.115675

>  <SCORE.INTRA.SOLV>
-14.2289

>  <SCORE.INTRA.SOLV.lig_0>
-154.895

>  <SCORE.INTRA.VDW>
-7.07397

>  <SCORE.INTRA.VDW.0>
2.2925

>  <SCORE.INTRA.norm>
-0.27484

>  <SCORE.RESTR>
0

>  <SCORE.RESTR.CAVITY>
0

>  <SCORE.RESTR.norm>
0

>  <SCORE.SYSTEM>
0

>  <SCORE.SYSTEM.CONST>
0

>  <SCORE.SYSTEM.DIHEDRAL>
0

>  <SCORE.SYSTEM.SOLV>
0

>  <SCORE.SYSTEM.norm>
0

>  <SCORE.heavy>
42

>  <SCORE.norm>
-1.10468

>  <RMSD>
9.556

$$$$

 OpenBabel11021811413D
libRbt.so/2013.1/901 2013/11/27
 42 45  0  0  0  0  0  0  0  0999 V2000
   10.8878   -0.4762   -1.4795 O   0  0  0  0  0  0  0  0  0  0  0  0
    9.8780    0.2337   -2.1825 C   0  0  0  0  0  0  0  0  0  0  0  0
    8.5473   -0.5111   -2.0691 C   0  0  1  0  0  0  0  0  0  0  0  0
    8.5827   -1.7621   -2.7898 O   0  0  0  0  0  0  0  0  0  0  0  0
    8.1757   -0.8683   -0.6395 C   0  0  2  0  0  0  0  0  0  0  0  0
    7.1602   -1.9717   -0.8847 C   0  0  1  0  0  0  0  0  0  0  0  0
    5.9175   -1.4021   -1.2814 O   0  0  0  0  0  0  0  0  0  0  0  0
    7.7876   -2.7365   -2.0679 C   0  0  2  0  0  0  0  0  0  0  0  0
   10.6888    1.7679    1.3122 C   0  0  2  0  0  0  0  0  0  0  0  0
    9.7351    1.2476    0.3734 O   0  0  0  0  0  0  0  0  0  0  0  0
    8.5192    0.8282    1.0188 C   0  0  2  0  0  0  0  0  0  0  0  0
    7.6072    0.2580    0.0572 O   0  0  0  0  0  0  0  0  0  0  0  0
    7.8565    2.0094    1.7483 C   0  0  2  0  0  0  0  0  0  0  0  0
    7.1909    2.8890    0.8050 N   0  3  0  0  0  0  0  0  0  0  0  0
    8.8369    2.8013    2.6214 C   0  0  1  0  0  0  0  0  0  0  0  0
    9.0780    2.0884    3.8242 O   0  0  0  0  0  0  0  0  0  0  0  0
   10.1612    3.0659    1.9101 C   0  0  2  0  0  0  0  0  0  0  0  0
    9.9771    4.0373    0.8869 O   0  0  0  0  0  0  0  0  0  0  0  0
   12.0402    1.9897    0.6389 C   0  0  0  0  0  0  0  0  0  0  0  0
   13.1066    1.9625    1.6223 N   0  3  0  0  0  0  0  0  0  0  0  0
    8.6165   -6.4069   -5.0470 C   0  0  1  0  0  0  0  0  0  0  0  0
    8.5778   -5.1928   -4.2683 O   0  0  0  0  0  0  0  0  0  0  0  0
    7.2520   -4.8544   -3.8002 C   0  0  2  0  0  0  0  0  0  0  0  0
    6.7459   -5.8263   -2.8521 O   0  0  0  0  0  0  0  0  0  0  0  0
    6.2895   -4.6816   -4.9816 C   0  0  2  0  0  0  0  0  0  0  0  0
    4.9280   -4.5525   -4.4966 N   0  3  0  0  0  0  0  0  0  0  0  0
    6.3671   -5.8564   -5.9502 C   0  0  1  0  0  0  0  0  0  0  0  0
    5.6464   -5.5488   -7.1335 O   0  0  0  0  0  0  0  0  0  0  0  0
    7.7929   -6.2414   -6.3138 C   0  0  2  0  0  0  0  0  0  0  0  0
    7.8028   -7.4487   -7.0614 O   0  0  0  0  0  0  0  0  0  0  0  0
   10.0517   -6.7141   -5.4646 C   0  0  0  0  0  0  0  0  0  0  0  0
   10.6430   -5.5778   -6.1471 N   0  3  0  0  0  0  0  0  0  0  0  0
    7.9425   -6.3873    1.1918 C   0  0  2  0  0  0  0  0  0  0  0  0
    8.0003   -7.5817    0.2601 C   0  0  0  0  0  0  0  0  0  0  0  0
    7.1802   -7.3210   -0.9898 C   0  0  1  0  0  0  0  0  0  0  0  0
    7.6919   -6.1235   -1.7917 C   0  0  2  0  0  0  0  0  0  0  0  0
    7.8713   -4.8851   -0.8833 C   0  0  1  0  0  0  0  0  0  0  0  0
    8.4784   -5.1397    0.5027 C   0  0  1  0  0  0  0  0  0  0  0  0
    8.7284   -6.6639    2.3792 N   0  3  0  0  0  0  0  0  0  0  0  0
    7.1752   -8.5178   -1.8083 N   0  3  0  0  0  0  0  0  0  0  0  0
    8.6016   -3.8318   -1.5587 O   0  0  0  0  0  0  0  0  0  0  0  0
    8.2703   -4.0041    1.3359 O   0  0  0  0  0  0  0  0  0  0  0  0
  1  2  1  0  0  0  0
  3  2  1  1  0  0  0
  3  4  1  0  0  0  0
  3  5  1  0  0  0  0
  4  8  1  0  0  0  0
  5  6  1  0  0  0  0
  5 12  1  6  0  0  0
  6  7  1  6  0  0  0
  6  8  1  0  0  0  0
  8 41  1  1  0  0  0
  9 10  1  0  0  0  0
  9 17  1  0  0  0  0
  9 19  1  6  0  0  0
 10 11  1  0  0  0  0
 11 12  1  6  0  0  0
 11 13  1  0  0  0  0
 13 14  1  6  0  0  0
 13 15  1  0  0  0  0
 15 16  1  1  0  0  0
 15 17  1  0  0  0  0
 17 18  1  6  0  0  0
 19 20  1  0  0  0  0
 21 22  1  0  0  0  0
 21 29  1  0  0  0  0
 21 31  1  6  0  0  0
 22 23  1  0  0  0  0
 23 24  1  1  0  0  0
 23 25  1  0  0  0  0
 25 26  1  1  0  0  0
 25 27  1  0  0  0  0
 27 28  1  6  0  0  0
 27 29  1  0  0  0  0
 29 30  1  1  0  0  0
 31 32  1  0  0  0  0
 33 34  1  0  0  0  0
 33 38  1  0  0  0  0
 33 39  1  1  0  0  0
 34 35  1  0  0  0  0
 35 36  1  0  0  0  0
 35 40  1  6  0  0  0
 36 24  1  6  0  0  0
 36 37  1  0  0  0  0
 37 38  1  0  0  0  0
 37 41  1  6  0  0  0
 38 42  1  1  0  0  0
M  CHG  6  14   1  20   1  26   1  32   1  39   1  40   1
M  END
>  <CHROM.1>
-72.23324683,-68.13601759,-106.15918730,-179.94332491,-176.94769899,-156.06436063
58.20848860,-65.52082384,-171.25713666,-66.34137245,-179.06617013,-54.09350229
49.56160541,-170.23338311,151.24463259,-75.58197907,70.93136735,174.12134247
-35.01924769,-51.08006834,102.01416178,-58.35640639,8.39928613,-2.69592708
-1.47045854,-0.25087040,-1.35347124,-1.23172189

>  <Name>


>  <RI>
0

>  <Rbt.Current_Directory>
/home/itssahil/PROJECTS/Mol_Feturizer/New_Systems/rnas/1qd3

>  <Rbt.Executable>
rbdock ($Id: //depot/dev/client3/rdock/2013.1/src/exe/rbdock.cxx#4 $)

>  <Rbt.Library>
libRbt.so (2013.1, Build901 2013/11/27)

>  <Rbt.Parameter_File>
/export/apps/rDock/src/rDock_2013.1_src/data/scripts/dock_solv.prm

>  <Rbt.Receptor>
prm/pocket_docking_3.prm

>  <SCORE>
-52.1238

>  <SCORE.INTER>
-32.6743

>  <SCORE.INTER.CONST>
1

>  <SCORE.INTER.POLAR>
-5.11657

>  <SCORE.INTER.ROT>
9

>  <SCORE.INTER.SOLV>
36.0312

>  <SCORE.INTER.VDW>
-26.3381

>  <SCORE.INTER.norm>
-0.77796

>  <SCORE.INTRA>
-20.8469

>  <SCORE.INTRA.DIHEDRAL>
-16.6599

>  <SCORE.INTRA.DIHEDRAL.0>
40.6252

>  <SCORE.INTRA.POLAR>
0.395376

>  <SCORE.INTRA.POLAR.0>
-1.20161

>  <SCORE.INTRA.REPUL>
-0.115675

>  <SCORE.INTRA.REPUL.0>
0.115675

>  <SCORE.INTRA.SOLV>
-12.5659

>  <SCORE.INTRA.SOLV.lig_0>
-154.895

>  <SCORE.INTRA.VDW>
-6.99998

>  <SCORE.INTRA.VDW.0>
2.2925

>  <SCORE.INTRA.norm>
-0.496356

>  <SCORE.RESTR>
1.39747

>  <SCORE.RESTR.CAVITY>
1.39747

>  <SCORE.RESTR.norm>
0.0332732

>  <SCORE.SYSTEM>
0

>  <SCORE.SYSTEM.CONST>
0

>  <SCORE.SYSTEM.DIHEDRAL>
0

>  <SCORE.SYSTEM.SOLV>
0

>  <SCORE.SYSTEM.norm>
0

>  <SCORE.heavy>
42

>  <SCORE.norm>
-1.24104

>  <RMSD>
9.557

$$$$

 OpenBabel11021811413D
libRbt.so/2013.1/901 2013/11/27
 42 45  0  0  0  0  0  0  0  0999 V2000
   12.1347    1.4144   -1.7203 O   0  0  0  0  0  0  0  0  0  0  0  0
   11.5898    0.1989   -1.2272 C   0  0  0  0  0  0  0  0  0  0  0  0
   10.2648   -0.0975   -1.9308 C   0  0  1  0  0  0  0  0  0  0  0  0
   10.2639   -1.4188   -2.5136 O   0  0  0  0  0  0  0  0  0  0  0  0
    9.0646   -0.0560   -0.9995 C   0  0  2  0  0  0  0  0  0  0  0  0
    8.0547   -0.8473   -1.8136 C   0  0  1  0  0  0  0  0  0  0  0  0
    7.5316   -0.0311   -2.8557 O   0  0  0  0  0  0  0  0  0  0  0  0
    8.9260   -1.9694   -2.4140 C   0  0  2  0  0  0  0  0  0  0  0  0
   11.1068    3.5647    0.6930 C   0  0  2  0  0  0  0  0  0  0  0  0
   10.2754    2.9408   -0.2975 O   0  0  0  0  0  0  0  0  0  0  0  0
    9.4115    1.9434    0.2766 C   0  0  2  0  0  0  0  0  0  0  0  0
    8.6331    1.2965   -0.7516 O   0  0  0  0  0  0  0  0  0  0  0  0
    8.4853    2.5704    1.3328 C   0  0  2  0  0  0  0  0  0  0  0  0
    7.4077    3.3083    0.6997 N   0  3  0  0  0  0  0  0  0  0  0  0
    9.2322    3.4618    2.3320 C   0  0  1  0  0  0  0  0  0  0  0  0
    9.8993    2.6471    3.2828 O   0  0  0  0  0  0  0  0  0  0  0  0
   10.2418    4.3787    1.6468 C   0  0  2  0  0  0  0  0  0  0  0  0
    9.5606    5.4053    0.9352 O   0  0  0  0  0  0  0  0  0  0  0  0
   12.1629    4.4454    0.0314 C   0  0  0  0  0  0  0  0  0  0  0  0
   13.3062    3.6488   -0.3726 N   0  3  0  0  0  0  0  0  0  0  0  0
   11.7568   -8.2994   -1.1432 C   0  0  1  0  0  0  0  0  0  0  0  0
   10.6652   -7.9939   -0.2503 O   0  0  0  0  0  0  0  0  0  0  0  0
   10.4824   -6.5759   -0.0333 C   0  0  2  0  0  0  0  0  0  0  0  0
   10.0725   -5.8895   -1.2418 O   0  0  0  0  0  0  0  0  0  0  0  0
   11.7538   -5.9506    0.5535 C   0  0  2  0  0  0  0  0  0  0  0  0
   11.6331   -4.5046    0.5689 N   0  3  0  0  0  0  0  0  0  0  0  0
   12.9946   -6.3414   -0.2416 C   0  0  1  0  0  0  0  0  0  0  0  0
   14.1596   -5.9424    0.4638 O   0  0  0  0  0  0  0  0  0  0  0  0
   13.0712   -7.8307   -0.5407 C   0  0  2  0  0  0  0  0  0  0  0  0
   14.1400   -8.0999   -1.4362 O   0  0  0  0  0  0  0  0  0  0  0  0
   11.8547   -9.8079   -1.3516 C   0  0  0  0  0  0  0  0  0  0  0  0
   10.9739  -10.2371   -2.4224 N   0  3  0  0  0  0  0  0  0  0  0  0
    6.2598   -5.4384   -3.0745 C   0  0  2  0  0  0  0  0  0  0  0  0
    6.4206   -6.5177   -2.0222 C   0  0  0  0  0  0  0  0  0  0  0  0
    7.8901   -6.8065   -1.7773 C   0  0  1  0  0  0  0  0  0  0  0  0
    8.6532   -5.5852   -1.2625 C   0  0  2  0  0  0  0  0  0  0  0  0
    8.3917   -4.3516   -2.1573 C   0  0  1  0  0  0  0  0  0  0  0  0
    6.9480   -4.1524   -2.6372 C   0  0  1  0  0  0  0  0  0  0  0  0
    4.8484   -5.1857   -3.2938 N   0  3  0  0  0  0  0  0  0  0  0  0
    8.0043   -7.9098   -0.8434 N   0  3  0  0  0  0  0  0  0  0  0  0
    8.8819   -3.1351   -1.5419 O   0  0  0  0  0  0  0  0  0  0  0  0
    6.9200   -3.2071   -3.7015 O   0  0  0  0  0  0  0  0  0  0  0  0
  1  2  1  0  0  0  0
  3  2  1  1  0  0  0
  3  4  1  0  0  0  0
  3  5  1  0  0  0  0
  4  8  1  0  0  0  0
  5  6  1  0  0  0  0
  5 12  1  6  0  0  0
  6  7  1  6  0  0  0
  6  8  1  0  0  0  0
  8 41  1  1  0  0  0
  9 10  1  0  0  0  0
  9 17  1  0  0  0  0
  9 19  1  6  0  0  0
 10 11  1  0  0  0  0
 11 12  1  6  0  0  0
 11 13  1  0  0  0  0
 13 14  1  6  0  0  0
 13 15  1  0  0  0  0
 15 16  1  1  0  0  0
 15 17  1  0  0  0  0
 17 18  1  6  0  0  0
 19 20  1  0  0  0  0
 21 22  1  0  0  0  0
 21 29  1  0  0  0  0
 21 31  1  1  0  0  0
 22 23  1  0  0  0  0
 23 24  1  6  0  0  0
 23 25  1  0  0  0  0
 25 26  1  6  0  0  0
 25 27  1  0  0  0  0
 27 28  1  1  0  0  0
 27 29  1  0  0  0  0
 29 30  1  6  0  0  0
 31 32  1  0  0  0  0
 33 34  1  0  0  0  0
 33 38  1  0  0  0  0
 33 39  1  1  0  0  0
 34 35  1  0  0  0  0
 35 36  1  0  0  0  0
 35 40  1  1  0  0  0
 36 24  1  6  0  0  0
 36 37  1  0  0  0  0
 37 38  1  0  0  0  0
 37 41  1  1  0  0  0
 38 42  1  6  0  0  0
M  CHG  6  14   1  20   1  26   1  32   1  39   1  40   1
M  END
>  <CHROM.1>
-51.82514280,126.39013447,-82.14874717,92.57066532,-121.82197023,-83.62194589
108.05521575,77.06570951,-64.50602899,51.66945860,61.99409891,86.00644340
102.27249978,-84.57433603,-50.87252368,-66.90008561,57.04268840,77.95757761
162.63244270,169.21800823,168.16777355,-58.13488482,9.87805729,-2.43209422
-0.85235052,-1.60470323,0.36502500,-2.96729153

>  <Name>


>  <RI>
0

>  <Rbt.Current_Directory>
/home/itssahil/PROJECTS/Mol_Feturizer/New_Systems/rnas/1qd3

>  <Rbt.Executable>
rbdock ($Id: //depot/dev/client3/rdock/2013.1/src/exe/rbdock.cxx#4 $)

>  <Rbt.Library>
libRbt.so (2013.1, Build901 2013/11/27)

>  <Rbt.Parameter_File>
/export/apps/rDock/src/rDock_2013.1_src/data/scripts/dock_solv.prm

>  <Rbt.Receptor>
prm/pocket_docking_7.prm

>  <SCORE>
-46.5148

>  <SCORE.INTER>
-32.3796

>  <SCORE.INTER.CONST>
1

>  <SCORE.INTER.POLAR>
-5.89296

>  <SCORE.INTER.ROT>
9

>  <SCORE.INTER.SOLV>
30.9239

>  <SCORE.INTER.VDW>
-21.8512

>  <SCORE.INTER.norm>
-0.770943

>  <SCORE.INTRA>
-14.162

>  <SCORE.INTRA.DIHEDRAL>
1.59172

>  <SCORE.INTRA.DIHEDRAL.0>
40.6252

>  <SCORE.INTRA.POLAR>
-1.16927

>  <SCORE.INTRA.POLAR.0>
-1.20161

>  <SCORE.INTRA.REPUL>
-0.110191

>  <SCORE.INTRA.REPUL.0>
0.115675

>  <SCORE.INTRA.SOLV>
-5.77271

>  <SCORE.INTRA.SOLV.lig_0>
-154.895

>  <SCORE.INTRA.VDW>
-7.54505

>  <SCORE.INTRA.VDW.0>
2.2925

>  <SCORE.INTRA.norm>
-0.337191

>  <SCORE.RESTR>
0.0268097

>  <SCORE.RESTR.CAVITY>
0.0268097

>  <SCORE.RESTR.norm>
0.000638325

>  <SCORE.SYSTEM>
0

>  <SCORE.SYSTEM.CONST>
0

>  <SCORE.SYSTEM.DIHEDRAL>
0

>  <SCORE.SYSTEM.SOLV>
0

>  <SCORE.SYSTEM.norm>
0

>  <SCORE.heavy>
42

>  <SCORE.norm>
-1.1075

>  <RMSD>
9.560

$$$$

 OpenBabel11021811413D
libRbt.so/2013.1/901 2013/11/27
 42 45  0  0  0  0  0  0  0  0999 V2000
   11.5108   -2.3478   -0.9180 O   0  0  0  0  0  0  0  0  0  0  0  0
   11.4428   -1.7857   -2.2207 C   0  0  0  0  0  0  0  0  0  0  0  0
   10.0296   -1.2657   -2.4870 C   0  0  1  0  0  0  0  0  0  0  0  0
    9.1891   -2.2951   -3.0522 O   0  0  0  0  0  0  0  0  0  0  0  0
    9.3149   -0.7914   -1.2325 C   0  0  2  0  0  0  0  0  0  0  0  0
    7.8711   -0.8310   -1.7044 C   0  0  1  0  0  0  0  0  0  0  0  0
    7.6037    0.2975   -2.5296 O   0  0  0  0  0  0  0  0  0  0  0  0
    7.8394   -2.1192   -2.5520 C   0  0  2  0  0  0  0  0  0  0  0  0
    7.7094    0.8746    2.1693 C   0  0  2  0  0  0  0  0  0  0  0  0
    8.6519    0.3156    1.2415 O   0  0  0  0  0  0  0  0  0  0  0  0
    8.8268    1.1519    0.0835 C   0  0  2  0  0  0  0  0  0  0  0  0
    9.7338    0.5345   -0.8535 O   0  0  0  0  0  0  0  0  0  0  0  0
    9.3444    2.5420    0.4910 C   0  0  2  0  0  0  0  0  0  0  0  0
   10.7586    2.4908    0.8131 N   0  3  0  0  0  0  0  0  0  0  0  0
    8.5520    3.1615    1.6482 C   0  0  1  0  0  0  0  0  0  0  0  0
    7.3234    3.6734    1.1568 O   0  0  0  0  0  0  0  0  0  0  0  0
    8.2772    2.1570    2.7640 C   0  0  2  0  0  0  0  0  0  0  0  0
    9.4789    1.8780    3.4729 O   0  0  0  0  0  0  0  0  0  0  0  0
    7.3740   -0.1313    3.2668 C   0  0  0  0  0  0  0  0  0  0  0  0
    6.4027   -1.0973    2.7890 N   0  3  0  0  0  0  0  0  0  0  0  0
    6.8773   -6.8674   -6.3340 C   0  0  1  0  0  0  0  0  0  0  0  0
    7.3046   -5.4976   -6.1818 O   0  0  0  0  0  0  0  0  0  0  0  0
    6.6819   -4.8241   -5.0638 C   0  0  2  0  0  0  0  0  0  0  0  0
    7.0798   -5.3975   -3.7939 O   0  0  0  0  0  0  0  0  0  0  0  0
    5.1559   -4.8225   -5.2157 C   0  0  2  0  0  0  0  0  0  0  0  0
    4.5371   -4.3363   -3.9965 N   0  3  0  0  0  0  0  0  0  0  0  0
    4.6178   -6.2139   -5.5303 C   0  0  1  0  0  0  0  0  0  0  0  0
    3.2486   -6.1261   -5.8934 O   0  0  0  0  0  0  0  0  0  0  0  0
    5.3885   -6.9196   -6.6355 C   0  0  2  0  0  0  0  0  0  0  0  0
    4.9626   -8.2695   -6.7496 O   0  0  0  0  0  0  0  0  0  0  0  0
    7.6100   -7.5160   -7.5050 C   0  0  0  0  0  0  0  0  0  0  0  0
    8.5677   -6.5935   -8.0868 N   0  3  0  0  0  0  0  0  0  0  0  0
   10.5444   -5.3838   -1.3250 C   0  0  2  0  0  0  0  0  0  0  0  0
   10.7326   -5.5926   -2.8146 C   0  0  0  0  0  0  0  0  0  0  0  0
    9.4162   -5.9687   -3.4691 C   0  0  1  0  0  0  0  0  0  0  0  0
    8.3506   -4.8823   -3.3173 C   0  0  2  0  0  0  0  0  0  0  0  0
    8.2192   -4.4383   -1.8420 C   0  0  1  0  0  0  0  0  0  0  0  0
    9.5295   -4.2801   -1.0594 C   0  0  1  0  0  0  0  0  0  0  0  0
   11.8163   -5.0315   -0.7233 N   0  3  0  0  0  0  0  0  0  0  0  0
    9.6523   -6.2587   -4.8700 N   0  3  0  0  0  0  0  0  0  0  0  0
    7.4193   -3.2368   -1.7177 O   0  0  0  0  0  0  0  0  0  0  0  0
    9.2522   -4.2083    0.3353 O   0  0  0  0  0  0  0  0  0  0  0  0
  1  2  1  0  0  0  0
  3  2  1  1  0  0  0
  3  4  1  0  0  0  0
  3  5  1  0  0  0  0
  4  8  1  0  0  0  0
  5  6  1  0  0  0  0
  5 12  1  6  0  0  0
  6  7  1  6  0  0  0
  6  8  1  0  0  0  0
  8 41  1  1  0  0  0
  9 10  1  0  0  0  0
  9 17  1  0  0  0  0
  9 19  1  1  0  0  0
 10 11  1  0  0  0  0
 11 12  1  6  0  0  0
 11 13  1  0  0  0  0
 13 14  1  1  0  0  0
 13 15  1  0  0  0  0
 15 16  1  6  0  0  0
 15 17  1  0  0  0  0
 17 18  1  6  0  0  0
 19 20  1  0  0  0  0
 21 22  1  0  0  0  0
 21 29  1  0  0  0  0
 21 31  1  6  0  0  0
 22 23  1  0  0  0  0
 23 24  1  1  0  0  0
 23 25  1  0  0  0  0
 25 26  1  1  0  0  0
 25 27  1  0  0  0  0
 27 28  1  6  0  0  0
 27 29  1  0  0  0  0
 29 30  1  1  0  0  0
 31 32  1  0  0  0  0
 33 34  1  0  0  0  0
 33 38  1  0  0  0  0
 33 39  1  6  0  0  0
 34 35  1  0  0  0  0
 35 36  1  0  0  0  0
 35 40  1  6  0  0  0
 36 24  1  1  0  0  0
 36 37  1  0  0  0  0
 37 38  1  0  0  0  0
 37 41  1  6  0  0  0
 38 42  1  1  0  0  0
M  CHG  6  14   1  20   1  26   1  32   1  39   1  40   1
M  END
>  <CHROM.1>
-175.54739229,-88.80104376,163.68337474,-36.03720934,-16.58741929,-79.77362220
55.36140288,87.76019743,-48.85346906,-179.63190682,-129.75905869,2.69699404
83.05862712,-107.30698609,-72.97936273,68.12946774,70.49182039,72.28601720
39.49608273,-124.26769212,-52.85439884,172.45896539,8.20014371,-2.76389604
-2.12244955,-1.36143517,0.25607471,-2.44434191

>  <Name>


>  <RI>
0

>  <Rbt.Current_Directory>
/home/itssahil/PROJECTS/Mol_Feturizer/New_Systems/rnas/1qd3

>  <Rbt.Executable>
rbdock ($Id: //depot/dev/client3/rdock/2013.1/src/exe/rbdock.cxx#4 $)

>  <Rbt.Library>
libRbt.so (2013.1, Build901 2013/11/27)

>  <Rbt.Parameter_File>
/export/apps/rDock/src/rDock_2013.1_src/data/scripts/dock_solv.prm

>  <Rbt.Receptor>
prm/pocket_docking_2.prm

>  <SCORE>
-24.8264

>  <SCORE.INTER>
-24.8517

>  <SCORE.INTER.CONST>
1

>  <SCORE.INTER.POLAR>
-4.31294

>  <SCORE.INTER.ROT>
9

>  <SCORE.INTER.SOLV>
35.7962

>  <SCORE.INTER.VDW>
-23.7234

>  <SCORE.INTER.norm>
-0.591707

>  <SCORE.INTRA>
-5.71081

>  <SCORE.INTRA.DIHEDRAL>
-0.885131

>  <SCORE.INTRA.DIHEDRAL.0>
40.6252

>  <SCORE.INTRA.POLAR>
0.444032

>  <SCORE.INTRA.POLAR.0>
-1.20161

>  <SCORE.INTRA.REPUL>
-0.115675

>  <SCORE.INTRA.REPUL.0>
0.115675

>  <SCORE.INTRA.SOLV>
-0.883691

>  <SCORE.INTRA.SOLV.lig_0>
-154.895

>  <SCORE.INTRA.VDW>
-5.75774

>  <SCORE.INTRA.VDW.0>
2.2925

>  <SCORE.INTRA.norm>
-0.135972

>  <SCORE.RESTR>
5.73613

>  <SCORE.RESTR.CAVITY>
5.73613

>  <SCORE.RESTR.norm>
0.136575

>  <SCORE.SYSTEM>
0

>  <SCORE.SYSTEM.CONST>
0

>  <SCORE.SYSTEM.DIHEDRAL>
0

>  <SCORE.SYSTEM.SOLV>
0

>  <SCORE.SYSTEM.norm>
0

>  <SCORE.heavy>
42

>  <SCORE.norm>
-0.591104

>  <RMSD>
9.570

$$$$

 OpenBabel11021811413D
libRbt.so/2013.1/901 2013/11/27
 42 45  0  0  0  0  0  0  0  0999 V2000
   14.6321   -5.3750   -2.8484 O   0  0  0  0  0  0  0  0  0  0  0  0
   13.2769   -5.7246   -3.0907 C   0  0  0  0  0  0  0  0  0  0  0  0
   12.5726   -4.5856   -3.8291 C   0  0  1  0  0  0  0  0  0  0  0  0
   11.3331   -5.0311   -4.4215 O   0  0  0  0  0  0  0  0  0  0  0  0
   12.2037   -3.4192   -2.9275 C   0  0  2  0  0  0  0  0  0  0  0  0
   11.1370   -2.7427   -3.7722 C   0  0  1  0  0  0  0  0  0  0  0  0
   11.7519   -2.0024   -4.8209 O   0  0  0  0  0  0  0  0  0  0  0  0
   10.3724   -3.9467   -4.3591 C   0  0  2  0  0  0  0  0  0  0  0  0
   13.9565   -3.0431    0.8880 C   0  0  2  0  0  0  0  0  0  0  0  0
   13.8745   -3.3478   -0.5127 O   0  0  0  0  0  0  0  0  0  0  0  0
   13.4642   -2.2070   -1.2880 C   0  0  2  0  0  0  0  0  0  0  0  0
   13.3356   -2.5620   -2.6805 O   0  0  0  0  0  0  0  0  0  0  0  0
   14.4639   -1.0498   -1.1219 C   0  0  2  0  0  0  0  0  0  0  0  0
   15.6660   -1.2925   -1.8980 N   0  3  0  0  0  0  0  0  0  0  0  0
   14.8181   -0.7688    0.3432 C   0  0  1  0  0  0  0  0  0  0  0  0
   13.7590   -0.0490    0.9540 O   0  0  0  0  0  0  0  0  0  0  0  0
   15.0856   -2.0494    1.1293 C   0  0  2  0  0  0  0  0  0  0  0  0
   16.3288   -2.6141    0.7292 O   0  0  0  0  0  0  0  0  0  0  0  0
   14.1686   -4.3152    1.7037 C   0  0  0  0  0  0  0  0  0  0  0  0
   14.1002   -4.0240    3.1234 N   0  3  0  0  0  0  0  0  0  0  0  0
    5.4608   -7.6033   -4.4028 C   0  0  1  0  0  0  0  0  0  0  0  0
    6.8035   -7.2387   -4.0204 O   0  0  0  0  0  0  0  0  0  0  0  0
    7.4671   -6.3971   -4.9915 C   0  0  2  0  0  0  0  0  0  0  0  0
    6.8337   -5.0992   -5.1088 O   0  0  0  0  0  0  0  0  0  0  0  0
    7.5443   -7.0997   -6.3524 C   0  0  2  0  0  0  0  0  0  0  0  0
    8.0173   -6.1717   -7.3629 N   0  3  0  0  0  0  0  0  0  0  0  0
    6.1905   -7.6569   -6.7783 C   0  0  1  0  0  0  0  0  0  0  0  0
    6.3536   -8.4936   -7.9130 O   0  0  0  0  0  0  0  0  0  0  0  0
    5.4875   -8.4336   -5.6757 C   0  0  2  0  0  0  0  0  0  0  0  0
    4.1632   -8.7614   -6.0702 O   0  0  0  0  0  0  0  0  0  0  0  0
    4.8187   -8.4524   -3.3094 C   0  0  0  0  0  0  0  0  0  0  0  0
    4.7834   -7.7294   -2.0513 N   0  3  0  0  0  0  0  0  0  0  0  0
    6.6358   -1.6131   -2.6782 C   0  0  2  0  0  0  0  0  0  0  0  0
    5.4836   -2.5957   -2.6087 C   0  0  0  0  0  0  0  0  0  0  0  0
    5.5165   -3.5384   -3.7975 C   0  0  1  0  0  0  0  0  0  0  0  0
    6.7949   -4.3761   -3.8505 C   0  0  2  0  0  0  0  0  0  0  0  0
    8.0488   -3.4811   -3.7182 C   0  0  1  0  0  0  0  0  0  0  0  0
    7.9701   -2.3469   -2.6879 C   0  0  1  0  0  0  0  0  0  0  0  0
    6.5782   -0.7214   -1.5356 N   0  3  0  0  0  0  0  0  0  0  0  0
    4.3474   -4.3949   -3.7522 N   0  3  0  0  0  0  0  0  0  0  0  0
    9.2438   -4.2698   -3.4970 O   0  0  0  0  0  0  0  0  0  0  0  0
    9.0267   -1.4190   -2.9110 O   0  0  0  0  0  0  0  0  0  0  0  0
  1  2  1  0  0  0  0
  3  2  1  1  0  0  0
  3  4  1  0  0  0  0
  3  5  1  0  0  0  0
  4  8  1  0  0  0  0
  5  6  1  0  0  0  0
  5 12  1  6  0  0  0
  6  7  1  6  0  0  0
  6  8  1  0  0  0  0
  8 41  1  1  0  0  0
  9 10  1  0  0  0  0
  9 17  1  0  0  0  0
  9 19  1  1  0  0  0
 10 11  1  0  0  0  0
 11 12  1  6  0  0  0
 11 13  1  0  0  0  0
 13 14  1  6  0  0  0
 13 15  1  0  0  0  0
 15 16  1  1  0  0  0
 15 17  1  0  0  0  0
 17 18  1  6  0  0  0
 19 20  1  0  0  0  0
 21 22  1  0  0  0  0
 21 29  1  0  0  0  0
 21 31  1  1  0  0  0
 22 23  1  0  0  0  0
 23 24  1  6  0  0  0
 23 25  1  0  0  0  0
 25 26  1  6  0  0  0
 25 27  1  0  0  0  0
 27 28  1  6  0  0  0
 27 29  1  0  0  0  0
 29 30  1  6  0  0  0
 31 32  1  0  0  0  0
 33 34  1  0  0  0  0
 33 38  1  0  0  0  0
 33 39  1  1  0  0  0
 34 35  1  0  0  0  0
 35 36  1  0  0  0  0
 35 40  1  1  0  0  0
 36 24  1  6  0  0  0
 36 37  1  0  0  0  0
 37 38  1  0  0  0  0
 37 41  1  1  0  0  0
 38 42  1  6  0  0  0
M  CHG  6  14   1  20   1  26   1  32   1  39   1  40   1
M  END
>  <CHROM.1>
-56.01895024,163.77691103,-134.22163378,178.97806082,-159.87162887,-173.57861761
70.50402546,-178.07271635,-174.00261702,-179.26800899,-176.86026332,58.88043405
58.24097570,-146.53250140,-19.18114327,-70.56926248,-167.94785771,164.13727663
-120.63577608,-36.68319281,130.77894847,-69.06014743,9.87342500,-4.23711457
-2.93931763,-0.63651806,0.12745282,-2.46970260

>  <Name>


>  <RI>
0

>  <Rbt.Current_Directory>
/home/itssahil/PROJECTS/Mol_Feturizer/New_Systems/rnas/1qd3

>  <Rbt.Executable>
rbdock ($Id: //depot/dev/client3/rdock/2013.1/src/exe/rbdock.cxx#4 $)

>  <Rbt.Library>
libRbt.so (2013.1, Build901 2013/11/27)

>  <Rbt.Parameter_File>
/export/apps/rDock/src/rDock_2013.1_src/data/scripts/dock_solv.prm

>  <Rbt.Receptor>
prm/pocket_docking_7.prm

>  <SCORE>
-56.5481

>  <SCORE.INTER>
-40.509

>  <SCORE.INTER.CONST>
1

>  <SCORE.INTER.POLAR>
-7.82967

>  <SCORE.INTER.ROT>
9

>  <SCORE.INTER.SOLV>
35.5092

>  <SCORE.INTER.VDW>
-22.3435

>  <SCORE.INTER.norm>
-0.9645

>  <SCORE.INTRA>
-16.0391

>  <SCORE.INTRA.DIHEDRAL>
-9.5997

>  <SCORE.INTRA.DIHEDRAL.0>
40.6252

>  <SCORE.INTRA.POLAR>
0.884756

>  <SCORE.INTRA.POLAR.0>
-1.20161

>  <SCORE.INTRA.REPUL>
-0.115675

>  <SCORE.INTRA.REPUL.0>
0.115675

>  <SCORE.INTRA.SOLV>
-10.4788

>  <SCORE.INTRA.SOLV.lig_0>
-154.895

>  <SCORE.INTRA.VDW>
-8.42968

>  <SCORE.INTRA.VDW.0>
2.2925

>  <SCORE.INTRA.norm>
-0.381884

>  <SCORE.RESTR>
0

>  <SCORE.RESTR.CAVITY>
0

>  <SCORE.RESTR.norm>
0

>  <SCORE.SYSTEM>
0

>  <SCORE.SYSTEM.CONST>
0

>  <SCORE.SYSTEM.DIHEDRAL>
0

>  <SCORE.SYSTEM.SOLV>
0

>  <SCORE.SYSTEM.norm>
0

>  <SCORE.heavy>
42

>  <SCORE.norm>
-1.34638

>  <RMSD>
9.577

$$$$

 OpenBabel11021811413D
libRbt.so/2013.1/901 2013/11/27
 42 45  0  0  0  0  0  0  0  0999 V2000
    8.5500   -0.1511   -3.0482 O   0  0  0  0  0  0  0  0  0  0  0  0
    8.1029    0.5191   -1.8784 C   0  0  0  0  0  0  0  0  0  0  0  0
    7.3610   -0.4629   -0.9708 C   0  0  1  0  0  0  0  0  0  0  0  0
    7.1456   -1.7287   -1.6319 O   0  0  0  0  0  0  0  0  0  0  0  0
    8.1132   -0.7880    0.3090 C   0  0  2  0  0  0  0  0  0  0  0  0
    7.4283   -2.0833    0.7115 C   0  0  1  0  0  0  0  0  0  0  0  0
    6.1592   -1.7970    1.2889 O   0  0  0  0  0  0  0  0  0  0  0  0
    7.2390   -2.7888   -0.6468 C   0  0  2  0  0  0  0  0  0  0  0  0
   10.6746    2.5341    0.4481 C   0  0  2  0  0  0  0  0  0  0  0  0
    9.4490    1.7985    0.3128 O   0  0  0  0  0  0  0  0  0  0  0  0
    9.1569    1.0199    1.4873 C   0  0  2  0  0  0  0  0  0  0  0  0
    7.9521    0.2495    1.2962 O   0  0  0  0  0  0  0  0  0  0  0  0
    9.0198    1.9287    2.7208 C   0  0  2  0  0  0  0  0  0  0  0  0
    7.7413    2.6156    2.7148 N   0  3  0  0  0  0  0  0  0  0  0  0
   10.1692    2.9345    2.8555 C   0  0  1  0  0  0  0  0  0  0  0  0
   11.3152    2.2740    3.3686 O   0  0  0  0  0  0  0  0  0  0  0  0
   10.5151    3.5990    1.5256 C   0  0  2  0  0  0  0  0  0  0  0  0
    9.4904    4.5160    1.1601 O   0  0  0  0  0  0  0  0  0  0  0  0
   11.0735    3.1640   -0.8834 C   0  0  0  0  0  0  0  0  0  0  0  0
   12.4328    3.6673   -0.8187 N   0  3  0  0  0  0  0  0  0  0  0  0
    8.3763   -5.6470   -5.1860 C   0  0  1  0  0  0  0  0  0  0  0  0
    8.2968   -4.5580   -4.2426 O   0  0  0  0  0  0  0  0  0  0  0  0
    7.0643   -4.5442   -3.4863 C   0  0  2  0  0  0  0  0  0  0  0  0
    6.9489   -5.6957   -2.6142 O   0  0  0  0  0  0  0  0  0  0  0  0
    5.8558   -4.4378   -4.4243 C   0  0  2  0  0  0  0  0  0  0  0  0
    4.6286   -4.6367   -3.6757 N   0  3  0  0  0  0  0  0  0  0  0  0
    5.9252   -5.4600   -5.5534 C   0  0  1  0  0  0  0  0  0  0  0  0
    4.9253   -5.1740   -6.5192 O   0  0  0  0  0  0  0  0  0  0  0  0
    7.2843   -5.5107   -6.2343 C   0  0  2  0  0  0  0  0  0  0  0  0
    7.3416   -6.6022   -7.1409 O   0  0  0  0  0  0  0  0  0  0  0  0
    9.7195   -5.6142   -5.9095 C   0  0  0  0  0  0  0  0  0  0  0  0
    9.9465   -6.8544   -6.6286 N   0  3  0  0  0  0  0  0  0  0  0  0
    9.1464   -6.9953    0.7890 C   0  0  2  0  0  0  0  0  0  0  0  0
    9.3414   -7.7459   -0.5135 C   0  0  0  0  0  0  0  0  0  0  0  0
    8.2187   -7.4277   -1.4836 C   0  0  1  0  0  0  0  0  0  0  0  0
    8.1560   -5.9434   -1.8466 C   0  0  2  0  0  0  0  0  0  0  0  0
    8.1626   -5.0623   -0.5760 C   0  0  1  0  0  0  0  0  0  0  0  0
    9.1170   -5.4924    0.5458 C   0  0  1  0  0  0  0  0  0  0  0  0
   10.2277   -7.3208    1.6993 N   0  3  0  0  0  0  0  0  0  0  0  0
    8.3820   -8.2374   -2.6753 N   0  3  0  0  0  0  0  0  0  0  0  0
    8.3743   -3.6658   -0.8987 O   0  0  0  0  0  0  0  0  0  0  0  0
    8.7775   -4.8174    1.7525 O   0  0  0  0  0  0  0  0  0  0  0  0
  1  2  1  0  0  0  0
  3  2  1  6  0  0  0
  3  4  1  0  0  0  0
  3  5  1  0  0  0  0
  4  8  1  0  0  0  0
  5  6  1  0  0  0  0
  5 12  1  1  0  0  0
  6  7  1  6  0  0  0
  6  8  1  0  0  0  0
  8 41  1  6  0  0  0
  9 10  1  0  0  0  0
  9 17  1  0  0  0  0
  9 19  1  6  0  0  0
 10 11  1  0  0  0  0
 11 12  1  6  0  0  0
 11 13  1  0  0  0  0
 13 14  1  6  0  0  0
 13 15  1  0  0  0  0
 15 16  1  6  0  0  0
 15 17  1  0  0  0  0
 17 18  1  6  0  0  0
 19 20  1  0  0  0  0
 21 22  1  0  0  0  0
 21 29  1  0  0  0  0
 21 31  1  6  0  0  0
 22 23  1  0  0  0  0
 23 24  1  6  0  0  0
 23 25  1  0  0  0  0
 25 26  1  1  0  0  0
 25 27  1  0  0  0  0
 27 28  1  6  0  0  0
 27 29  1  0  0  0  0
 29 30  1  6  0  0  0
 31 32  1  0  0  0  0
 33 34  1  0  0  0  0
 33 38  1  0  0  0  0
 33 39  1  1  0  0  0
 34 35  1  0  0  0  0
 35 36  1  0  0  0  0
 35 40  1  6  0  0  0
 36 24  1  1  0  0  0
 36 37  1  0  0  0  0
 37 38  1  0  0  0  0
 37 41  1  6  0  0  0
 38 42  1  1  0  0  0
M  CHG  6  14   1  20   1  26   1  32   1  39   1  40   1
M  END
>  <CHROM.1>
153.72622317,-8.62685215,-108.33017453,-68.26355069,-144.99963974,-168.24940842
67.87994837,-32.18378403,-70.19725716,56.17004679,-157.76849850,166.99149455
47.33607467,-154.19161201,-117.24372296,48.78778482,66.43841415,55.74853871
54.94155335,66.65175851,112.73144268,-76.12537054,8.40905860,-2.52478131
-1.31496483,0.61826351,-1.32329132,-0.37174417

>  <Name>


>  <RI>
0

>  <Rbt.Current_Directory>
/home/itssahil/PROJECTS/Mol_Feturizer/New_Systems/rnas/1qd3

>  <Rbt.Executable>
rbdock ($Id: //depot/dev/client3/rdock/2013.1/src/exe/rbdock.cxx#4 $)

>  <Rbt.Library>
libRbt.so (2013.1, Build901 2013/11/27)

>  <Rbt.Parameter_File>
/export/apps/rDock/src/rDock_2013.1_src/data/scripts/dock_solv.prm

>  <Rbt.Receptor>
prm/pocket_docking_6.prm

>  <SCORE>
-68.0209

>  <SCORE.INTER>
-56.724

>  <SCORE.INTER.CONST>
1

>  <SCORE.INTER.POLAR>
-8.95061

>  <SCORE.INTER.ROT>
9

>  <SCORE.INTER.SOLV>
31.0856

>  <SCORE.INTER.VDW>
-27.9425

>  <SCORE.INTER.norm>
-1.35057

>  <SCORE.INTRA>
-11.2969

>  <SCORE.INTRA.DIHEDRAL>
0.134549

>  <SCORE.INTRA.DIHEDRAL.0>
40.6252

>  <SCORE.INTRA.POLAR>
0.665251

>  <SCORE.INTRA.POLAR.0>
-1.20161

>  <SCORE.INTRA.REPUL>
-0.113186

>  <SCORE.INTRA.REPUL.0>
0.115675

>  <SCORE.INTRA.SOLV>
-10.8367

>  <SCORE.INTRA.SOLV.lig_0>
-154.895

>  <SCORE.INTRA.VDW>
-7.64173

>  <SCORE.INTRA.VDW.0>
2.2925

>  <SCORE.INTRA.norm>
-0.268974

>  <SCORE.RESTR>
0

>  <SCORE.RESTR.CAVITY>
0

>  <SCORE.RESTR.norm>
0

>  <SCORE.SYSTEM>
0

>  <SCORE.SYSTEM.CONST>
0

>  <SCORE.SYSTEM.DIHEDRAL>
0

>  <SCORE.SYSTEM.SOLV>
0

>  <SCORE.SYSTEM.norm>
0

>  <SCORE.heavy>
42

>  <SCORE.norm>
-1.61954

>  <RMSD>
9.578

$$$$

 OpenBabel11021811413D
libRbt.so/2013.1/901 2013/11/27
 42 45  0  0  0  0  0  0  0  0999 V2000
    9.4803   -4.6773    0.7995 O   0  0  0  0  0  0  0  0  0  0  0  0
    9.5520   -5.4309   -0.4024 C   0  0  0  0  0  0  0  0  0  0  0  0
   10.3560   -4.6595   -1.4498 C   0  0  1  0  0  0  0  0  0  0  0  0
   10.3769   -5.3571   -2.7141 O   0  0  0  0  0  0  0  0  0  0  0  0
    9.7916   -3.2804   -1.7482 C   0  0  2  0  0  0  0  0  0  0  0  0
   10.4388   -3.0016   -3.0945 C   0  0  1  0  0  0  0  0  0  0  0  0
   11.7992   -2.6280   -2.9059 O   0  0  0  0  0  0  0  0  0  0  0  0
   10.3644   -4.3789   -3.7845 C   0  0  2  0  0  0  0  0  0  0  0  0
    8.5105    0.6307    0.6195 C   0  0  2  0  0  0  0  0  0  0  0  0
    9.4039   -0.4907    0.5440 O   0  0  0  0  0  0  0  0  0  0  0  0
    9.3106   -1.1680   -0.7223 C   0  0  2  0  0  0  0  0  0  0  0  0
   10.1767   -2.3218   -0.7434 O   0  0  0  0  0  0  0  0  0  0  0  0
    9.6642   -0.2136   -1.8758 C   0  0  2  0  0  0  0  0  0  0  0  0
   11.0992   -0.0124   -1.9561 N   0  3  0  0  0  0  0  0  0  0  0  0
    8.9373    1.1332   -1.7839 C   0  0  1  0  0  0  0  0  0  0  0  0
    7.5959    0.9750   -2.2182 O   0  0  0  0  0  0  0  0  0  0  0  0
    8.9522    1.7031   -0.3681 C   0  0  2  0  0  0  0  0  0  0  0  0
   10.2596    2.1604   -0.0425 O   0  0  0  0  0  0  0  0  0  0  0  0
    8.4639    1.1864    2.0400 C   0  0  0  0  0  0  0  0  0  0  0  0
    7.7358    0.2849    2.9130 N   0  3  0  0  0  0  0  0  0  0  0  0
    8.6885   -6.8434   -6.8146 C   0  0  1  0  0  0  0  0  0  0  0  0
    7.6866   -6.0131   -6.1911 O   0  0  0  0  0  0  0  0  0  0  0  0
    6.9244   -6.7018   -5.1732 C   0  0  2  0  0  0  0  0  0  0  0  0
    7.7447   -7.0728   -4.0378 O   0  0  0  0  0  0  0  0  0  0  0  0
    6.2139   -7.9252   -5.7651 C   0  0  2  0  0  0  0  0  0  0  0  0
    5.6297   -8.7214   -4.7018 N   0  3  0  0  0  0  0  0  0  0  0  0
    7.1678   -8.7950   -6.5763 C   0  0  1  0  0  0  0  0  0  0  0  0
    6.4303   -9.7729   -7.2932 O   0  0  0  0  0  0  0  0  0  0  0  0
    8.0271   -7.9995   -7.5469 C   0  0  2  0  0  0  0  0  0  0  0  0
    9.0160   -8.8354   -8.1298 O   0  0  0  0  0  0  0  0  0  0  0  0
    9.4732   -6.0327   -7.8420 C   0  0  0  0  0  0  0  0  0  0  0  0
   10.5966   -6.7978   -8.3514 N   0  3  0  0  0  0  0  0  0  0  0  0
    6.5295   -3.5704   -1.9506 C   0  0  2  0  0  0  0  0  0  0  0  0
    6.7290   -4.8426   -1.1508 C   0  0  0  0  0  0  0  0  0  0  0  0
    6.7588   -6.0495   -2.0703 C   0  0  1  0  0  0  0  0  0  0  0  0
    7.9044   -5.9920   -3.0818 C   0  0  2  0  0  0  0  0  0  0  0  0
    7.9230   -4.6337   -3.8203 C   0  0  1  0  0  0  0  0  0  0  0  0
    7.6514   -3.3896   -2.9643 C   0  0  1  0  0  0  0  0  0  0  0  0
    6.4991   -2.4343   -1.0493 N   0  3  0  0  0  0  0  0  0  0  0  0
    6.8488   -7.2526   -1.2660 N   0  3  0  0  0  0  0  0  0  0  0  0
    9.1453   -4.4572   -4.5777 O   0  0  0  0  0  0  0  0  0  0  0  0
    7.3628   -2.2786   -3.8067 O   0  0  0  0  0  0  0  0  0  0  0  0
  1  2  1  0  0  0  0
  3  2  1  1  0  0  0
  3  4  1  0  0  0  0
  3  5  1  0  0  0  0
  4  8  1  0  0  0  0
  5  6  1  0  0  0  0
  5 12  1  1  0  0  0
  6  7  1  1  0  0  0
  6  8  1  0  0  0  0
  8 41  1  1  0  0  0
  9 10  1  0  0  0  0
  9 17  1  0  0  0  0
  9 19  1  1  0  0  0
 10 11  1  0  0  0  0
 11 12  1  1  0  0  0
 11 13  1  0  0  0  0
 13 14  1  1  0  0  0
 13 15  1  0  0  0  0
 15 16  1  1  0  0  0
 15 17  1  0  0  0  0
 17 18  1  1  0  0  0
 19 20  1  0  0  0  0
 21 22  1  0  0  0  0
 21 29  1  0  0  0  0
 21 31  1  6  0  0  0
 22 23  1  0  0  0  0
 23 24  1  1  0  0  0
 23 25  1  0  0  0  0
 25 26  1  1  0  0  0
 25 27  1  0  0  0  0
 27 28  1  6  0  0  0
 27 29  1  0  0  0  0
 29 30  1  1  0  0  0
 31 32  1  0  0  0  0
 33 34  1  0  0  0  0
 33 38  1  0  0  0  0
 33 39  1  1  0  0  0
 34 35  1  0  0  0  0
 35 36  1  0  0  0  0
 35 40  1  1  0  0  0
 36 24  1  6  0  0  0
 36 37  1  0  0  0  0
 37 38  1  0  0  0  0
 37 41  1  1  0  0  0
 38 42  1  6  0  0  0
M  CHG  6  14   1  20   1  26   1  32   1  39   1  40   1
M  END
>  <CHROM.1>
-60.99552400,-176.27880702,-159.55373699,169.79705847,42.28092537,-72.44675594
159.36910613,68.72072747,82.17692595,179.45989817,46.10146419,172.48620224
83.66011411,88.53234530,59.74076384,-63.75639936,-178.03650708,53.31456866
150.40743904,-51.11067886,-64.66038679,71.48861011,8.56550907,-3.95514176
-2.91910575,1.37377870,0.88044638,0.82874150

>  <Name>


>  <RI>
0

>  <Rbt.Current_Directory>
/home/itssahil/PROJECTS/Mol_Feturizer/New_Systems/rnas/1qd3

>  <Rbt.Executable>
rbdock ($Id: //depot/dev/client3/rdock/2013.1/src/exe/rbdock.cxx#4 $)

>  <Rbt.Library>
libRbt.so (2013.1, Build901 2013/11/27)

>  <Rbt.Parameter_File>
/export/apps/rDock/src/rDock_2013.1_src/data/scripts/dock_solv.prm

>  <Rbt.Receptor>
prm/pocket_docking_2.prm

>  <SCORE>
0.994287

>  <SCORE.INTER>
5.1058

>  <SCORE.INTER.CONST>
1

>  <SCORE.INTER.POLAR>
-1.70548

>  <SCORE.INTER.ROT>
9

>  <SCORE.INTER.SOLV>
27.4803

>  <SCORE.INTER.VDW>
-9.67129

>  <SCORE.INTER.norm>
0.121567

>  <SCORE.INTRA>
-8.97399

>  <SCORE.INTRA.DIHEDRAL>
-21.6415

>  <SCORE.INTRA.DIHEDRAL.0>
40.6252

>  <SCORE.INTRA.POLAR>
-0.548608

>  <SCORE.INTRA.POLAR.0>
-1.20161

>  <SCORE.INTRA.REPUL>
-0.0980708

>  <SCORE.INTRA.REPUL.0>
0.115675

>  <SCORE.INTRA.SOLV>
2.35003

>  <SCORE.INTRA.SOLV.lig_0>
-154.895

>  <SCORE.INTRA.VDW>
3.02738

>  <SCORE.INTRA.VDW.0>
2.2925

>  <SCORE.INTRA.norm>
-0.213667

>  <SCORE.RESTR>
4.86248

>  <SCORE.RESTR.CAVITY>
4.86248

>  <SCORE.RESTR.norm>
0.115773

>  <SCORE.SYSTEM>
0

>  <SCORE.SYSTEM.CONST>
0

>  <SCORE.SYSTEM.DIHEDRAL>
0

>  <SCORE.SYSTEM.SOLV>
0

>  <SCORE.SYSTEM.norm>
0

>  <SCORE.heavy>
42

>  <SCORE.norm>
0.0236735

>  <RMSD>
9.582

$$$$

 OpenBabel11021811413D
libRbt.so/2013.1/901 2013/11/27
 42 45  0  0  0  0  0  0  0  0999 V2000
   12.0142   -6.0694    3.0671 O   0  0  0  0  0  0  0  0  0  0  0  0
   11.5475   -5.1608    2.0799 C   0  0  0  0  0  0  0  0  0  0  0  0
   11.2736   -5.9099    0.7752 C   0  0  1  0  0  0  0  0  0  0  0  0
   10.2442   -6.9078    0.9487 O   0  0  0  0  0  0  0  0  0  0  0  0
   10.7895   -5.0080   -0.3481 C   0  0  2  0  0  0  0  0  0  0  0  0
   10.1498   -6.0327   -1.2699 C   0  0  1  0  0  0  0  0  0  0  0  0
   11.1608   -6.7293   -1.9900 O   0  0  0  0  0  0  0  0  0  0  0  0
    9.4648   -6.9881   -0.2715 C   0  0  2  0  0  0  0  0  0  0  0  0
   10.1101   -1.4530   -2.4051 C   0  0  2  0  0  0  0  0  0  0  0  0
   10.6182   -2.3564   -1.4117 O   0  0  0  0  0  0  0  0  0  0  0  0
   11.4374   -3.3877   -1.9916 C   0  0  2  0  0  0  0  0  0  0  0  0
   11.8832   -4.3101   -0.9757 O   0  0  0  0  0  0  0  0  0  0  0  0
   12.6439   -2.7752   -2.7235 C   0  0  2  0  0  0  0  0  0  0  0  0
   13.6547   -2.3415   -1.7765 N   0  3  0  0  0  0  0  0  0  0  0  0
   12.2564   -1.6248   -3.6600 C   0  0  1  0  0  0  0  0  0  0  0  0
   11.6994   -2.1553   -4.8522 O   0  0  0  0  0  0  0  0  0  0  0  0
   11.2616   -0.6638   -3.0148 C   0  0  2  0  0  0  0  0  0  0  0  0
   11.9123    0.1073   -2.0115 O   0  0  0  0  0  0  0  0  0  0  0  0
    9.0703   -0.5154   -1.7979 C   0  0  0  0  0  0  0  0  0  0  0  0
    8.1873   -0.0026   -2.8286 N   0  3  0  0  0  0  0  0  0  0  0  0
    7.8963   -9.3429   -3.8927 C   0  0  1  0  0  0  0  0  0  0  0  0
    8.2010   -8.2480   -3.0037 O   0  0  0  0  0  0  0  0  0  0  0  0
    7.0297   -7.6746   -2.3787 C   0  0  2  0  0  0  0  0  0  0  0  0
    6.3805   -8.6086   -1.4809 O   0  0  0  0  0  0  0  0  0  0  0  0
    6.0507   -7.1558   -3.4390 C   0  0  2  0  0  0  0  0  0  0  0  0
    4.7969   -6.7786   -2.8134 N   0  3  0  0  0  0  0  0  0  0  0  0
    5.7791   -8.1998   -4.5164 C   0  0  1  0  0  0  0  0  0  0  0  0
    5.0659   -7.6049   -5.5895 O   0  0  0  0  0  0  0  0  0  0  0  0
    7.0441   -8.8528   -5.0519 C   0  0  2  0  0  0  0  0  0  0  0  0
    6.7154   -9.9381   -5.9067 O   0  0  0  0  0  0  0  0  0  0  0  0
    9.1848   -9.9166   -4.4754 C   0  0  0  0  0  0  0  0  0  0  0  0
    9.8315  -10.7997   -3.5222 N   0  3  0  0  0  0  0  0  0  0  0  0
    6.9245   -8.8822    2.7296 C   0  0  2  0  0  0  0  0  0  0  0  0
    7.0814  -10.1464    1.9079 C   0  0  0  0  0  0  0  0  0  0  0  0
    6.4717   -9.9640    0.5303 C   0  0  1  0  0  0  0  0  0  0  0  0
    7.1422   -8.8450   -0.2679 C   0  0  2  0  0  0  0  0  0  0  0  0
    7.2247   -7.5445    0.5644 C   0  0  1  0  0  0  0  0  0  0  0  0
    7.6035   -7.7051    2.0426 C   0  0  1  0  0  0  0  0  0  0  0  0
    7.5094   -9.0845    4.0415 N   0  3  0  0  0  0  0  0  0  0  0  0
    6.5492  -11.2203   -0.1894 N   0  3  0  0  0  0  0  0  0  0  0  0
    8.0867   -6.5646   -0.0647 O   0  0  0  0  0  0  0  0  0  0  0  0
    7.3112   -6.5035    2.7483 O   0  0  0  0  0  0  0  0  0  0  0  0
  1  2  1  0  0  0  0
  3  2  1  1  0  0  0
  3  4  1  0  0  0  0
  3  5  1  0  0  0  0
  4  8  1  0  0  0  0
  5  6  1  0  0  0  0
  5 12  1  6  0  0  0
  6  7  1  1  0  0  0
  6  8  1  0  0  0  0
  8 41  1  1  0  0  0
  9 10  1  0  0  0  0
  9 17  1  0  0  0  0
  9 19  1  1  0  0  0
 10 11  1  0  0  0  0
 11 12  1  1  0  0  0
 11 13  1  0  0  0  0
 13 14  1  1  0  0  0
 13 15  1  0  0  0  0
 15 16  1  6  0  0  0
 15 17  1  0  0  0  0
 17 18  1  1  0  0  0
 19 20  1  0  0  0  0
 21 22  1  0  0  0  0
 21 29  1  0  0  0  0
 21 31  1  6  0  0  0
 22 23  1  0  0  0  0
 23 24  1  6  0  0  0
 23 25  1  0  0  0  0
 25 26  1  1  0  0  0
 25 27  1  0  0  0  0
 27 28  1  6  0  0  0
 27 29  1  0  0  0  0
 29 30  1  6  0  0  0
 31 32  1  0  0  0  0
 33 34  1  0  0  0  0
 33 38  1  0  0  0  0
 33 39  1  1  0  0  0
 34 35  1  0  0  0  0
 35 36  1  0  0  0  0
 35 40  1  6  0  0  0
 36 24  1  6  0  0  0
 36 37  1  0  0  0  0
 37 38  1  0  0  0  0
 37 41  1  6  0  0  0
 38 42  1  1  0  0  0
M  CHG  6  14   1  20   1  26   1  32   1  39   1  40   1
M  END
>  <CHROM.1>
-53.82009082,61.79191963,-176.50596312,-178.67465222,-78.45800427,-156.84804646
62.91244252,54.27341024,67.31060663,-63.58545371,23.83421790,79.61985684
71.30789001,-173.06064895,-175.38171116,-58.99809659,-173.41071494,-55.21134952
179.51124043,-169.94208085,-59.43642298,164.03782907,8.98396737,-6.18091614
-1.39716348,-0.44704605,0.96503688,1.97945707

>  <Name>


>  <RI>
0

>  <Rbt.Current_Directory>
/home/itssahil/PROJECTS/Mol_Feturizer/New_Systems/rnas/1qd3

>  <Rbt.Executable>
rbdock ($Id: //depot/dev/client3/rdock/2013.1/src/exe/rbdock.cxx#4 $)

>  <Rbt.Library>
libRbt.so (2013.1, Build901 2013/11/27)

>  <Rbt.Parameter_File>
/export/apps/rDock/src/rDock_2013.1_src/data/scripts/dock_solv.prm

>  <Rbt.Receptor>
prm/pocket_docking_8.prm

>  <SCORE>
-62.9681

>  <SCORE.INTER>
-36.4963

>  <SCORE.INTER.CONST>
1

>  <SCORE.INTER.POLAR>
-8.05279

>  <SCORE.INTER.ROT>
9

>  <SCORE.INTER.SOLV>
28.006

>  <SCORE.INTER.VDW>
-16.4236

>  <SCORE.INTER.norm>
-0.868959

>  <SCORE.INTRA>
-26.4718

>  <SCORE.INTRA.DIHEDRAL>
-29.0113

>  <SCORE.INTRA.DIHEDRAL.0>
40.6252

>  <SCORE.INTRA.POLAR>
1.1447

>  <SCORE.INTRA.POLAR.0>
-1.20161

>  <SCORE.INTRA.REPUL>
-0.115675

>  <SCORE.INTRA.REPUL.0>
0.115675

>  <SCORE.INTRA.SOLV>
-15.2388

>  <SCORE.INTRA.SOLV.lig_0>
-154.895

>  <SCORE.INTRA.VDW>
-7.66038

>  <SCORE.INTRA.VDW.0>
2.2925

>  <SCORE.INTRA.norm>
-0.630282

>  <SCORE.RESTR>
0

>  <SCORE.RESTR.CAVITY>
0

>  <SCORE.RESTR.norm>
0

>  <SCORE.SYSTEM>
0

>  <SCORE.SYSTEM.CONST>
0

>  <SCORE.SYSTEM.DIHEDRAL>
0

>  <SCORE.SYSTEM.SOLV>
0

>  <SCORE.SYSTEM.norm>
0

>  <SCORE.heavy>
42

>  <SCORE.norm>
-1.49924

>  <RMSD>
9.596

$$$$

 OpenBabel11021811413D
libRbt.so/2013.1/901 2013/11/27
 42 45  0  0  0  0  0  0  0  0999 V2000
   10.1992   -0.2841   -3.5310 O   0  0  0  0  0  0  0  0  0  0  0  0
    9.4704    0.2311   -2.4260 C   0  0  0  0  0  0  0  0  0  0  0  0
    8.0947   -0.4333   -2.3582 C   0  0  1  0  0  0  0  0  0  0  0  0
    8.1274   -1.7661   -2.9134 O   0  0  0  0  0  0  0  0  0  0  0  0
    7.5690   -0.5890   -0.9408 C   0  0  2  0  0  0  0  0  0  0  0  0
    6.5204   -1.6683   -1.1512 C   0  0  1  0  0  0  0  0  0  0  0  0
    5.3555   -1.0990   -1.7386 O   0  0  0  0  0  0  0  0  0  0  0  0
    7.2131   -2.6045   -2.1624 C   0  0  2  0  0  0  0  0  0  0  0  0
    8.1747    3.2183    1.8610 C   0  0  2  0  0  0  0  0  0  0  0  0
    7.2600    2.3945    1.1220 O   0  0  0  0  0  0  0  0  0  0  0  0
    7.9452    1.4118    0.3247 C   0  0  2  0  0  0  0  0  0  0  0  0
    7.0018    0.6409   -0.4482 O   0  0  0  0  0  0  0  0  0  0  0  0
    8.7909    0.4847    1.2144 C   0  0  2  0  0  0  0  0  0  0  0  0
    7.9503   -0.4827    1.8955 N   0  3  0  0  0  0  0  0  0  0  0  0
    9.6573    1.2479    2.2232 C   0  0  1  0  0  0  0  0  0  0  0  0
   10.7925    1.7815    1.5602 O   0  0  0  0  0  0  0  0  0  0  0  0
    8.8895    2.3748    2.9089 C   0  0  2  0  0  0  0  0  0  0  0  0
    7.9474    1.8320    3.8267 O   0  0  0  0  0  0  0  0  0  0  0  0
    7.4404    4.3866    2.5125 C   0  0  0  0  0  0  0  0  0  0  0  0
    6.4617    3.9009    3.4670 N   0  3  0  0  0  0  0  0  0  0  0  0
    6.7968   -6.4515   -5.9807 C   0  0  1  0  0  0  0  0  0  0  0  0
    6.4077   -5.4419   -5.0260 O   0  0  0  0  0  0  0  0  0  0  0  0
    6.6354   -5.8341   -3.6527 C   0  0  2  0  0  0  0  0  0  0  0  0
    8.0459   -5.9872   -3.3581 O   0  0  0  0  0  0  0  0  0  0  0  0
    5.8591   -7.1142   -3.3204 C   0  0  2  0  0  0  0  0  0  0  0  0
    6.2583   -7.6114   -2.0169 N   0  3  0  0  0  0  0  0  0  0  0  0
    6.0896   -8.2018   -4.3637 C   0  0  1  0  0  0  0  0  0  0  0  0
    5.1801   -9.2700   -4.1496 O   0  0  0  0  0  0  0  0  0  0  0  0
    5.9519   -7.7009   -5.7933 C   0  0  2  0  0  0  0  0  0  0  0  0
    6.3601   -8.7059   -6.7098 O   0  0  0  0  0  0  0  0  0  0  0  0
    6.5647   -5.9442   -7.4011 C   0  0  0  0  0  0  0  0  0  0  0  0
    5.2734   -5.2902   -7.5088 N   0  3  0  0  0  0  0  0  0  0  0  0
   11.4341   -3.4581   -2.8852 C   0  0  2  0  0  0  0  0  0  0  0  0
   11.0064   -3.8193   -4.2940 C   0  0  0  0  0  0  0  0  0  0  0  0
   10.0712   -5.0143   -4.2757 C   0  0  1  0  0  0  0  0  0  0  0  0
    8.7865   -4.7457   -3.4906 C   0  0  2  0  0  0  0  0  0  0  0  0
    9.1034   -4.1691   -2.0913 C   0  0  1  0  0  0  0  0  0  0  0  0
   10.2240   -3.1231   -2.0237 C   0  0  1  0  0  0  0  0  0  0  0  0
   12.3304   -2.3186   -2.9309 N   0  3  0  0  0  0  0  0  0  0  0  0
    9.7643   -5.3934   -5.6411 N   0  3  0  0  0  0  0  0  0  0  0  0
    7.9113   -3.6613   -1.4433 O   0  0  0  0  0  0  0  0  0  0  0  0
   10.6325   -2.9412   -0.6720 O   0  0  0  0  0  0  0  0  0  0  0  0
  1  2  1  0  0  0  0
  3  2  1  1  0  0  0
  3  4  1  0  0  0  0
  3  5  1  0  0  0  0
  4  8  1  0  0  0  0
  5  6  1  0  0  0  0
  5 12  1  6  0  0  0
  6  7  1  6  0  0  0
  6  8  1  0  0  0  0
  8 41  1  1  0  0  0
  9 10  1  0  0  0  0
  9 17  1  0  0  0  0
  9 19  1  1  0  0  0
 10 11  1  0  0  0  0
 11 12  1  1  0  0  0
 11 13  1  0  0  0  0
 13 14  1  1  0  0  0
 13 15  1  0  0  0  0
 15 16  1  6  0  0  0
 15 17  1  0  0  0  0
 17 18  1  1  0  0  0
 19 20  1  0  0  0  0
 21 22  1  0  0  0  0
 21 29  1  0  0  0  0
 21 31  1  6  0  0  0
 22 23  1  0  0  0  0
 23 24  1  6  0  0  0
 23 25  1  0  0  0  0
 25 26  1  1  0  0  0
 25 27  1  0  0  0  0
 27 28  1  1  0  0  0
 27 29  1  0  0  0  0
 29 30  1  6  0  0  0
 31 32  1  0  0  0  0
 33 34  1  0  0  0  0
 33 38  1  0  0  0  0
 33 39  1  6  0  0  0
 34 35  1  0  0  0  0
 35 36  1  0  0  0  0
 35 40  1  6  0  0  0
 36 24  1  1  0  0  0
 36 37  1  0  0  0  0
 37 38  1  0  0  0  0
 37 41  1  6  0  0  0
 38 42  1  1  0  0  0
M  CHG  6  14   1  20   1  26   1  32   1  39   1  40   1
M  END
>  <CHROM.1>
58.61825249,28.75806235,-95.23158368,47.43029004,-32.48903645,62.39907921
-162.53818303,119.56089013,-179.33241674,-178.42070669,-82.97704184,-44.45095290
63.32019960,-134.02076355,-167.22283989,66.50192932,-141.53667906,-171.31188416
175.54883453,60.98695404,-59.11976665,163.08189915,8.01857234,-2.55522060
-1.98887427,-1.44221850,-0.27972598,-2.44336150

>  <Name>


>  <RI>
0

>  <Rbt.Current_Directory>
/home/itssahil/PROJECTS/Mol_Feturizer/New_Systems/rnas/1qd3

>  <Rbt.Executable>
rbdock ($Id: //depot/dev/client3/rdock/2013.1/src/exe/rbdock.cxx#4 $)

>  <Rbt.Library>
libRbt.so (2013.1, Build901 2013/11/27)

>  <Rbt.Parameter_File>
/export/apps/rDock/src/rDock_2013.1_src/data/scripts/dock_solv.prm

>  <Rbt.Receptor>
prm/pocket_docking_2.prm

>  <SCORE>
-41.4988

>  <SCORE.INTER>
-30.356

>  <SCORE.INTER.CONST>
1

>  <SCORE.INTER.POLAR>
-6.18828

>  <SCORE.INTER.ROT>
9

>  <SCORE.INTER.SOLV>
40.4652

>  <SCORE.INTER.VDW>
-22.6981

>  <SCORE.INTER.norm>
-0.722762

>  <SCORE.INTRA>
-15.7378

>  <SCORE.INTRA.DIHEDRAL>
-8.58183

>  <SCORE.INTRA.DIHEDRAL.0>
40.6252

>  <SCORE.INTRA.POLAR>
-0.518885

>  <SCORE.INTRA.POLAR.0>
-1.20161

>  <SCORE.INTRA.REPUL>
-0.114623

>  <SCORE.INTRA.REPUL.0>
0.115675

>  <SCORE.INTRA.SOLV>
-3.67485

>  <SCORE.INTRA.SOLV.lig_0>
-154.895

>  <SCORE.INTRA.VDW>
-7.27216

>  <SCORE.INTRA.VDW.0>
2.2925

>  <SCORE.INTRA.norm>
-0.37471

>  <SCORE.RESTR>
4.595

>  <SCORE.RESTR.CAVITY>
4.595

>  <SCORE.RESTR.norm>
0.109405

>  <SCORE.SYSTEM>
0

>  <SCORE.SYSTEM.CONST>
0

>  <SCORE.SYSTEM.DIHEDRAL>
0

>  <SCORE.SYSTEM.SOLV>
0

>  <SCORE.SYSTEM.norm>
0

>  <SCORE.heavy>
42

>  <SCORE.norm>
-0.988067

>  <RMSD>
9.599

$$$$

 OpenBabel11021811413D
libRbt.so/2013.1/901 2013/11/27
 42 45  0  0  0  0  0  0  0  0999 V2000
   10.4462    3.5579   -0.7057 O   0  0  0  0  0  0  0  0  0  0  0  0
   10.1303    2.4690    0.1499 C   0  0  0  0  0  0  0  0  0  0  0  0
    9.1761    1.5102   -0.5634 C   0  0  1  0  0  0  0  0  0  0  0  0
    9.8726    0.7064   -1.5403 O   0  0  0  0  0  0  0  0  0  0  0  0
    8.4980    0.5251    0.3743 C   0  0  2  0  0  0  0  0  0  0  0  0
    8.0622   -0.5433   -0.6143 C   0  0  1  0  0  0  0  0  0  0  0  0
    6.9058   -0.1041   -1.3184 O   0  0  0  0  0  0  0  0  0  0  0  0
    9.2667   -0.6106   -1.5752 C   0  0  2  0  0  0  0  0  0  0  0  0
    7.2493    3.5724    3.7726 C   0  0  2  0  0  0  0  0  0  0  0  0
    6.8517    2.8479    2.5985 O   0  0  0  0  0  0  0  0  0  0  0  0
    7.7801    1.7971    2.2750 C   0  0  2  0  0  0  0  0  0  0  0  0
    7.3830    1.1282    1.0600 O   0  0  0  0  0  0  0  0  0  0  0  0
    7.8822    0.7879    3.4315 C   0  0  2  0  0  0  0  0  0  0  0  0
    6.7226   -0.0844    3.4575 N   0  3  0  0  0  0  0  0  0  0  0  0
    8.0812    1.4578    4.7962 C   0  0  1  0  0  0  0  0  0  0  0  0
    9.4331    1.8677    4.9270 O   0  0  0  0  0  0  0  0  0  0  0  0
    7.1616    2.6605    4.9897 C   0  0  2  0  0  0  0  0  0  0  0  0
    5.8212    2.2216    5.1773 O   0  0  0  0  0  0  0  0  0  0  0  0
    6.3802    4.8128    3.9594 C   0  0  0  0  0  0  0  0  0  0  0  0
    7.1544    6.0153    3.7155 N   0  3  0  0  0  0  0  0  0  0  0  0
    9.0444   -6.9973   -3.3995 C   0  0  1  0  0  0  0  0  0  0  0  0
    8.4962   -5.7580   -3.8950 O   0  0  0  0  0  0  0  0  0  0  0  0
    8.4647   -4.7078   -2.9013 C   0  0  2  0  0  0  0  0  0  0  0  0
    9.7958   -4.2991   -2.5000 O   0  0  0  0  0  0  0  0  0  0  0  0
    7.6288   -5.1358   -1.6889 C   0  0  2  0  0  0  0  0  0  0  0  0
    7.7777   -4.1680   -0.6179 N   0  3  0  0  0  0  0  0  0  0  0  0
    8.0366   -6.5137   -1.1794 C   0  0  1  0  0  0  0  0  0  0  0  0
    7.0935   -6.9673   -0.2209 O   0  0  0  0  0  0  0  0  0  0  0  0
    8.1680   -7.5482   -2.2866 C   0  0  2  0  0  0  0  0  0  0  0  0
    8.7280   -8.7492   -1.7759 O   0  0  0  0  0  0  0  0  0  0  0  0
    9.0813   -8.0359   -4.5170 C   0  0  0  0  0  0  0  0  0  0  0  0
    7.8388   -8.0281   -5.2672 N   0  3  0  0  0  0  0  0  0  0  0  0
   12.6698   -1.5529   -4.0158 C   0  0  2  0  0  0  0  0  0  0  0  0
   11.7268   -2.2133   -5.0021 C   0  0  0  0  0  0  0  0  0  0  0  0
   11.0664   -3.4271   -4.3750 C   0  0  1  0  0  0  0  0  0  0  0  0
   10.2269   -3.0730   -3.1467 C   0  0  2  0  0  0  0  0  0  0  0  0
   11.0376   -2.2098   -2.1525 C   0  0  1  0  0  0  0  0  0  0  0  0
   11.9207   -1.1145   -2.7647 C   0  0  1  0  0  0  0  0  0  0  0  0
   13.2913   -0.4009   -4.6407 N   0  3  0  0  0  0  0  0  0  0  0  0
   10.2522   -4.0899   -5.3750 N   0  3  0  0  0  0  0  0  0  0  0  0
   10.1881   -1.6445   -1.1240 O   0  0  0  0  0  0  0  0  0  0  0  0
   12.8465   -0.6420   -1.7916 O   0  0  0  0  0  0  0  0  0  0  0  0
  1  2  1  0  0  0  0
  3  2  1  1  0  0  0
  3  4  1  0  0  0  0
  3  5  1  0  0  0  0
  4  8  1  0  0  0  0
  5  6  1  0  0  0  0
  5 12  1  6  0  0  0
  6  7  1  6  0  0  0
  6  8  1  0  0  0  0
  8 41  1  1  0  0  0
  9 10  1  0  0  0  0
  9 17  1  0  0  0  0
  9 19  1  1  0  0  0
 10 11  1  0  0  0  0
 11 12  1  6  0  0  0
 11 13  1  0  0  0  0
 13 14  1  1  0  0  0
 13 15  1  0  0  0  0
 15 16  1  6  0  0  0
 15 17  1  0  0  0  0
 17 18  1  6  0  0  0
 19 20  1  0  0  0  0
 21 22  1  0  0  0  0
 21 29  1  0  0  0  0
 21 31  1  6  0  0  0
 22 23  1  0  0  0  0
 23 24  1  1  0  0  0
 23 25  1  0  0  0  0
 25 26  1  1  0  0  0
 25 27  1  0  0  0  0
 27 28  1  1  0  0  0
 27 29  1  0  0  0  0
 29 30  1  1  0  0  0
 31 32  1  0  0  0  0
 33 34  1  0  0  0  0
 33 38  1  0  0  0  0
 33 39  1  6  0  0  0
 34 35  1  0  0  0  0
 35 36  1  0  0  0  0
 35 40  1  6  0  0  0
 36 24  1  1  0  0  0
 36 37  1  0  0  0  0
 37 38  1  0  0  0  0
 37 41  1  1  0  0  0
 38 42  1  1  0  0  0
M  CHG  6  14   1  20   1  26   1  32   1  39   1  40   1
M  END
>  <CHROM.1>
-33.21547089,76.06253753,-87.06384791,-170.80714738,-87.73230476,-110.38708492
153.97604991,-176.51351779,-150.47772890,-168.86452892,-139.03553543,-44.33037513
100.47916392,-95.95883578,171.33717103,-53.54384285,-173.42374803,-163.80439254
-46.45988120,-43.02893931,-69.70669498,-52.24869897,8.92542824,-1.43843700
-0.61317559,-1.80716796,-0.84739398,-2.65733510

>  <Name>


>  <RI>
0

>  <Rbt.Current_Directory>
/home/itssahil/PROJECTS/Mol_Feturizer/New_Systems/rnas/1qd3

>  <Rbt.Executable>
rbdock ($Id: //depot/dev/client3/rdock/2013.1/src/exe/rbdock.cxx#4 $)

>  <Rbt.Library>
libRbt.so (2013.1, Build901 2013/11/27)

>  <Rbt.Parameter_File>
/export/apps/rDock/src/rDock_2013.1_src/data/scripts/dock_solv.prm

>  <Rbt.Receptor>
prm/pocket_docking_5.prm

>  <SCORE>
-61.4106

>  <SCORE.INTER>
-48.0661

>  <SCORE.INTER.CONST>
1

>  <SCORE.INTER.POLAR>
-8.20399

>  <SCORE.INTER.ROT>
9

>  <SCORE.INTER.SOLV>
42.2433

>  <SCORE.INTER.VDW>
-28.3785

>  <SCORE.INTER.norm>
-1.14443

>  <SCORE.INTRA>
-13.3864

>  <SCORE.INTRA.DIHEDRAL>
0.325415

>  <SCORE.INTRA.DIHEDRAL.0>
40.6252

>  <SCORE.INTRA.POLAR>
0.0318346

>  <SCORE.INTRA.POLAR.0>
-1.20161

>  <SCORE.INTRA.REPUL>
-0.115675

>  <SCORE.INTRA.REPUL.0>
0.115675

>  <SCORE.INTRA.SOLV>
-9.93371

>  <SCORE.INTRA.SOLV.lig_0>
-154.895

>  <SCORE.INTRA.VDW>
-8.11209

>  <SCORE.INTRA.VDW.0>
2.2925

>  <SCORE.INTRA.norm>
-0.318723

>  <SCORE.RESTR>
0.0418567

>  <SCORE.RESTR.CAVITY>
0.0418567

>  <SCORE.RESTR.norm>
0.000996587

>  <SCORE.SYSTEM>
0

>  <SCORE.SYSTEM.CONST>
0

>  <SCORE.SYSTEM.DIHEDRAL>
0

>  <SCORE.SYSTEM.SOLV>
0

>  <SCORE.SYSTEM.norm>
0

>  <SCORE.heavy>
42

>  <SCORE.norm>
-1.46216

>  <RMSD>
9.600

$$$$

 OpenBabel11021811413D
libRbt.so/2013.1/901 2013/11/27
 42 45  0  0  0  0  0  0  0  0999 V2000
   11.9278   -4.4713   -0.5960 O   0  0  0  0  0  0  0  0  0  0  0  0
   10.9260   -3.4870   -0.8089 C   0  0  0  0  0  0  0  0  0  0  0  0
   11.0431   -2.9275   -2.2272 C   0  0  1  0  0  0  0  0  0  0  0  0
   10.5285   -3.8592   -3.2033 O   0  0  0  0  0  0  0  0  0  0  0  0
   10.2633   -1.6397   -2.4341 C   0  0  2  0  0  0  0  0  0  0  0  0
   10.1523   -1.6234   -3.9495 C   0  0  1  0  0  0  0  0  0  0  0  0
   11.3887   -1.2058   -4.5177 O   0  0  0  0  0  0  0  0  0  0  0  0
    9.9015   -3.1099   -4.2750 C   0  0  2  0  0  0  0  0  0  0  0  0
   10.3912    1.8737    0.7934 C   0  0  2  0  0  0  0  0  0  0  0  0
   10.9296    1.3332   -0.4229 O   0  0  0  0  0  0  0  0  0  0  0  0
   10.3759    0.0406   -0.7282 C   0  0  2  0  0  0  0  0  0  0  0  0
   10.9797   -0.4987   -1.9225 O   0  0  0  0  0  0  0  0  0  0  0  0
    8.8492    0.1296   -0.8949 C   0  0  2  0  0  0  0  0  0  0  0  0
    8.5046    0.7109   -2.1794 N   0  3  0  0  0  0  0  0  0  0  0  0
    8.1654    0.8970    0.2428 C   0  0  1  0  0  0  0  0  0  0  0  0
    8.0734    0.0614    1.3857 O   0  0  0  0  0  0  0  0  0  0  0  0
    8.9105    2.1787    0.6055 C   0  0  2  0  0  0  0  0  0  0  0  0
    8.7366    3.1485   -0.4210 O   0  0  0  0  0  0  0  0  0  0  0  0
   11.1555    3.1273    1.2096 C   0  0  0  0  0  0  0  0  0  0  0  0
   11.5889    3.8681    0.0399 N   0  3  0  0  0  0  0  0  0  0  0  0
    7.5710   -6.9056   -7.4657 C   0  0  1  0  0  0  0  0  0  0  0  0
    8.0506   -5.6631   -6.9104 O   0  0  0  0  0  0  0  0  0  0  0  0
    7.4723   -5.3504   -5.6223 C   0  0  2  0  0  0  0  0  0  0  0  0
    7.8710   -6.2997   -4.6027 O   0  0  0  0  0  0  0  0  0  0  0  0
    5.9450   -5.2570   -5.7238 C   0  0  2  0  0  0  0  0  0  0  0  0
    5.3657   -5.1536   -4.3974 N   0  3  0  0  0  0  0  0  0  0  0  0
    5.3511   -6.4665   -6.4371 C   0  0  1  0  0  0  0  0  0  0  0  0
    3.9800   -6.2306   -6.7173 O   0  0  0  0  0  0  0  0  0  0  0  0
    6.0762   -6.8183   -7.7270 C   0  0  2  0  0  0  0  0  0  0  0  0
    5.5994   -8.0537   -8.2401 O   0  0  0  0  0  0  0  0  0  0  0  0
    8.2590   -7.1816   -8.7995 C   0  0  0  0  0  0  0  0  0  0  0  0
    9.6601   -7.5028   -8.5984 N   0  3  0  0  0  0  0  0  0  0  0  0
    7.8107   -4.4772   -0.7589 C   0  0  2  0  0  0  0  0  0  0  0  0
    8.5455   -5.7944   -0.9108 C   0  0  0  0  0  0  0  0  0  0  0  0
    8.1352   -6.4867   -2.1973 C   0  0  1  0  0  0  0  0  0  0  0  0
    8.4663   -5.6623   -3.4421 C   0  0  2  0  0  0  0  0  0  0  0  0
    7.9362   -4.2162   -3.3053 C   0  0  1  0  0  0  0  0  0  0  0  0
    8.1109   -3.5541   -1.9322 C   0  0  1  0  0  0  0  0  0  0  0  0
    8.2158   -3.8393    0.4792 N   0  3  0  0  0  0  0  0  0  0  0  0
    8.7783   -7.7847   -2.2598 N   0  3  0  0  0  0  0  0  0  0  0  0
    8.4673   -3.3550   -4.3422 O   0  0  0  0  0  0  0  0  0  0  0  0
    7.2929   -2.3917   -1.8501 O   0  0  0  0  0  0  0  0  0  0  0  0
  1  2  1  0  0  0  0
  3  2  1  1  0  0  0
  3  4  1  0  0  0  0
  3  5  1  0  0  0  0
  4  8  1  0  0  0  0
  5  6  1  0  0  0  0
  5 12  1  6  0  0  0
  6  7  1  6  0  0  0
  6  8  1  0  0  0  0
  8 41  1  1  0  0  0
  9 10  1  0  0  0  0
  9 17  1  0  0  0  0
  9 19  1  6  0  0  0
 10 11  1  0  0  0  0
 11 12  1  6  0  0  0
 11 13  1  0  0  0  0
 13 14  1  6  0  0  0
 13 15  1  0  0  0  0
 15 16  1  1  0  0  0
 15 17  1  0  0  0  0
 17 18  1  6  0  0  0
 19 20  1  0  0  0  0
 21 22  1  0  0  0  0
 21 29  1  0  0  0  0
 21 31  1  6  0  0  0
 22 23  1  0  0  0  0
 23 24  1  1  0  0  0
 23 25  1  0  0  0  0
 25 26  1  1  0  0  0
 25 27  1  0  0  0  0
 27 28  1  6  0  0  0
 27 29  1  0  0  0  0
 29 30  1  1  0  0  0
 31 32  1  0  0  0  0
 33 34  1  0  0  0  0
 33 38  1  0  0  0  0
 33 39  1  1  0  0  0
 34 35  1  0  0  0  0
 35 36  1  0  0  0  0
 35 40  1  6  0  0  0
 36 24  1  6  0  0  0
 36 37  1  0  0  0  0
 37 38  1  0  0  0  0
 37 41  1  6  0  0  0
 38 42  1  6  0  0  0
M  CHG  6  14   1  20   1  26   1  32   1  39   1  40   1
M  END
>  <CHROM.1>
75.21154323,75.63592663,-108.90311100,70.58411749,3.40902523,34.13215642
-167.16973071,-166.68332220,-70.46095277,-66.33769624,-175.10638007,69.69704375
125.61748440,148.12739658,-156.50954453,-169.88157037,-177.75441784,54.61460589
-99.84953662,62.10015648,-66.65613153,54.87829301,8.71169331,-3.08481880
-3.00338021,0.15999509,1.27963243,2.08121303

>  <Name>


>  <RI>
0

>  <Rbt.Current_Directory>
/home/itssahil/PROJECTS/Mol_Feturizer/New_Systems/rnas/1qd3

>  <Rbt.Executable>
rbdock ($Id: //depot/dev/client3/rdock/2013.1/src/exe/rbdock.cxx#4 $)

>  <Rbt.Library>
libRbt.so (2013.1, Build901 2013/11/27)

>  <Rbt.Parameter_File>
/export/apps/rDock/src/rDock_2013.1_src/data/scripts/dock_solv.prm

>  <Rbt.Receptor>
prm/pocket_docking_3.prm

>  <SCORE>
-23.6861

>  <SCORE.INTER>
-23.9774

>  <SCORE.INTER.CONST>
1

>  <SCORE.INTER.POLAR>
-4.30293

>  <SCORE.INTER.ROT>
9

>  <SCORE.INTER.SOLV>
30.399

>  <SCORE.INTER.VDW>
-21.3748

>  <SCORE.INTER.norm>
-0.57089

>  <SCORE.INTRA>
-1.13258

>  <SCORE.INTRA.DIHEDRAL>
-3.55699

>  <SCORE.INTRA.DIHEDRAL.0>
40.6252

>  <SCORE.INTRA.POLAR>
1.15256

>  <SCORE.INTRA.POLAR.0>
-1.20161

>  <SCORE.INTRA.REPUL>
-0.097699

>  <SCORE.INTRA.REPUL.0>
0.115675

>  <SCORE.INTRA.SOLV>
-3.0037

>  <SCORE.INTRA.SOLV.lig_0>
-154.895

>  <SCORE.INTRA.VDW>
-1.28243

>  <SCORE.INTRA.VDW.0>
2.2925

>  <SCORE.INTRA.norm>
-0.0269661

>  <SCORE.RESTR>
1.42388

>  <SCORE.RESTR.CAVITY>
1.42388

>  <SCORE.RESTR.norm>
0.0339018

>  <SCORE.SYSTEM>
0

>  <SCORE.SYSTEM.CONST>
0

>  <SCORE.SYSTEM.DIHEDRAL>
0

>  <SCORE.SYSTEM.SOLV>
0

>  <SCORE.SYSTEM.norm>
0

>  <SCORE.heavy>
42

>  <SCORE.norm>
-0.563955

>  <RMSD>
9.601

$$$$

 OpenBabel11021811413D
libRbt.so/2013.1/901 2013/11/27
 42 45  0  0  0  0  0  0  0  0999 V2000
   10.9470   -5.4806    0.5117 O   0  0  0  0  0  0  0  0  0  0  0  0
   11.7626   -5.1385   -0.5998 C   0  0  0  0  0  0  0  0  0  0  0  0
   11.3706   -5.9871   -1.8100 C   0  0  1  0  0  0  0  0  0  0  0  0
   10.1246   -6.6812   -1.5833 O   0  0  0  0  0  0  0  0  0  0  0  0
   11.1654   -5.1731   -3.0768 C   0  0  2  0  0  0  0  0  0  0  0  0
   10.3363   -6.1451   -3.8995 C   0  0  1  0  0  0  0  0  0  0  0  0
   11.1785   -7.1562   -4.4419 O   0  0  0  0  0  0  0  0  0  0  0  0
    9.4003   -6.7568   -2.8373 C   0  0  2  0  0  0  0  0  0  0  0  0
   14.0524   -1.7488   -4.7434 C   0  0  2  0  0  0  0  0  0  0  0  0
   13.8213   -3.1578   -4.5921 O   0  0  0  0  0  0  0  0  0  0  0  0
   12.5929   -3.4290   -3.8934 C   0  0  2  0  0  0  0  0  0  0  0  0
   12.4202   -4.8493   -3.7074 O   0  0  0  0  0  0  0  0  0  0  0  0
   11.3933   -2.8404   -4.6556 C   0  0  2  0  0  0  0  0  0  0  0  0
   11.0590   -3.6629   -5.8037 N   0  3  0  0  0  0  0  0  0  0  0  0
   11.6106   -1.3841   -5.0832 C   0  0  1  0  0  0  0  0  0  0  0  0
   11.4218   -0.5318   -3.9647 O   0  0  0  0  0  0  0  0  0  0  0  0
   13.0002   -1.1552   -5.6713 C   0  0  2  0  0  0  0  0  0  0  0  0
   13.0876   -1.7553   -6.9584 O   0  0  0  0  0  0  0  0  0  0  0  0
   15.4577   -1.4888   -5.2786 C   0  0  0  0  0  0  0  0  0  0  0  0
   15.8594   -2.5491   -6.1837 N   0  3  0  0  0  0  0  0  0  0  0  0
    6.0445   -8.6814   -6.3670 C   0  0  1  0  0  0  0  0  0  0  0  0
    7.0206   -7.8751   -5.6747 O   0  0  0  0  0  0  0  0  0  0  0  0
    6.4338   -6.8002   -4.9055 C   0  0  2  0  0  0  0  0  0  0  0  0
    5.6299   -7.2946   -3.8060 O   0  0  0  0  0  0  0  0  0  0  0  0
    5.6185   -5.8697   -5.8117 C   0  0  2  0  0  0  0  0  0  0  0  0
    4.8679   -4.9253   -5.0052 N   0  3  0  0  0  0  0  0  0  0  0  0
    4.6539   -6.6481   -6.6995 C   0  0  1  0  0  0  0  0  0  0  0  0
    4.0984   -5.7816   -7.6766 O   0  0  0  0  0  0  0  0  0  0  0  0
    5.3017   -7.8381   -7.3905 C   0  0  2  0  0  0  0  0  0  0  0  0
    4.3172   -8.6242   -8.0458 O   0  0  0  0  0  0  0  0  0  0  0  0
    6.7398   -9.8139   -7.1170 C   0  0  0  0  0  0  0  0  0  0  0  0
    7.4963  -10.6484   -6.2015 N   0  3  0  0  0  0  0  0  0  0  0  0
    6.6789   -7.6634    0.3005 C   0  0  2  0  0  0  0  0  0  0  0  0
    6.2380   -8.9125   -0.4366 C   0  0  0  0  0  0  0  0  0  0  0  0
    5.5317   -8.5459   -1.7287 C   0  0  1  0  0  0  0  0  0  0  0  0
    6.4310   -7.7711   -2.6930 C   0  0  2  0  0  0  0  0  0  0  0  0
    7.1067   -6.5766   -1.9807 C   0  0  1  0  0  0  0  0  0  0  0  0
    7.6242   -6.8355   -0.5596 C   0  0  1  0  0  0  0  0  0  0  0  0
    7.3451   -8.0407    1.5325 N   0  3  0  0  0  0  0  0  0  0  0  0
    5.0363   -9.7562   -2.3548 N   0  3  0  0  0  0  0  0  0  0  0  0
    8.1575   -5.9984   -2.7933 O   0  0  0  0  0  0  0  0  0  0  0  0
    7.9001   -5.5968    0.0860 O   0  0  0  0  0  0  0  0  0  0  0  0
  1  2  1  0  0  0  0
  3  2  1  1  0  0  0
  3  4  1  0  0  0  0
  3  5  1  0  0  0  0
  4  8  1  0  0  0  0
  5  6  1  0  0  0  0
  5 12  1  6  0  0  0
  6  7  1  1  0  0  0
  6  8  1  0  0  0  0
  8 41  1  1  0  0  0
  9 10  1  0  0  0  0
  9 17  1  0  0  0  0
  9 19  1  6  0  0  0
 10 11  1  0  0  0  0
 11 12  1  6  0  0  0
 11 13  1  0  0  0  0
 13 14  1  6  0  0  0
 13 15  1  0  0  0  0
 15 16  1  1  0  0  0
 15 17  1  0  0  0  0
 17 18  1  6  0  0  0
 19 20  1  0  0  0  0
 21 22  1  0  0  0  0
 21 29  1  0  0  0  0
 21 31  1  6  0  0  0
 22 23  1  0  0  0  0
 23 24  1  1  0  0  0
 23 25  1  0  0  0  0
 25 26  1  1  0  0  0
 25 27  1  0  0  0  0
 27 28  1  6  0  0  0
 27 29  1  0  0  0  0
 29 30  1  1  0  0  0
 31 32  1  0  0  0  0
 33 34  1  0  0  0  0
 33 38  1  0  0  0  0
 33 39  1  1  0  0  0
 34 35  1  0  0  0  0
 35 36  1  0  0  0  0
 35 40  1  6  0  0  0
 36 24  1  6  0  0  0
 36 37  1  0  0  0  0
 37 38  1  0  0  0  0
 37 41  1  6  0  0  0
 38 42  1  1  0  0  0
M  CHG  6  14   1  20   1  26   1  32   1  39   1  40   1
M  END
>  <CHROM.1>
-59.74171726,12.11775951,-123.80789013,-62.10532307,-71.82593320,33.65032200
-176.76426167,-80.28477022,59.72797715,-67.91163666,178.04889932,58.80032600
76.09009396,-167.63322199,47.08750446,59.01217222,-176.93460862,-47.90090451
-60.64688971,62.27938401,-76.21820733,-57.19663935,9.01579993,-5.80304871
-3.91262598,-0.20168355,0.60669079,1.81829060

>  <Name>


>  <RI>
0

>  <Rbt.Current_Directory>
/home/itssahil/PROJECTS/Mol_Feturizer/New_Systems/rnas/1qd3

>  <Rbt.Executable>
rbdock ($Id: //depot/dev/client3/rdock/2013.1/src/exe/rbdock.cxx#4 $)

>  <Rbt.Library>
libRbt.so (2013.1, Build901 2013/11/27)

>  <Rbt.Parameter_File>
/export/apps/rDock/src/rDock_2013.1_src/data/scripts/dock_solv.prm

>  <Rbt.Receptor>
prm/pocket_docking_7.prm

>  <SCORE>
-54.4182

>  <SCORE.INTER>
-31.4763

>  <SCORE.INTER.CONST>
1

>  <SCORE.INTER.POLAR>
-6.30076

>  <SCORE.INTER.ROT>
9

>  <SCORE.INTER.SOLV>
20.6733

>  <SCORE.INTER.VDW>
-16.4728

>  <SCORE.INTER.norm>
-0.749437

>  <SCORE.INTRA>
-22.9418

>  <SCORE.INTRA.DIHEDRAL>
-18.4478

>  <SCORE.INTRA.DIHEDRAL.0>
40.6252

>  <SCORE.INTRA.POLAR>
-0.414383

>  <SCORE.INTRA.POLAR.0>
-1.20161

>  <SCORE.INTRA.REPUL>
-0.115675

>  <SCORE.INTRA.REPUL.0>
0.115675

>  <SCORE.INTRA.SOLV>
-9.66924

>  <SCORE.INTRA.SOLV.lig_0>
-154.895

>  <SCORE.INTRA.VDW>
-6.89605

>  <SCORE.INTRA.VDW.0>
2.2925

>  <SCORE.INTRA.norm>
-0.546234

>  <SCORE.RESTR>
0

>  <SCORE.RESTR.CAVITY>
0

>  <SCORE.RESTR.norm>
0

>  <SCORE.SYSTEM>
0

>  <SCORE.SYSTEM.CONST>
0

>  <SCORE.SYSTEM.DIHEDRAL>
0

>  <SCORE.SYSTEM.SOLV>
0

>  <SCORE.SYSTEM.norm>
0

>  <SCORE.heavy>
42

>  <SCORE.norm>
-1.29567

>  <RMSD>
9.609

$$$$

 OpenBabel11021811413D
libRbt.so/2013.1/901 2013/11/27
 42 45  0  0  0  0  0  0  0  0999 V2000
   13.1261   -8.1849   -1.4248 O   0  0  0  0  0  0  0  0  0  0  0  0
   13.0227   -6.7682   -1.4199 C   0  0  0  0  0  0  0  0  0  0  0  0
   12.3795   -6.2917   -2.7228 C   0  0  1  0  0  0  0  0  0  0  0  0
   11.0324   -6.7944   -2.8579 O   0  0  0  0  0  0  0  0  0  0  0  0
   12.2680   -4.7794   -2.8228 C   0  0  2  0  0  0  0  0  0  0  0  0
   11.1982   -4.6507   -3.8942 C   0  0  1  0  0  0  0  0  0  0  0  0
   11.7681   -4.8975   -5.1749 O   0  0  0  0  0  0  0  0  0  0  0  0
   10.2266   -5.7899   -3.5246 C   0  0  2  0  0  0  0  0  0  0  0  0
   16.1543   -2.5445   -1.2892 C   0  0  2  0  0  0  0  0  0  0  0  0
   15.5292   -3.2808   -2.3516 O   0  0  0  0  0  0  0  0  0  0  0  0
   14.1061   -3.3876   -2.1668 C   0  0  2  0  0  0  0  0  0  0  0  0
   13.5180   -4.1811   -3.2185 O   0  0  0  0  0  0  0  0  0  0  0  0
   13.4581   -1.9931   -2.1237 C   0  0  2  0  0  0  0  0  0  0  0  0
   13.3608   -1.4291   -3.4574 N   0  3  0  0  0  0  0  0  0  0  0  0
   14.1827   -1.0239   -1.1822 C   0  0  1  0  0  0  0  0  0  0  0  0
   13.8295   -1.3187    0.1599 O   0  0  0  0  0  0  0  0  0  0  0  0
   15.6995   -1.0915   -1.3381 C   0  0  2  0  0  0  0  0  0  0  0  0
   16.0877   -0.4979   -2.5716 O   0  0  0  0  0  0  0  0  0  0  0  0
   17.6740   -2.6418   -1.3892 C   0  0  0  0  0  0  0  0  0  0  0  0
   18.1064   -4.0154   -1.2132 N   0  3  0  0  0  0  0  0  0  0  0  0
    5.1762   -7.1880   -6.5038 C   0  0  1  0  0  0  0  0  0  0  0  0
    4.7375   -6.8419   -5.1735 O   0  0  0  0  0  0  0  0  0  0  0  0
    5.7924   -6.9105   -4.1866 C   0  0  2  0  0  0  0  0  0  0  0  0
    6.8223   -5.9189   -4.4222 O   0  0  0  0  0  0  0  0  0  0  0  0
    6.3874   -8.3227   -4.1288 C   0  0  2  0  0  0  0  0  0  0  0  0
    7.5751   -8.3262   -3.2950 N   0  3  0  0  0  0  0  0  0  0  0  0
    6.7480   -8.8411   -5.5165 C   0  0  1  0  0  0  0  0  0  0  0  0
    7.0686  -10.2217   -5.4426 O   0  0  0  0  0  0  0  0  0  0  0  0
    5.6425   -8.6342   -6.5404 C   0  0  2  0  0  0  0  0  0  0  0  0
    6.1071   -8.9625   -7.8416 O   0  0  0  0  0  0  0  0  0  0  0  0
    4.0182   -7.0497   -7.4881 C   0  0  0  0  0  0  0  0  0  0  0  0
    4.5044   -7.0392   -8.8557 N   0  3  0  0  0  0  0  0  0  0  0  0
    7.3389   -1.9479   -2.9856 C   0  0  2  0  0  0  0  0  0  0  0  0
    5.9586   -2.5668   -2.8866 C   0  0  0  0  0  0  0  0  0  0  0  0
    5.8567   -3.7851   -3.7855 C   0  0  1  0  0  0  0  0  0  0  0  0
    6.8502   -4.8837   -3.4047 C   0  0  2  0  0  0  0  0  0  0  0  0
    8.2814   -4.3138   -3.2719 C   0  0  1  0  0  0  0  0  0  0  0  0
    8.4099   -2.9509   -2.5787 C   0  0  1  0  0  0  0  0  0  0  0  0
    7.4082   -0.7840   -2.1228 N   0  3  0  0  0  0  0  0  0  0  0  0
    4.4980   -4.2896   -3.7432 N   0  3  0  0  0  0  0  0  0  0  0  0
    9.1792   -5.2698   -2.6563 O   0  0  0  0  0  0  0  0  0  0  0  0
    9.7002   -2.4032   -2.8280 O   0  0  0  0  0  0  0  0  0  0  0  0
  1  2  1  0  0  0  0
  3  2  1  1  0  0  0
  3  4  1  0  0  0  0
  3  5  1  0  0  0  0
  4  8  1  0  0  0  0
  5  6  1  0  0  0  0
  5 12  1  6  0  0  0
  6  7  1  6  0  0  0
  6  8  1  0  0  0  0
  8 41  1  1  0  0  0
  9 10  1  0  0  0  0
  9 17  1  0  0  0  0
  9 19  1  6  0  0  0
 10 11  1  0  0  0  0
 11 12  1  6  0  0  0
 11 13  1  0  0  0  0
 13 14  1  6  0  0  0
 13 15  1  0  0  0  0
 15 16  1  1  0  0  0
 15 17  1  0  0  0  0
 17 18  1  6  0  0  0
 19 20  1  0  0  0  0
 21 22  1  0  0  0  0
 21 29  1  0  0  0  0
 21 31  1  6  0  0  0
 22 23  1  0  0  0  0
 23 24  1  6  0  0  0
 23 25  1  0  0  0  0
 25 26  1  1  0  0  0
 25 27  1  0  0  0  0
 27 28  1  1  0  0  0
 27 29  1  0  0  0  0
 29 30  1  6  0  0  0
 31 32  1  0  0  0  0
 33 34  1  0  0  0  0
 33 38  1  0  0  0  0
 33 39  1  1  0  0  0
 34 35  1  0  0  0  0
 35 36  1  0  0  0  0
 35 40  1  1  0  0  0
 36 24  1  6  0  0  0
 36 37  1  0  0  0  0
 37 38  1  0  0  0  0
 37 41  1  1  0  0  0
 38 42  1  6  0  0  0
M  CHG  6  14   1  20   1  26   1  32   1  39   1  40   1
M  END
>  <CHROM.1>
-179.26557848,62.64902359,-112.51175793,-175.80364461,-176.70409695,-63.66563077
155.87673610,-70.85055212,-61.11810977,-69.45161017,-70.53220951,164.70327534
111.49210448,-86.33442518,-153.28277197,57.15365182,-171.71061688,-63.54677534
-77.10304601,-43.29660005,112.79411301,64.44882015,10.04277600,-4.84638400
-3.48255886,-0.50594412,0.24570266,-2.83828207

>  <Name>


>  <RI>
0

>  <Rbt.Current_Directory>
/home/itssahil/PROJECTS/Mol_Feturizer/New_Systems/rnas/1qd3

>  <Rbt.Executable>
rbdock ($Id: //depot/dev/client3/rdock/2013.1/src/exe/rbdock.cxx#4 $)

>  <Rbt.Library>
libRbt.so (2013.1, Build901 2013/11/27)

>  <Rbt.Parameter_File>
/export/apps/rDock/src/rDock_2013.1_src/data/scripts/dock_solv.prm

>  <Rbt.Receptor>
prm/pocket_docking_7.prm

>  <SCORE>
-46.8162

>  <SCORE.INTER>
-27.1486

>  <SCORE.INTER.CONST>
1

>  <SCORE.INTER.POLAR>
-6.21795

>  <SCORE.INTER.ROT>
9

>  <SCORE.INTER.SOLV>
22.3834

>  <SCORE.INTER.VDW>
-14.4337

>  <SCORE.INTER.norm>
-0.646394

>  <SCORE.INTRA>
-19.6741

>  <SCORE.INTRA.DIHEDRAL>
-9.06322

>  <SCORE.INTRA.DIHEDRAL.0>
40.6252

>  <SCORE.INTRA.POLAR>
-0.920121

>  <SCORE.INTRA.POLAR.0>
-1.20161

>  <SCORE.INTRA.REPUL>
-0.115675

>  <SCORE.INTRA.REPUL.0>
0.115675

>  <SCORE.INTRA.SOLV>
-7.7586

>  <SCORE.INTRA.SOLV.lig_0>
-154.895

>  <SCORE.INTRA.VDW>
-7.55642

>  <SCORE.INTRA.VDW.0>
2.2925

>  <SCORE.INTRA.norm>
-0.468431

>  <SCORE.RESTR>
0.0064383

>  <SCORE.RESTR.CAVITY>
0.0064383

>  <SCORE.RESTR.norm>
0.000153293

>  <SCORE.SYSTEM>
0

>  <SCORE.SYSTEM.CONST>
0

>  <SCORE.SYSTEM.DIHEDRAL>
0

>  <SCORE.SYSTEM.SOLV>
0

>  <SCORE.SYSTEM.norm>
0

>  <SCORE.heavy>
42

>  <SCORE.norm>
-1.11467

>  <RMSD>
9.610

$$$$

 OpenBabel11021811413D
libRbt.so/2013.1/901 2013/11/27
 42 45  0  0  0  0  0  0  0  0999 V2000
    6.3723   -4.5618   -7.2438 O   0  0  0  0  0  0  0  0  0  0  0  0
    6.4190   -5.8373   -6.6204 C   0  0  0  0  0  0  0  0  0  0  0  0
    6.1201   -5.6950   -5.1274 C   0  0  1  0  0  0  0  0  0  0  0  0
    5.6570   -6.9413   -4.5636 O   0  0  0  0  0  0  0  0  0  0  0  0
    7.3334   -5.2949   -4.3046 C   0  0  2  0  0  0  0  0  0  0  0  0
    6.8800   -5.7196   -2.9178 C   0  0  1  0  0  0  0  0  0  0  0  0
    5.9596   -4.7655   -2.3997 O   0  0  0  0  0  0  0  0  0  0  0  0
    6.1516   -7.0484   -3.2046 C   0  0  2  0  0  0  0  0  0  0  0  0
   10.7351   -2.4193   -3.2427 C   0  0  2  0  0  0  0  0  0  0  0  0
    9.6892   -2.8148   -4.1433 O   0  0  0  0  0  0  0  0  0  0  0  0
    8.5938   -3.4424   -3.4526 C   0  0  2  0  0  0  0  0  0  0  0  0
    7.5884   -3.8791   -4.3907 O   0  0  0  0  0  0  0  0  0  0  0  0
    7.9799   -2.4804   -2.4210 C   0  0  2  0  0  0  0  0  0  0  0  0
    7.1508   -1.4848   -3.0751 N   0  3  0  0  0  0  0  0  0  0  0  0
    9.0303   -1.8045   -1.5319 C   0  0  1  0  0  0  0  0  0  0  0  0
    9.4665   -2.7197   -0.5394 O   0  0  0  0  0  0  0  0  0  0  0  0
   10.2314   -1.3072   -2.3316 C   0  0  2  0  0  0  0  0  0  0  0  0
    9.8635   -0.1702   -3.1039 O   0  0  0  0  0  0  0  0  0  0  0  0
   11.9704   -1.9693   -4.0176 C   0  0  0  0  0  0  0  0  0  0  0  0
   11.6499   -0.8403   -4.8705 N   0  3  0  0  0  0  0  0  0  0  0  0
    9.2600  -10.0160   -1.3666 C   0  0  1  0  0  0  0  0  0  0  0  0
    8.1574  -10.8700   -0.9966 O   0  0  0  0  0  0  0  0  0  0  0  0
    7.3839  -10.3583    0.1131 C   0  0  2  0  0  0  0  0  0  0  0  0
    6.6995   -9.1264   -0.2238 O   0  0  0  0  0  0  0  0  0  0  0  0
    8.2699  -10.1776    1.3517 C   0  0  2  0  0  0  0  0  0  0  0  0
    7.5373   -9.4711    2.3860 N   0  3  0  0  0  0  0  0  0  0  0  0
    9.5454   -9.4083    1.0266 C   0  0  1  0  0  0  0  0  0  0  0  0
   10.4350   -9.4695    2.1308 O   0  0  0  0  0  0  0  0  0  0  0  0
   10.2526   -9.9181   -0.2197 C   0  0  2  0  0  0  0  0  0  0  0  0
   11.3190   -9.0491   -0.5723 O   0  0  0  0  0  0  0  0  0  0  0  0
    9.9960  -10.6040   -2.5671 C   0  0  0  0  0  0  0  0  0  0  0  0
    9.0626  -11.2267   -3.4878 N   0  3  0  0  0  0  0  0  0  0  0  0
    4.8414  -11.2120   -3.4328 C   0  0  2  0  0  0  0  0  0  0  0  0
    4.0042  -10.8971   -2.2088 C   0  0  0  0  0  0  0  0  0  0  0  0
    4.8945  -10.5311   -1.0357 C   0  0  1  0  0  0  0  0  0  0  0  0
    5.7462   -9.2901   -1.3064 C   0  0  2  0  0  0  0  0  0  0  0  0
    6.4949   -9.4159   -2.6534 C   0  0  1  0  0  0  0  0  0  0  0  0
    5.7001  -10.0159   -3.8207 C   0  0  1  0  0  0  0  0  0  0  0  0
    3.9683  -11.5637   -4.5364 N   0  3  0  0  0  0  0  0  0  0  0  0
    4.0684  -10.3358    0.1398 N   0  3  0  0  0  0  0  0  0  0  0  0
    7.0864   -8.1550   -3.0525 O   0  0  0  0  0  0  0  0  0  0  0  0
    6.5890  -10.3833   -4.8705 O   0  0  0  0  0  0  0  0  0  0  0  0
  1  2  1  0  0  0  0
  3  2  1  6  0  0  0
  3  4  1  0  0  0  0
  3  5  1  0  0  0  0
  4  8  1  0  0  0  0
  5  6  1  0  0  0  0
  5 12  1  1  0  0  0
  6  7  1  6  0  0  0
  6  8  1  0  0  0  0
  8 41  1  6  0  0  0
  9 10  1  0  0  0  0
  9 17  1  0  0  0  0
  9 19  1  6  0  0  0
 10 11  1  0  0  0  0
 11 12  1  6  0  0  0
 11 13  1  0  0  0  0
 13 14  1  6  0  0  0
 13 15  1  0  0  0  0
 15 16  1  1  0  0  0
 15 17  1  0  0  0  0
 17 18  1  6  0  0  0
 19 20  1  0  0  0  0
 21 22  1  0  0  0  0
 21 29  1  0  0  0  0
 21 31  1  6  0  0  0
 22 23  1  0  0  0  0
 23 24  1  6  0  0  0
 23 25  1  0  0  0  0
 25 26  1  1  0  0  0
 25 27  1  0  0  0  0
 27 28  1  1  0  0  0
 27 29  1  0  0  0  0
 29 30  1  6  0  0  0
 31 32  1  0  0  0  0
 33 34  1  0  0  0  0
 33 38  1  0  0  0  0
 33 39  1  6  0  0  0
 34 35  1  0  0  0  0
 35 36  1  0  0  0  0
 35 40  1  1  0  0  0
 36 24  1  1  0  0  0
 36 37  1  0  0  0  0
 37 38  1  0  0  0  0
 37 41  1  6  0  0  0
 38 42  1  6  0  0  0
M  CHG  6  14   1  20   1  26   1  32   1  39   1  40   1
M  END
>  <CHROM.1>
-55.27323945,157.98357474,170.52235290,140.97796087,-91.61006713,60.00549959
121.94600745,66.89119263,174.87123016,176.31823343,9.63314398,36.76450106
61.61344198,47.03445491,-175.53544724,60.80360123,-64.28965280,-169.80979756
-148.22702201,178.52082868,-58.55573337,75.70543523,7.76768314,-6.94003753
-2.45754192,1.16971072,-0.77978950,-0.55417650

>  <Name>


>  <RI>
0

>  <Rbt.Current_Directory>
/home/itssahil/PROJECTS/Mol_Feturizer/New_Systems/rnas/1qd3

>  <Rbt.Executable>
rbdock ($Id: //depot/dev/client3/rdock/2013.1/src/exe/rbdock.cxx#4 $)

>  <Rbt.Library>
libRbt.so (2013.1, Build901 2013/11/27)

>  <Rbt.Parameter_File>
/export/apps/rDock/src/rDock_2013.1_src/data/scripts/dock_solv.prm

>  <Rbt.Receptor>
prm/pocket_docking_8.prm

>  <SCORE>
-43.1149

>  <SCORE.INTER>
-26.0744

>  <SCORE.INTER.CONST>
1

>  <SCORE.INTER.POLAR>
-5.41518

>  <SCORE.INTER.ROT>
9

>  <SCORE.INTER.SOLV>
28.0696

>  <SCORE.INTER.VDW>
-18.2889

>  <SCORE.INTER.norm>
-0.620819

>  <SCORE.INTRA>
-17.0406

>  <SCORE.INTRA.DIHEDRAL>
-11.4037

>  <SCORE.INTRA.DIHEDRAL.0>
40.6252

>  <SCORE.INTRA.POLAR>
-0.749977

>  <SCORE.INTRA.POLAR.0>
-1.20161

>  <SCORE.INTRA.REPUL>
-0.115675

>  <SCORE.INTRA.REPUL.0>
0.115675

>  <SCORE.INTRA.SOLV>
-4.70509

>  <SCORE.INTRA.SOLV.lig_0>
-154.895

>  <SCORE.INTRA.VDW>
-5.85785

>  <SCORE.INTRA.VDW.0>
2.2925

>  <SCORE.INTRA.norm>
-0.405728

>  <SCORE.RESTR>
0

>  <SCORE.RESTR.CAVITY>
0

>  <SCORE.RESTR.norm>
0

>  <SCORE.SYSTEM>
0

>  <SCORE.SYSTEM.CONST>
0

>  <SCORE.SYSTEM.DIHEDRAL>
0

>  <SCORE.SYSTEM.SOLV>
0

>  <SCORE.SYSTEM.norm>
0

>  <SCORE.heavy>
42

>  <SCORE.norm>
-1.02655

>  <RMSD>
9.617

$$$$

 OpenBabel11021811413D
libRbt.so/2013.1/901 2013/11/27
 42 45  0  0  0  0  0  0  0  0999 V2000
   10.5384    1.5377   -1.3557 O   0  0  0  0  0  0  0  0  0  0  0  0
   10.1089    0.5939   -0.3848 C   0  0  0  0  0  0  0  0  0  0  0  0
    8.8052   -0.0619   -0.8417 C   0  0  1  0  0  0  0  0  0  0  0  0
    9.0278   -0.9517   -1.9571 O   0  0  0  0  0  0  0  0  0  0  0  0
    8.1450   -0.9066    0.2353 C   0  0  2  0  0  0  0  0  0  0  0  0
    7.2355   -1.7780   -0.6147 C   0  0  1  0  0  0  0  0  0  0  0  0
    6.0923   -1.0313   -1.0165 O   0  0  0  0  0  0  0  0  0  0  0  0
    8.1224   -2.0785   -1.8401 C   0  0  2  0  0  0  0  0  0  0  0  0
    8.8629    3.2336    1.5900 C   0  0  2  0  0  0  0  0  0  0  0  0
    8.0235    2.1921    1.0684 O   0  0  0  0  0  0  0  0  0  0  0  0
    8.2247    0.9443    1.7565 C   0  0  2  0  0  0  0  0  0  0  0  0
    7.4104   -0.0928    1.1708 O   0  0  0  0  0  0  0  0  0  0  0  0
    7.9053    1.0925    3.2540 C   0  0  2  0  0  0  0  0  0  0  0  0
    6.4710    1.1178    3.4745 N   0  3  0  0  0  0  0  0  0  0  0  0
    8.5683    2.3199    3.8900 C   0  0  1  0  0  0  0  0  0  0  0  0
    9.9399    2.0447    4.1266 O   0  0  0  0  0  0  0  0  0  0  0  0
    8.4403    3.5645    3.0157 C   0  0  2  0  0  0  0  0  0  0  0  0
    7.0970    4.0333    3.0321 O   0  0  0  0  0  0  0  0  0  0  0  0
    8.7966    4.4731    0.7022 C   0  0  0  0  0  0  0  0  0  0  0  0
    9.8515    5.4050    1.0537 N   0  3  0  0  0  0  0  0  0  0  0  0
    9.3101   -5.2085   -4.2587 C   0  0  1  0  0  0  0  0  0  0  0  0
    8.6502   -3.9258   -4.2932 O   0  0  0  0  0  0  0  0  0  0  0  0
    7.2109   -4.0246   -4.3935 C   0  0  2  0  0  0  0  0  0  0  0  0
    6.6237   -4.6240   -3.2121 O   0  0  0  0  0  0  0  0  0  0  0  0
    6.8087   -4.7902   -5.6599 C   0  0  2  0  0  0  0  0  0  0  0  0
    5.3840   -5.0650   -5.6413 N   0  3  0  0  0  0  0  0  0  0  0  0
    7.5707   -6.1041   -5.7919 C   0  0  1  0  0  0  0  0  0  0  0  0
    7.3470   -6.6592   -7.0788 O   0  0  0  0  0  0  0  0  0  0  0  0
    9.0665   -5.9564   -5.5593 C   0  0  2  0  0  0  0  0  0  0  0  0
    9.6867   -7.2329   -5.5097 O   0  0  0  0  0  0  0  0  0  0  0  0
   10.8167   -5.0170   -4.1098 C   0  0  0  0  0  0  0  0  0  0  0  0
   11.1121   -4.0644   -3.0553 N   0  3  0  0  0  0  0  0  0  0  0  0
    8.0330   -6.4959    0.3388 C   0  0  2  0  0  0  0  0  0  0  0  0
    7.8493   -7.3571   -0.8952 C   0  0  0  0  0  0  0  0  0  0  0  0
    6.9817   -6.6446   -1.9162 C   0  0  1  0  0  0  0  0  0  0  0  0
    7.5958   -5.3288   -2.3962 C   0  0  2  0  0  0  0  0  0  0  0  0
    8.0180   -4.4459   -1.1991 C   0  0  1  0  0  0  0  0  0  0  0  0
    8.6867   -5.1689   -0.0224 C   0  0  1  0  0  0  0  0  0  0  0  0
    8.8597   -7.2009    1.2998 N   0  3  0  0  0  0  0  0  0  0  0  0
    6.7444   -7.5347   -3.0359 N   0  3  0  0  0  0  0  0  0  0  0  0
    8.8370   -3.3293   -1.6249 O   0  0  0  0  0  0  0  0  0  0  0  0
    8.7061   -4.3171    1.1183 O   0  0  0  0  0  0  0  0  0  0  0  0
  1  2  1  0  0  0  0
  3  2  1  1  0  0  0
  3  4  1  0  0  0  0
  3  5  1  0  0  0  0
  4  8  1  0  0  0  0
  5  6  1  0  0  0  0
  5 12  1  1  0  0  0
  6  7  1  6  0  0  0
  6  8  1  0  0  0  0
  8 41  1  1  0  0  0
  9 10  1  0  0  0  0
  9 17  1  0  0  0  0
  9 19  1  6  0  0  0
 10 11  1  0  0  0  0
 11 12  1  6  0  0  0
 11 13  1  0  0  0  0
 13 14  1  6  0  0  0
 13 15  1  0  0  0  0
 15 16  1  6  0  0  0
 15 17  1  0  0  0  0
 17 18  1  6  0  0  0
 19 20  1  0  0  0  0
 21 22  1  0  0  0  0
 21 29  1  0  0  0  0
 21 31  1  6  0  0  0
 22 23  1  0  0  0  0
 23 24  1  1  0  0  0
 23 25  1  0  0  0  0
 25 26  1  1  0  0  0
 25 27  1  0  0  0  0
 27 28  1  6  0  0  0
 27 29  1  0  0  0  0
 29 30  1  1  0  0  0
 31 32  1  0  0  0  0
 33 34  1  0  0  0  0
 33 38  1  0  0  0  0
 33 39  1  1  0  0  0
 34 35  1  0  0  0  0
 35 36  1  0  0  0  0
 35 40  1  6  0  0  0
 36 24  1  1  0  0  0
 36 37  1  0  0  0  0
 37 38  1  0  0  0  0
 37 41  1  6  0  0  0
 38 42  1  1  0  0  0
M  CHG  6  14   1  20   1  26   1  32   1  39   1  40   1
M  END
>  <CHROM.1>
-175.21249344,70.80814146,-54.64249348,-178.99158881,166.64252811,-167.46270058
97.75372703,57.17581176,-178.36404052,-171.14940717,-72.56700085,47.44814952
-16.89189771,-138.06148923,-166.26082260,67.32472487,-171.69866254,-74.10911980
-61.49451522,-165.57679166,95.79924409,57.96063414,8.27866015,-2.23867680
-1.10510198,-1.20152403,-1.43213323,-2.15716408

>  <Name>


>  <RI>
0

>  <Rbt.Current_Directory>
/home/itssahil/PROJECTS/Mol_Feturizer/New_Systems/rnas/1qd3

>  <Rbt.Executable>
rbdock ($Id: //depot/dev/client3/rdock/2013.1/src/exe/rbdock.cxx#4 $)

>  <Rbt.Library>
libRbt.so (2013.1, Build901 2013/11/27)

>  <Rbt.Parameter_File>
/export/apps/rDock/src/rDock_2013.1_src/data/scripts/dock_solv.prm

>  <Rbt.Receptor>
prm/pocket_docking_2.prm

>  <SCORE>
-28.5007

>  <SCORE.INTER>
-19.8578

>  <SCORE.INTER.CONST>
1

>  <SCORE.INTER.POLAR>
-2.37421

>  <SCORE.INTER.ROT>
9

>  <SCORE.INTER.SOLV>
30.4053

>  <SCORE.INTER.VDW>
-25.0596

>  <SCORE.INTER.norm>
-0.472805

>  <SCORE.INTRA>
-12.1438

>  <SCORE.INTRA.DIHEDRAL>
-12.5693

>  <SCORE.INTRA.DIHEDRAL.0>
40.6252

>  <SCORE.INTRA.POLAR>
0.0252386

>  <SCORE.INTRA.POLAR.0>
-1.20161

>  <SCORE.INTRA.REPUL>
-0.113595

>  <SCORE.INTRA.REPUL.0>
0.115675

>  <SCORE.INTRA.SOLV>
-3.88607

>  <SCORE.INTRA.SOLV.lig_0>
-154.895

>  <SCORE.INTRA.VDW>
-3.43393

>  <SCORE.INTRA.VDW.0>
2.2925

>  <SCORE.INTRA.norm>
-0.289138

>  <SCORE.RESTR>
3.50092

>  <SCORE.RESTR.CAVITY>
3.50092

>  <SCORE.RESTR.norm>
0.0833553

>  <SCORE.SYSTEM>
0

>  <SCORE.SYSTEM.CONST>
0

>  <SCORE.SYSTEM.DIHEDRAL>
0

>  <SCORE.SYSTEM.SOLV>
0

>  <SCORE.SYSTEM.norm>
0

>  <SCORE.heavy>
42

>  <SCORE.norm>
-0.678587

>  <RMSD>
9.619

$$$$

 OpenBabel11021811413D
libRbt.so/2013.1/901 2013/11/27
 42 45  0  0  0  0  0  0  0  0999 V2000
    7.9235    0.7495   -2.2368 O   0  0  0  0  0  0  0  0  0  0  0  0
    7.7774   -0.6621   -2.2982 C   0  0  0  0  0  0  0  0  0  0  0  0
    7.2151   -1.1824   -0.9747 C   0  0  1  0  0  0  0  0  0  0  0  0
    7.1929   -2.6261   -0.9450 O   0  0  0  0  0  0  0  0  0  0  0  0
    8.0294   -0.7567    0.2357 C   0  0  2  0  0  0  0  0  0  0  0  0
    7.5653   -1.7822    1.2565 C   0  0  1  0  0  0  0  0  0  0  0  0
    6.2761   -1.4264    1.7435 O   0  0  0  0  0  0  0  0  0  0  0  0
    7.4689   -3.0669    0.4087 C   0  0  2  0  0  0  0  0  0  0  0  0
   10.9750    2.2457    0.4467 C   0  0  2  0  0  0  0  0  0  0  0  0
    9.7791    1.5840    0.0071 O   0  0  0  0  0  0  0  0  0  0  0  0
    8.8838    1.3096    1.0998 C   0  0  2  0  0  0  0  0  0  0  0  0
    7.7212    0.5939    0.6332 O   0  0  0  0  0  0  0  0  0  0  0  0
    8.4633    2.6144    1.7978 C   0  0  2  0  0  0  0  0  0  0  0  0
    7.4721    3.3235    1.0096 N   0  3  0  0  0  0  0  0  0  0  0  0
    9.6492    3.5311    2.1204 C   0  0  1  0  0  0  0  0  0  0  0  0
   10.3254    3.0403    3.2670 O   0  0  0  0  0  0  0  0  0  0  0  0
   10.6300    3.6393    0.9560 C   0  0  2  0  0  0  0  0  0  0  0  0
   10.0578    4.4155   -0.0903 O   0  0  0  0  0  0  0  0  0  0  0  0
   11.9965    2.3182   -0.6847 C   0  0  0  0  0  0  0  0  0  0  0  0
   13.2616    2.8307   -0.1929 N   0  3  0  0  0  0  0  0  0  0  0  0
    6.7839   -8.0673   -3.1727 C   0  0  1  0  0  0  0  0  0  0  0  0
    8.1082   -7.4946   -3.1921 O   0  0  0  0  0  0  0  0  0  0  0  0
    8.1327   -6.0957   -2.8261 C   0  0  2  0  0  0  0  0  0  0  0  0
    7.7445   -5.8883   -1.4456 O   0  0  0  0  0  0  0  0  0  0  0  0
    7.2548   -5.2729   -3.7769 C   0  0  2  0  0  0  0  0  0  0  0  0
    7.1192   -3.9172   -3.2774 N   0  3  0  0  0  0  0  0  0  0  0  0
    5.8692   -5.8874   -3.9407 C   0  0  1  0  0  0  0  0  0  0  0  0
    5.1798   -5.2373   -4.9973 O   0  0  0  0  0  0  0  0  0  0  0  0
    5.9044   -7.3844   -4.2073 C   0  0  2  0  0  0  0  0  0  0  0  0
    4.5918   -7.9247   -4.1623 O   0  0  0  0  0  0  0  0  0  0  0  0
    6.8508   -9.5499   -3.5278 C   0  0  0  0  0  0  0  0  0  0  0  0
    7.4125   -9.7363   -4.8531 N   0  3  0  0  0  0  0  0  0  0  0  0
    9.5529   -7.1023    2.2089 C   0  0  2  0  0  0  0  0  0  0  0  0
    9.9959   -7.7899    0.9325 C   0  0  0  0  0  0  0  0  0  0  0  0
    8.9958   -7.5392   -0.1809 C   0  0  1  0  0  0  0  0  0  0  0  0
    8.8497   -6.0549   -0.5191 C   0  0  2  0  0  0  0  0  0  0  0  0
    8.5982   -5.2187    0.7570 C   0  0  1  0  0  0  0  0  0  0  0  0
    9.4212   -5.6006    1.9944 C   0  0  1  0  0  0  0  0  0  0  0  0
   10.5213   -7.3619    3.2571 N   0  3  0  0  0  0  0  0  0  0  0  0
    9.3974   -8.2919   -1.3533 N   0  3  0  0  0  0  0  0  0  0  0  0
    8.7249   -3.7993    0.4959 O   0  0  0  0  0  0  0  0  0  0  0  0
    8.8561   -4.9977    3.1538 O   0  0  0  0  0  0  0  0  0  0  0  0
  1  2  1  0  0  0  0
  3  2  1  6  0  0  0
  3  4  1  0  0  0  0
  3  5  1  0  0  0  0
  4  8  1  0  0  0  0
  5  6  1  0  0  0  0
  5 12  1  1  0  0  0
  6  7  1  6  0  0  0
  6  8  1  0  0  0  0
  8 41  1  6  0  0  0
  9 10  1  0  0  0  0
  9 17  1  0  0  0  0
  9 19  1  6  0  0  0
 10 11  1  0  0  0  0
 11 12  1  6  0  0  0
 11 13  1  0  0  0  0
 13 14  1  6  0  0  0
 13 15  1  0  0  0  0
 15 16  1  1  0  0  0
 15 17  1  0  0  0  0
 17 18  1  6  0  0  0
 19 20  1  0  0  0  0
 21 22  1  0  0  0  0
 21 29  1  0  0  0  0
 21 31  1  6  0  0  0
 22 23  1  0  0  0  0
 23 24  1  1  0  0  0
 23 25  1  0  0  0  0
 25 26  1  1  0  0  0
 25 27  1  0  0  0  0
 27 28  1  6  0  0  0
 27 29  1  0  0  0  0
 29 30  1  1  0  0  0
 31 32  1  0  0  0  0
 33 34  1  0  0  0  0
 33 38  1  0  0  0  0
 33 39  1  1  0  0  0
 34 35  1  0  0  0  0
 35 36  1  0  0  0  0
 35 40  1  6  0  0  0
 36 24  1  6  0  0  0
 36 37  1  0  0  0  0
 37 38  1  0  0  0  0
 37 41  1  6  0  0  0
 38 42  1  1  0  0  0
M  CHG  6  14   1  20   1  26   1  32   1  39   1  40   1
M  END
>  <CHROM.1>
73.41142254,-173.56560340,-143.17035227,66.47229608,-110.21793932,-172.71063055
69.89980321,42.32065647,-169.86275900,-179.37552603,-68.25809591,-60.12598890
84.49515000,-84.73999264,84.24611951,-172.27513901,48.35156971,57.20024259
95.04200687,58.64576373,104.16268945,54.40276970,8.39189285,-2.96142878,-0.61112693
1.12555702,-1.04248299,-0.06939824

>  <Name>


>  <RI>
0

>  <Rbt.Current_Directory>
/home/itssahil/PROJECTS/Mol_Feturizer/New_Systems/rnas/1qd3

>  <Rbt.Executable>
rbdock ($Id: //depot/dev/client3/rdock/2013.1/src/exe/rbdock.cxx#4 $)

>  <Rbt.Library>
libRbt.so (2013.1, Build901 2013/11/27)

>  <Rbt.Parameter_File>
/export/apps/rDock/src/rDock_2013.1_src/data/scripts/dock_solv.prm

>  <Rbt.Receptor>
prm/pocket_docking_5.prm

>  <SCORE>
-52.2991

>  <SCORE.INTER>
-33.0762

>  <SCORE.INTER.CONST>
1

>  <SCORE.INTER.POLAR>
-5.67472

>  <SCORE.INTER.ROT>
9

>  <SCORE.INTER.SOLV>
28.044

>  <SCORE.INTER.VDW>
-22.0831

>  <SCORE.INTER.norm>
-0.787528

>  <SCORE.INTRA>
-19.3909

>  <SCORE.INTRA.DIHEDRAL>
-8.40695

>  <SCORE.INTRA.DIHEDRAL.0>
40.6252

>  <SCORE.INTRA.POLAR>
-1.76959

>  <SCORE.INTRA.POLAR.0>
-1.20161

>  <SCORE.INTRA.REPUL>
-0.115675

>  <SCORE.INTRA.REPUL.0>
0.115675

>  <SCORE.INTRA.SOLV>
-2.92511

>  <SCORE.INTRA.SOLV.lig_0>
-154.895

>  <SCORE.INTRA.VDW>
-7.12984

>  <SCORE.INTRA.VDW.0>
2.2925

>  <SCORE.INTRA.norm>
-0.461687

>  <SCORE.RESTR>
0.167936

>  <SCORE.RESTR.CAVITY>
0.167936

>  <SCORE.RESTR.norm>
0.00399849

>  <SCORE.SYSTEM>
0

>  <SCORE.SYSTEM.CONST>
0

>  <SCORE.SYSTEM.DIHEDRAL>
0

>  <SCORE.SYSTEM.SOLV>
0

>  <SCORE.SYSTEM.norm>
0

>  <SCORE.heavy>
42

>  <SCORE.norm>
-1.24522

>  <RMSD>
9.630

$$$$

 OpenBabel11021811413D
libRbt.so/2013.1/901 2013/11/27
 42 45  0  0  0  0  0  0  0  0999 V2000
    8.7412   -0.2014   -3.1424 O   0  0  0  0  0  0  0  0  0  0  0  0
    8.4212    0.5550   -1.9835 C   0  0  0  0  0  0  0  0  0  0  0  0
    7.6532   -0.3187   -0.9908 C   0  0  1  0  0  0  0  0  0  0  0  0
    7.2849   -1.5843   -1.5809 O   0  0  0  0  0  0  0  0  0  0  0  0
    8.4524   -0.6611    0.2556 C   0  0  2  0  0  0  0  0  0  0  0  0
    7.6815   -1.8715    0.7551 C   0  0  1  0  0  0  0  0  0  0  0  0
    6.4817   -1.4479    1.3930 O   0  0  0  0  0  0  0  0  0  0  0  0
    7.3452   -2.6093   -0.5568 C   0  0  2  0  0  0  0  0  0  0  0  0
   11.1313    2.6504    0.1132 C   0  0  2  0  0  0  0  0  0  0  0  0
    9.8570    1.9890    0.1214 O   0  0  0  0  0  0  0  0  0  0  0  0
    9.7116    1.1163    1.2563 C   0  0  2  0  0  0  0  0  0  0  0  0
    8.4466    0.4246    1.2033 O   0  0  0  0  0  0  0  0  0  0  0  0
    9.8326    1.9085    2.5694 C   0  0  2  0  0  0  0  0  0  0  0  0
    8.6149    2.6516    2.8365 N   0  3  0  0  0  0  0  0  0  0  0  0
   11.0485    2.8422    2.5966 C   0  0  1  0  0  0  0  0  0  0  0  0
   12.2195    2.0830    2.8520 O   0  0  0  0  0  0  0  0  0  0  0  0
   11.2145    3.6138    1.2903 C   0  0  2  0  0  0  0  0  0  0  0  0
   10.2027    4.6083    1.1818 O   0  0  0  0  0  0  0  0  0  0  0  0
   11.3472    3.3854   -1.2067 C   0  0  0  0  0  0  0  0  0  0  0  0
   12.7126    3.8667   -1.3011 N   0  3  0  0  0  0  0  0  0  0  0  0
    7.7883   -6.4669   -5.0351 C   0  0  1  0  0  0  0  0  0  0  0  0
    8.0924   -5.2110   -4.3929 O   0  0  0  0  0  0  0  0  0  0  0  0
    7.0105   -4.7094   -3.5747 C   0  0  2  0  0  0  0  0  0  0  0  0
    6.7492   -5.5651   -2.4349 O   0  0  0  0  0  0  0  0  0  0  0  0
    5.7447   -4.5082   -4.4167 C   0  0  2  0  0  0  0  0  0  0  0  0
    4.6175   -4.2094   -3.5530 N   0  3  0  0  0  0  0  0  0  0  0  0
    5.4214   -5.7404   -5.2543 C   0  0  1  0  0  0  0  0  0  0  0  0
    4.3946   -5.4305   -6.1837 O   0  0  0  0  0  0  0  0  0  0  0  0
    6.6267   -6.2925   -5.9998 C   0  0  2  0  0  0  0  0  0  0  0  0
    6.3057   -7.5367   -6.6043 O   0  0  0  0  0  0  0  0  0  0  0  0
    8.9920   -6.9460   -5.8415 C   0  0  0  0  0  0  0  0  0  0  0  0
    9.6562   -5.8285   -6.4869 N   0  3  0  0  0  0  0  0  0  0  0  0
    8.9123   -6.9082    0.9734 C   0  0  2  0  0  0  0  0  0  0  0  0
    9.0125   -7.7241   -0.3003 C   0  0  0  0  0  0  0  0  0  0  0  0
    7.8971   -7.3515   -1.2594 C   0  0  1  0  0  0  0  0  0  0  0  0
    7.9496   -5.8829   -1.6828 C   0  0  2  0  0  0  0  0  0  0  0  0
    8.0605   -4.9553   -0.4507 C   0  0  1  0  0  0  0  0  0  0  0  0
    9.0025   -5.4191    0.6682 C   0  0  1  0  0  0  0  0  0  0  0  0
    9.9845   -7.2870    1.8739 N   0  3  0  0  0  0  0  0  0  0  0  0
    7.9635   -8.2190   -2.4193 N   0  3  0  0  0  0  0  0  0  0  0  0
    8.3799   -3.5957   -0.8359 O   0  0  0  0  0  0  0  0  0  0  0  0
    8.7497   -4.6701    1.8523 O   0  0  0  0  0  0  0  0  0  0  0  0
  1  2  1  0  0  0  0
  3  2  1  6  0  0  0
  3  4  1  0  0  0  0
  3  5  1  0  0  0  0
  4  8  1  0  0  0  0
  5  6  1  0  0  0  0
  5 12  1  1  0  0  0
  6  7  1  6  0  0  0
  6  8  1  0  0  0  0
  8 41  1  6  0  0  0
  9 10  1  0  0  0  0
  9 17  1  0  0  0  0
  9 19  1  6  0  0  0
 10 11  1  0  0  0  0
 11 12  1  6  0  0  0
 11 13  1  0  0  0  0
 13 14  1  6  0  0  0
 13 15  1  0  0  0  0
 15 16  1  6  0  0  0
 15 17  1  0  0  0  0
 17 18  1  6  0  0  0
 19 20  1  0  0  0  0
 21 22  1  0  0  0  0
 21 29  1  0  0  0  0
 21 31  1  6  0  0  0
 22 23  1  0  0  0  0
 23 24  1  1  0  0  0
 23 25  1  0  0  0  0
 25 26  1  1  0  0  0
 25 27  1  0  0  0  0
 27 28  1  6  0  0  0
 27 29  1  0  0  0  0
 29 30  1  1  0  0  0
 31 32  1  0  0  0  0
 33 34  1  0  0  0  0
 33 38  1  0  0  0  0
 33 39  1  1  0  0  0
 34 35  1  0  0  0  0
 35 36  1  0  0  0  0
 35 40  1  6  0  0  0
 36 24  1  1  0  0  0
 36 37  1  0  0  0  0
 37 38  1  0  0  0  0
 37 41  1  6  0  0  0
 38 42  1  1  0  0  0
M  CHG  6  14   1  20   1  26   1  32   1  39   1  40   1
M  END
>  <CHROM.1>
140.76536040,-9.05610951,-106.41538568,91.35883770,-144.44922010,-170.70995831
76.92124507,-148.34373999,-177.60258336,-178.48465591,-71.26923467,-38.26751580
50.21754621,-139.72066757,-52.52737328,179.94877375,62.75295017,74.50400490
67.80061428,-72.94990563,114.67834383,-77.77667654,8.47006540,-2.53622820
-1.29297324,0.44231482,-1.23682878,-0.58715977

>  <Name>


>  <RI>
0

>  <Rbt.Current_Directory>
/home/itssahil/PROJECTS/Mol_Feturizer/New_Systems/rnas/1qd3

>  <Rbt.Executable>
rbdock ($Id: //depot/dev/client3/rdock/2013.1/src/exe/rbdock.cxx#4 $)

>  <Rbt.Library>
libRbt.so (2013.1, Build901 2013/11/27)

>  <Rbt.Parameter_File>
/export/apps/rDock/src/rDock_2013.1_src/data/scripts/dock_solv.prm

>  <Rbt.Receptor>
prm/pocket_docking_8.prm

>  <SCORE>
-59.2505

>  <SCORE.INTER>
-51.5997

>  <SCORE.INTER.CONST>
1

>  <SCORE.INTER.POLAR>
-8.43667

>  <SCORE.INTER.ROT>
9

>  <SCORE.INTER.SOLV>
30.5177

>  <SCORE.INTER.VDW>
-26.0502

>  <SCORE.INTER.norm>
-1.22856

>  <SCORE.INTRA>
-7.65079

>  <SCORE.INTRA.DIHEDRAL>
5.34367

>  <SCORE.INTRA.DIHEDRAL.0>
40.6252

>  <SCORE.INTRA.POLAR>
1.14974

>  <SCORE.INTRA.POLAR.0>
-1.20161

>  <SCORE.INTRA.REPUL>
-0.113847

>  <SCORE.INTRA.REPUL.0>
0.115675

>  <SCORE.INTRA.SOLV>
-10.2295

>  <SCORE.INTRA.SOLV.lig_0>
-154.895

>  <SCORE.INTRA.VDW>
-8.54774

>  <SCORE.INTRA.VDW.0>
2.2925

>  <SCORE.INTRA.norm>
-0.182162

>  <SCORE.RESTR>
0

>  <SCORE.RESTR.CAVITY>
0

>  <SCORE.RESTR.norm>
0

>  <SCORE.SYSTEM>
0

>  <SCORE.SYSTEM.CONST>
0

>  <SCORE.SYSTEM.DIHEDRAL>
0

>  <SCORE.SYSTEM.SOLV>
0

>  <SCORE.SYSTEM.norm>
0

>  <SCORE.heavy>
42

>  <SCORE.norm>
-1.41073

>  <RMSD>
9.633

$$$$

 OpenBabel11021811413D
libRbt.so/2013.1/901 2013/11/27
 42 45  0  0  0  0  0  0  0  0999 V2000
   10.9846    2.4848   -1.3678 O   0  0  0  0  0  0  0  0  0  0  0  0
    9.9912    2.3455   -0.3621 C   0  0  0  0  0  0  0  0  0  0  0  0
    8.9466    1.3203   -0.8049 C   0  0  1  0  0  0  0  0  0  0  0  0
    9.5081    0.3650   -1.7311 O   0  0  0  0  0  0  0  0  0  0  0  0
    8.3819    0.4999    0.3430 C   0  0  2  0  0  0  0  0  0  0  0  0
    7.8161   -0.6878   -0.4174 C   0  0  1  0  0  0  0  0  0  0  0  0
    6.5849   -0.3233   -1.0316 O   0  0  0  0  0  0  0  0  0  0  0  0
    8.8904   -0.9261   -1.4980 C   0  0  2  0  0  0  0  0  0  0  0  0
    7.4504    3.7355    3.7183 C   0  0  2  0  0  0  0  0  0  0  0  0
    6.9229    2.9083    2.6701 O   0  0  0  0  0  0  0  0  0  0  0  0
    7.9120    2.0002    2.1526 C   0  0  2  0  0  0  0  0  0  0  0  0
    7.3670    1.2261    1.0638 O   0  0  0  0  0  0  0  0  0  0  0  0
    8.4287    1.0698    3.2633 C   0  0  2  0  0  0  0  0  0  0  0  0
    7.4588    0.0310    3.5575 N   0  3  0  0  0  0  0  0  0  0  0  0
    8.8163    1.8207    4.5426 C   0  0  1  0  0  0  0  0  0  0  0  0
   10.0801    2.4395    4.3609 O   0  0  0  0  0  0  0  0  0  0  0  0
    7.7825    2.8745    4.9304 C   0  0  2  0  0  0  0  0  0  0  0  0
    6.6052    2.2427    5.4197 O   0  0  0  0  0  0  0  0  0  0  0  0
    6.4576    4.8340    4.0878 C   0  0  0  0  0  0  0  0  0  0  0  0
    5.6034    4.3993    5.1771 N   0  3  0  0  0  0  0  0  0  0  0  0
    9.0297   -7.2413   -3.2987 C   0  0  1  0  0  0  0  0  0  0  0  0
    8.6471   -6.0761   -4.0591 O   0  0  0  0  0  0  0  0  0  0  0  0
    8.4512   -4.8985   -3.2429 C   0  0  2  0  0  0  0  0  0  0  0  0
    9.6845   -4.4533   -2.6262 O   0  0  0  0  0  0  0  0  0  0  0  0
    7.3642   -5.1456   -2.1897 C   0  0  2  0  0  0  0  0  0  0  0  0
    7.3251   -4.0409   -1.2495 N   0  3  0  0  0  0  0  0  0  0  0  0
    7.6012   -6.4444   -1.4272 C   0  0  1  0  0  0  0  0  0  0  0  0
    6.4613   -6.7507   -0.6391 O   0  0  0  0  0  0  0  0  0  0  0  0
    7.9189   -7.6234   -2.3341 C   0  0  2  0  0  0  0  0  0  0  0  0
    8.3115   -8.7485   -1.5616 O   0  0  0  0  0  0  0  0  0  0  0  0
    9.2573   -8.4245   -4.2351 C   0  0  0  0  0  0  0  0  0  0  0  0
   10.3904   -8.1786   -5.1082 N   0  3  0  0  0  0  0  0  0  0  0  0
   12.5953   -1.5184   -3.6330 C   0  0  2  0  0  0  0  0  0  0  0  0
   11.7748   -2.1218   -4.7559 C   0  0  0  0  0  0  0  0  0  0  0  0
   11.0991   -3.3994   -4.2932 C   0  0  1  0  0  0  0  0  0  0  0  0
   10.1336   -3.1679   -3.1300 C   0  0  2  0  0  0  0  0  0  0  0  0
   10.8148   -2.3666   -1.9965 C   0  0  1  0  0  0  0  0  0  0  0  0
   11.7147   -1.2024   -2.4316 C   0  0  1  0  0  0  0  0  0  0  0  0
   13.2341   -0.3036   -4.1021 N   0  3  0  0  0  0  0  0  0  0  0  0
   10.4081   -4.0007   -5.4172 N   0  3  0  0  0  0  0  0  0  0  0  0
    9.8514   -1.9089   -1.0161 O   0  0  0  0  0  0  0  0  0  0  0  0
   12.5257   -0.7856   -1.3382 O   0  0  0  0  0  0  0  0  0  0  0  0
  1  2  1  0  0  0  0
  3  2  1  1  0  0  0
  3  4  1  0  0  0  0
  3  5  1  0  0  0  0
  4  8  1  0  0  0  0
  5  6  1  0  0  0  0
  5 12  1  6  0  0  0
  6  7  1  6  0  0  0
  6  8  1  0  0  0  0
  8 41  1  1  0  0  0
  9 10  1  0  0  0  0
  9 17  1  0  0  0  0
  9 19  1  1  0  0  0
 10 11  1  0  0  0  0
 11 12  1  6  0  0  0
 11 13  1  0  0  0  0
 13 14  1  1  0  0  0
 13 15  1  0  0  0  0
 15 16  1  6  0  0  0
 15 17  1  0  0  0  0
 17 18  1  6  0  0  0
 19 20  1  0  0  0  0
 21 22  1  0  0  0  0
 21 29  1  0  0  0  0
 21 31  1  6  0  0  0
 22 23  1  0  0  0  0
 23 24  1  1  0  0  0
 23 25  1  0  0  0  0
 25 26  1  1  0  0  0
 25 27  1  0  0  0  0
 27 28  1  6  0  0  0
 27 29  1  0  0  0  0
 29 30  1  1  0  0  0
 31 32  1  0  0  0  0
 33 34  1  0  0  0  0
 33 38  1  0  0  0  0
 33 39  1  6  0  0  0
 34 35  1  0  0  0  0
 35 36  1  0  0  0  0
 35 40  1  6  0  0  0
 36 24  1  1  0  0  0
 36 37  1  0  0  0  0
 37 38  1  0  0  0  0
 37 41  1  1  0  0  0
 38 42  1  1  0  0  0
M  CHG  6  14   1  20   1  26   1  32   1  39   1  40   1
M  END
>  <CHROM.1>
65.43172500,26.54675421,-89.97654925,67.98751201,-71.19174682,92.36331577
168.44517958,93.75145013,-164.44134909,65.22045721,-38.57694522,65.24168706
113.28984674,-92.69981011,78.72762100,-62.57779156,-62.76989510,-69.24545623
-65.12646497,74.31086314,-66.11026585,-178.28831219,8.95436299,-1.52676729
-0.60523792,-1.80243494,-0.79525794,-2.63225099

>  <Name>


>  <RI>
0

>  <Rbt.Current_Directory>
/home/itssahil/PROJECTS/Mol_Feturizer/New_Systems/rnas/1qd3

>  <Rbt.Executable>
rbdock ($Id: //depot/dev/client3/rdock/2013.1/src/exe/rbdock.cxx#4 $)

>  <Rbt.Library>
libRbt.so (2013.1, Build901 2013/11/27)

>  <Rbt.Parameter_File>
/export/apps/rDock/src/rDock_2013.1_src/data/scripts/dock_solv.prm

>  <Rbt.Receptor>
prm/pocket_docking_6.prm

>  <SCORE>
-65.2219

>  <SCORE.INTER>
-50.5403

>  <SCORE.INTER.CONST>
1

>  <SCORE.INTER.POLAR>
-7.18203

>  <SCORE.INTER.ROT>
9

>  <SCORE.INTER.SOLV>
39.3128

>  <SCORE.INTER.VDW>
-32.4577

>  <SCORE.INTER.norm>
-1.20334

>  <SCORE.INTRA>
-14.6816

>  <SCORE.INTRA.DIHEDRAL>
-10.8851

>  <SCORE.INTRA.DIHEDRAL.0>
40.6252

>  <SCORE.INTRA.POLAR>
-0.276786

>  <SCORE.INTRA.POLAR.0>
-1.20161

>  <SCORE.INTRA.REPUL>
-0.101744

>  <SCORE.INTRA.REPUL.0>
0.115675

>  <SCORE.INTRA.SOLV>
-3.33531

>  <SCORE.INTRA.SOLV.lig_0>
-154.895

>  <SCORE.INTRA.VDW>
-6.1216

>  <SCORE.INTRA.VDW.0>
2.2925

>  <SCORE.INTRA.norm>
-0.349562

>  <SCORE.RESTR>
0

>  <SCORE.RESTR.CAVITY>
0

>  <SCORE.RESTR.norm>
0

>  <SCORE.SYSTEM>
0

>  <SCORE.SYSTEM.CONST>
0

>  <SCORE.SYSTEM.DIHEDRAL>
0

>  <SCORE.SYSTEM.SOLV>
0

>  <SCORE.SYSTEM.norm>
0

>  <SCORE.heavy>
42

>  <SCORE.norm>
-1.5529

>  <RMSD>
9.635

$$$$

 OpenBabel11021811413D
libRbt.so/2013.1/901 2013/11/27
 42 45  0  0  0  0  0  0  0  0999 V2000
    7.0356   -0.5414   -3.4226 O   0  0  0  0  0  0  0  0  0  0  0  0
    8.0354   -0.7659   -2.4388 C   0  0  0  0  0  0  0  0  0  0  0  0
    7.3863   -1.2544   -1.1433 C   0  0  1  0  0  0  0  0  0  0  0  0
    7.3832   -2.6967   -1.0689 O   0  0  0  0  0  0  0  0  0  0  0  0
    8.1044   -0.7778    0.1084 C   0  0  2  0  0  0  0  0  0  0  0  0
    7.5825   -1.7789    1.1254 C   0  0  1  0  0  0  0  0  0  0  0  0
    6.2563   -1.4301    1.5067 O   0  0  0  0  0  0  0  0  0  0  0  0
    7.5668   -3.0907    0.3146 C   0  0  2  0  0  0  0  0  0  0  0  0
   10.8894    2.4450    0.3884 C   0  0  2  0  0  0  0  0  0  0  0  0
    9.7370    1.7442   -0.1039 O   0  0  0  0  0  0  0  0  0  0  0  0
    8.8641    1.3294    0.9623 C   0  0  2  0  0  0  0  0  0  0  0  0
    7.7484    0.5791    0.4391 O   0  0  0  0  0  0  0  0  0  0  0  0
    8.3630    2.5466    1.7584 C   0  0  2  0  0  0  0  0  0  0  0  0
    7.3264    3.2498    1.0254 N   0  3  0  0  0  0  0  0  0  0  0  0
    9.4887    3.5094    2.1537 C   0  0  1  0  0  0  0  0  0  0  0  0
   10.1981    2.9755    3.2603 O   0  0  0  0  0  0  0  0  0  0  0  0
   10.4574    3.7700    1.0034 C   0  0  2  0  0  0  0  0  0  0  0  0
    9.8340    4.5867    0.0191 O   0  0  0  0  0  0  0  0  0  0  0  0
   11.9011    2.6701   -0.7318 C   0  0  0  0  0  0  0  0  0  0  0  0
   12.0323    1.4748   -1.5436 N   0  3  0  0  0  0  0  0  0  0  0  0
    7.9469   -7.8788   -3.7134 C   0  0  1  0  0  0  0  0  0  0  0  0
    9.2707   -7.5235   -3.2623 O   0  0  0  0  0  0  0  0  0  0  0  0
    9.3689   -6.1593   -2.7927 C   0  0  2  0  0  0  0  0  0  0  0  0
    8.5828   -5.9387   -1.5955 O   0  0  0  0  0  0  0  0  0  0  0  0
    8.9748   -5.1763   -3.9018 C   0  0  2  0  0  0  0  0  0  0  0  0
    8.8736   -3.8336   -3.3608 N   0  3  0  0  0  0  0  0  0  0  0  0
    7.6479   -5.5570   -4.5490 C   0  0  1  0  0  0  0  0  0  0  0  0
    7.4405   -4.7709   -5.7123 O   0  0  0  0  0  0  0  0  0  0  0  0
    7.5592   -7.0309   -4.9138 C   0  0  2  0  0  0  0  0  0  0  0  0
    6.2425   -7.3568   -5.3344 O   0  0  0  0  0  0  0  0  0  0  0  0
    7.9188   -9.3406   -4.1505 C   0  0  0  0  0  0  0  0  0  0  0  0
    8.9831   -9.6142   -5.0987 N   0  3  0  0  0  0  0  0  0  0  0  0
    9.2817   -7.0503    2.4511 C   0  0  2  0  0  0  0  0  0  0  0  0
   10.1222   -7.7107    1.3761 C   0  0  0  0  0  0  0  0  0  0  0  0
    9.4878   -7.5165    0.0113 C   0  0  1  0  0  0  0  0  0  0  0  0
    9.3686   -6.0427   -0.3793 C   0  0  2  0  0  0  0  0  0  0  0  0
    8.7025   -5.2231    0.7501 C   0  0  1  0  0  0  0  0  0  0  0  0
    9.1383   -5.5583    2.1826 C   0  0  1  0  0  0  0  0  0  0  0  0
    9.9058   -7.2551    3.7444 N   0  3  0  0  0  0  0  0  0  0  0  0
   10.2613   -8.2444   -0.9757 N   0  3  0  0  0  0  0  0  0  0  0  0
    8.8238   -3.7986    0.5155 O   0  0  0  0  0  0  0  0  0  0  0  0
    8.2210   -4.9894    3.1110 O   0  0  0  0  0  0  0  0  0  0  0  0
  1  2  1  0  0  0  0
  3  2  1  6  0  0  0
  3  4  1  0  0  0  0
  3  5  1  0  0  0  0
  4  8  1  0  0  0  0
  5  6  1  0  0  0  0
  5 12  1  1  0  0  0
  6  7  1  6  0  0  0
  6  8  1  0  0  0  0
  8 41  1  6  0  0  0
  9 10  1  0  0  0  0
  9 17  1  0  0  0  0
  9 19  1  6  0  0  0
 10 11  1  0  0  0  0
 11 12  1  6  0  0  0
 11 13  1  0  0  0  0
 13 14  1  6  0  0  0
 13 15  1  0  0  0  0
 15 16  1  1  0  0  0
 15 17  1  0  0  0  0
 17 18  1  6  0  0  0
 19 20  1  0  0  0  0
 21 22  1  0  0  0  0
 21 29  1  0  0  0  0
 21 31  1  6  0  0  0
 22 23  1  0  0  0  0
 23 24  1  1  0  0  0
 23 25  1  0  0  0  0
 25 26  1  1  0  0  0
 25 27  1  0  0  0  0
 27 28  1  6  0  0  0
 27 29  1  0  0  0  0
 29 30  1  1  0  0  0
 31 32  1  0  0  0  0
 33 34  1  0  0  0  0
 33 38  1  0  0  0  0
 33 39  1  1  0  0  0
 34 35  1  0  0  0  0
 35 36  1  0  0  0  0
 35 40  1  6  0  0  0
 36 24  1  6  0  0  0
 36 37  1  0  0  0  0
 37 38  1  0  0  0  0
 37 41  1  6  0  0  0
 38 42  1  1  0  0  0
M  CHG  6  14   1  20   1  26   1  32   1  39   1  40   1
M  END
>  <CHROM.1>
-178.60805083,94.50980793,-143.04586714,73.33939230,-107.44888194,-42.70820110
77.85315913,-76.99126642,-64.25809415,-49.41838774,-148.90147496,-51.81205465
96.43700549,-83.14093226,-170.98091174,60.04897073,69.14147605,102.57116034
75.04134700,-59.85308356,116.22959608,65.76549835,8.76439401,-2.96193786
-0.79151555,1.10498328,-1.39283676,-0.11971693

>  <Name>


>  <RI>
0

>  <Rbt.Current_Directory>
/home/itssahil/PROJECTS/Mol_Feturizer/New_Systems/rnas/1qd3

>  <Rbt.Executable>
rbdock ($Id: //depot/dev/client3/rdock/2013.1/src/exe/rbdock.cxx#4 $)

>  <Rbt.Library>
libRbt.so (2013.1, Build901 2013/11/27)

>  <Rbt.Parameter_File>
/export/apps/rDock/src/rDock_2013.1_src/data/scripts/dock_solv.prm

>  <Rbt.Receptor>
prm/pocket_docking_5.prm

>  <SCORE>
-54.4349

>  <SCORE.INTER>
-38.1401

>  <SCORE.INTER.CONST>
1

>  <SCORE.INTER.POLAR>
-7.01715

>  <SCORE.INTER.ROT>
9

>  <SCORE.INTER.SOLV>
31.6231

>  <SCORE.INTER.VDW>
-22.1773

>  <SCORE.INTER.norm>
-0.908098

>  <SCORE.INTRA>
-16.296

>  <SCORE.INTRA.DIHEDRAL>
0.445061

>  <SCORE.INTRA.DIHEDRAL.0>
40.6252

>  <SCORE.INTRA.POLAR>
-1.67119

>  <SCORE.INTRA.POLAR.0>
-1.20161

>  <SCORE.INTRA.REPUL>
-0.098157

>  <SCORE.INTRA.REPUL.0>
0.115675

>  <SCORE.INTRA.SOLV>
-5.19714

>  <SCORE.INTRA.SOLV.lig_0>
-154.895

>  <SCORE.INTRA.VDW>
-7.7471

>  <SCORE.INTRA.VDW.0>
2.2925

>  <SCORE.INTRA.norm>
-0.387999

>  <SCORE.RESTR>
0.00118048

>  <SCORE.RESTR.CAVITY>
0.00118048

>  <SCORE.RESTR.norm>
2.81066e-05

>  <SCORE.SYSTEM>
0

>  <SCORE.SYSTEM.CONST>
0

>  <SCORE.SYSTEM.DIHEDRAL>
0

>  <SCORE.SYSTEM.SOLV>
0

>  <SCORE.SYSTEM.norm>
0

>  <SCORE.heavy>
42

>  <SCORE.norm>
-1.29607

>  <RMSD>
9.645

$$$$

 OpenBabel11021811413D
libRbt.so/2013.1/901 2013/11/27
 42 45  0  0  0  0  0  0  0  0999 V2000
    8.8298    2.4084   -0.9203 O   0  0  0  0  0  0  0  0  0  0  0  0
    9.3415    1.1819   -1.4220 C   0  0  0  0  0  0  0  0  0  0  0  0
    8.4185    0.0318   -1.0173 C   0  0  1  0  0  0  0  0  0  0  0  0
    8.7150   -1.1674   -1.7654 O   0  0  0  0  0  0  0  0  0  0  0  0
    8.5418   -0.3539    0.4474 C   0  0  2  0  0  0  0  0  0  0  0  0
    7.9450   -1.7510    0.4172 C   0  0  1  0  0  0  0  0  0  0  0  0
    6.5259   -1.6663    0.3481 O   0  0  0  0  0  0  0  0  0  0  0  0
    8.5013   -2.3156   -0.9058 C   0  0  2  0  0  0  0  0  0  0  0  0
   10.0071    3.3418    2.0990 C   0  0  2  0  0  0  0  0  0  0  0  0
    9.1033    2.5193    1.3452 O   0  0  0  0  0  0  0  0  0  0  0  0
    8.6579    1.3782    2.1004 C   0  0  2  0  0  0  0  0  0  0  0  0
    7.7990    0.5436    1.2958 O   0  0  0  0  0  0  0  0  0  0  0  0
    7.9252    1.8246    3.3773 C   0  0  2  0  0  0  0  0  0  0  0  0
    6.5858    2.2894    3.0665 N   0  3  0  0  0  0  0  0  0  0  0  0
    8.6934    2.8900    4.1681 C   0  0  1  0  0  0  0  0  0  0  0  0
    9.7463    2.2720    4.8909 O   0  0  0  0  0  0  0  0  0  0  0  0
    9.2645    3.9804    3.2657 C   0  0  2  0  0  0  0  0  0  0  0  0
    8.2145    4.8103    2.7827 O   0  0  0  0  0  0  0  0  0  0  0  0
   10.6359    4.4079    1.2063 C   0  0  0  0  0  0  0  0  0  0  0  0
    9.6076    5.1457    0.4971 N   0  3  0  0  0  0  0  0  0  0  0  0
    8.7706   -7.5077   -4.4143 C   0  0  1  0  0  0  0  0  0  0  0  0
    8.1803   -6.1969   -4.5388 O   0  0  0  0  0  0  0  0  0  0  0  0
    8.0928   -5.4865   -3.2822 C   0  0  2  0  0  0  0  0  0  0  0  0
    9.4007   -5.1685   -2.7455 O   0  0  0  0  0  0  0  0  0  0  0  0
    7.2577   -6.2798   -2.2698 C   0  0  2  0  0  0  0  0  0  0  0  0
    7.3527   -5.6646   -0.9590 N   0  3  0  0  0  0  0  0  0  0  0  0
    7.7130   -7.7318   -2.1761 C   0  0  1  0  0  0  0  0  0  0  0  0
    6.7753   -8.4787   -1.4165 O   0  0  0  0  0  0  0  0  0  0  0  0
    7.9012   -8.3906   -3.5340 C   0  0  2  0  0  0  0  0  0  0  0  0
    8.5015   -9.6687   -3.3835 O   0  0  0  0  0  0  0  0  0  0  0  0
    8.8647   -8.1705   -5.7856 C   0  0  0  0  0  0  0  0  0  0  0  0
    7.5846   -8.1238   -6.4682 N   0  3  0  0  0  0  0  0  0  0  0  0
   12.1885   -2.0183   -3.3811 C   0  0  2  0  0  0  0  0  0  0  0  0
   11.2521   -2.3803   -4.5170 C   0  0  0  0  0  0  0  0  0  0  0  0
   10.6292   -3.7434   -4.2785 C   0  0  1  0  0  0  0  0  0  0  0  0
    9.7939   -3.7942   -2.9984 C   0  0  2  0  0  0  0  0  0  0  0  0
   10.5929   -3.2445   -1.7941 C   0  0  1  0  0  0  0  0  0  0  0  0
   11.4417   -1.9930   -2.0543 C   0  0  1  0  0  0  0  0  0  0  0  0
   12.7740   -0.7159   -3.6357 N   0  3  0  0  0  0  0  0  0  0  0  0
    9.8216   -4.1001   -5.4286 N   0  3  0  0  0  0  0  0  0  0  0  0
    9.7402   -3.0346   -0.6418 O   0  0  0  0  0  0  0  0  0  0  0  0
   12.3653   -1.8067   -0.9869 O   0  0  0  0  0  0  0  0  0  0  0  0
  1  2  1  0  0  0  0
  3  2  1  6  0  0  0
  3  4  1  0  0  0  0
  3  5  1  0  0  0  0
  4  8  1  0  0  0  0
  5  6  1  0  0  0  0
  5 12  1  1  0  0  0
  6  7  1  6  0  0  0
  6  8  1  0  0  0  0
  8 41  1  1  0  0  0
  9 10  1  0  0  0  0
  9 17  1  0  0  0  0
  9 19  1  6  0  0  0
 10 11  1  0  0  0  0
 11 12  1  6  0  0  0
 11 13  1  0  0  0  0
 13 14  1  6  0  0  0
 13 15  1  0  0  0  0
 15 16  1  6  0  0  0
 15 17  1  0  0  0  0
 17 18  1  6  0  0  0
 19 20  1  0  0  0  0
 21 22  1  0  0  0  0
 21 29  1  0  0  0  0
 21 31  1  6  0  0  0
 22 23  1  0  0  0  0
 23 24  1  1  0  0  0
 23 25  1  0  0  0  0
 25 26  1  1  0  0  0
 25 27  1  0  0  0  0
 27 28  1  1  0  0  0
 27 29  1  0  0  0  0
 29 30  1  1  0  0  0
 31 32  1  0  0  0  0
 33 34  1  0  0  0  0
 33 38  1  0  0  0  0
 33 39  1  6  0  0  0
 34 35  1  0  0  0  0
 35 36  1  0  0  0  0
 35 40  1  6  0  0  0
 36 24  1  1  0  0  0
 36 37  1  0  0  0  0
 37 38  1  0  0  0  0
 37 41  1  1  0  0  0
 38 42  1  1  0  0  0
M  CHG  6  14   1  20   1  26   1  32   1  39   1  40   1
M  END
>  <CHROM.1>
178.94945918,166.07570683,-110.33085700,-68.95772899,-44.01730083,52.43919371
82.80873822,-129.73648291,155.10373541,56.69183881,-58.28741837,-51.09946957
100.24226643,-94.22014964,52.89688581,-173.77406568,-174.92259806,173.79167425
-62.09167875,77.93922613,-48.03115469,176.67110004,9.02422320,-1.93322622
-1.07984724,-1.51778449,-0.82554020,-2.55884171

>  <Name>


>  <RI>
0

>  <Rbt.Current_Directory>
/home/itssahil/PROJECTS/Mol_Feturizer/New_Systems/rnas/1qd3

>  <Rbt.Executable>
rbdock ($Id: //depot/dev/client3/rdock/2013.1/src/exe/rbdock.cxx#4 $)

>  <Rbt.Library>
libRbt.so (2013.1, Build901 2013/11/27)

>  <Rbt.Parameter_File>
/export/apps/rDock/src/rDock_2013.1_src/data/scripts/dock_solv.prm

>  <Rbt.Receptor>
prm/pocket_docking_3.prm

>  <SCORE>
-36.0868

>  <SCORE.INTER>
-21.3468

>  <SCORE.INTER.CONST>
1

>  <SCORE.INTER.POLAR>
-4.42225

>  <SCORE.INTER.ROT>
9

>  <SCORE.INTER.SOLV>
35.4927

>  <SCORE.INTER.VDW>
-20.9213

>  <SCORE.INTER.norm>
-0.508258

>  <SCORE.INTRA>
-15.6932

>  <SCORE.INTRA.DIHEDRAL>
-10.0442

>  <SCORE.INTRA.DIHEDRAL.0>
40.6252

>  <SCORE.INTRA.POLAR>
-0.751568

>  <SCORE.INTRA.POLAR.0>
-1.20161

>  <SCORE.INTRA.REPUL>
-0.115675

>  <SCORE.INTRA.REPUL.0>
0.115675

>  <SCORE.INTRA.SOLV>
-1.86739

>  <SCORE.INTRA.SOLV.lig_0>
-154.895

>  <SCORE.INTRA.VDW>
-6.60371

>  <SCORE.INTRA.VDW.0>
2.2925

>  <SCORE.INTRA.norm>
-0.373648

>  <SCORE.RESTR>
0.953271

>  <SCORE.RESTR.CAVITY>
0.953271

>  <SCORE.RESTR.norm>
0.0226969

>  <SCORE.SYSTEM>
0

>  <SCORE.SYSTEM.CONST>
0

>  <SCORE.SYSTEM.DIHEDRAL>
0

>  <SCORE.SYSTEM.SOLV>
0

>  <SCORE.SYSTEM.norm>
0

>  <SCORE.heavy>
42

>  <SCORE.norm>
-0.859209

>  <RMSD>
9.652

$$$$

 OpenBabel11021811413D
libRbt.so/2013.1/901 2013/11/27
 42 45  0  0  0  0  0  0  0  0999 V2000
   12.2471   -0.2368   -0.5960 O   0  0  0  0  0  0  0  0  0  0  0  0
   11.6044    0.9762   -0.9612 C   0  0  0  0  0  0  0  0  0  0  0  0
   10.2013    0.6792   -1.4917 C   0  0  1  0  0  0  0  0  0  0  0  0
   10.2319   -0.3373   -2.5172 O   0  0  0  0  0  0  0  0  0  0  0  0
    9.2501    0.1617   -0.4255 C   0  0  2  0  0  0  0  0  0  0  0  0
    8.1876   -0.4899   -1.2946 C   0  0  1  0  0  0  0  0  0  0  0  0
    7.3427    0.5105   -1.8525 O   0  0  0  0  0  0  0  0  0  0  0  0
    9.0316   -1.1435   -2.4078 C   0  0  2  0  0  0  0  0  0  0  0  0
   10.8512    4.0421    1.3443 C   0  0  2  0  0  0  0  0  0  0  0  0
    9.7971    3.3213    0.6879 O   0  0  0  0  0  0  0  0  0  0  0  0
    9.7519    1.9428    1.0984 C   0  0  2  0  0  0  0  0  0  0  0  0
    8.7214    1.2346    0.3785 O   0  0  0  0  0  0  0  0  0  0  0  0
    9.5145    1.8354    2.6145 C   0  0  2  0  0  0  0  0  0  0  0  0
    8.1245    2.0995    2.9379 N   0  3  0  0  0  0  0  0  0  0  0  0
   10.4385    2.7454    3.4322 C   0  0  1  0  0  0  0  0  0  0  0  0
   11.7281    2.1590    3.5105 O   0  0  0  0  0  0  0  0  0  0  0  0
   10.5492    4.1451    2.8338 C   0  0  2  0  0  0  0  0  0  0  0  0
    9.3353    4.8584    3.0392 O   0  0  0  0  0  0  0  0  0  0  0  0
   11.0207    5.4275    0.7272 C   0  0  0  0  0  0  0  0  0  0  0  0
    9.7335    6.0830    0.5924 N   0  3  0  0  0  0  0  0  0  0  0  0
   11.8015   -3.7897   -4.3434 C   0  0  1  0  0  0  0  0  0  0  0  0
   10.5153   -4.3607   -4.6622 O   0  0  0  0  0  0  0  0  0  0  0  0
   10.2455   -5.5942   -3.9571 C   0  0  2  0  0  0  0  0  0  0  0  0
   10.1280   -5.3884   -2.5276 O   0  0  0  0  0  0  0  0  0  0  0  0
   11.3150   -6.6453   -4.2783 C   0  0  2  0  0  0  0  0  0  0  0  0
   11.1545   -7.7967   -3.4099 N   0  3  0  0  0  0  0  0  0  0  0  0
   12.7239   -6.0864   -4.1140 C   0  0  1  0  0  0  0  0  0  0  0  0
   13.6673   -7.0052   -4.6430 O   0  0  0  0  0  0  0  0  0  0  0  0
   12.9131   -4.7310   -4.7777 C   0  0  2  0  0  0  0  0  0  0  0  0
   14.1768   -4.1838   -4.4311 O   0  0  0  0  0  0  0  0  0  0  0  0
   11.9893   -2.4741   -5.0935 C   0  0  0  0  0  0  0  0  0  0  0  0
   11.0192   -1.4882   -4.6531 N   0  3  0  0  0  0  0  0  0  0  0  0
    6.1078   -4.1776   -3.2142 C   0  0  2  0  0  0  0  0  0  0  0  0
    6.3428   -5.4578   -2.4371 C   0  0  0  0  0  0  0  0  0  0  0  0
    7.7674   -5.9433   -2.6309 C   0  0  1  0  0  0  0  0  0  0  0  0
    8.8061   -4.9383   -2.1306 C   0  0  2  0  0  0  0  0  0  0  0  0
    8.5345   -3.5290   -2.7059 C   0  0  1  0  0  0  0  0  0  0  0  0
    7.0663   -3.0861   -2.7575 C   0  0  1  0  0  0  0  0  0  0  0  0
    4.7394   -3.7385   -3.0170 N   0  3  0  0  0  0  0  0  0  0  0  0
    7.9265   -7.2180   -1.9585 N   0  3  0  0  0  0  0  0  0  0  0  0
    9.3336   -2.5203   -2.0406 O   0  0  0  0  0  0  0  0  0  0  0  0
    6.9357   -1.9479   -3.6028 O   0  0  0  0  0  0  0  0  0  0  0  0
  1  2  1  0  0  0  0
  3  2  1  1  0  0  0
  3  4  1  0  0  0  0
  3  5  1  0  0  0  0
  4  8  1  0  0  0  0
  5  6  1  0  0  0  0
  5 12  1  6  0  0  0
  6  7  1  6  0  0  0
  6  8  1  0  0  0  0
  8 41  1  1  0  0  0
  9 10  1  0  0  0  0
  9 17  1  0  0  0  0
  9 19  1  6  0  0  0
 10 11  1  0  0  0  0
 11 12  1  6  0  0  0
 11 13  1  0  0  0  0
 13 14  1  6  0  0  0
 13 15  1  0  0  0  0
 15 16  1  6  0  0  0
 15 17  1  0  0  0  0
 17 18  1  6  0  0  0
 19 20  1  0  0  0  0
 21 22  1  0  0  0  0
 21 29  1  0  0  0  0
 21 31  1  6  0  0  0
 22 23  1  0  0  0  0
 23 24  1  1  0  0  0
 23 25  1  0  0  0  0
 25 26  1  1  0  0  0
 25 27  1  0  0  0  0
 27 28  1  6  0  0  0
 27 29  1  0  0  0  0
 29 30  1  1  0  0  0
 31 32  1  0  0  0  0
 33 34  1  0  0  0  0
 33 38  1  0  0  0  0
 33 39  1  1  0  0  0
 34 35  1  0  0  0  0
 35 36  1  0  0  0  0
 35 40  1  1  0  0  0
 36 24  1  6  0  0  0
 36 37  1  0  0  0  0
 37 38  1  0  0  0  0
 37 41  1  1  0  0  0
 38 42  1  6  0  0  0
M  CHG  6  14   1  20   1  26   1  32   1  39   1  40   1
M  END
>  <CHROM.1>
62.45337554,-51.04488760,-61.93535289,-57.73978025,-140.76103959,47.70537191
118.17463235,163.12217437,70.66445350,50.35096490,148.54703601,64.29505893
82.83178745,56.03454552,65.26548298,172.45580794,-67.84098931,-176.50584863
-10.64524411,106.76094511,-173.12605450,124.15081075,9.82675132,-1.45643595
-1.55849611,-1.60608470,-0.18062227,-2.60238708

>  <Name>


>  <RI>
0

>  <Rbt.Current_Directory>
/home/itssahil/PROJECTS/Mol_Feturizer/New_Systems/rnas/1qd3

>  <Rbt.Executable>
rbdock ($Id: //depot/dev/client3/rdock/2013.1/src/exe/rbdock.cxx#4 $)

>  <Rbt.Library>
libRbt.so (2013.1, Build901 2013/11/27)

>  <Rbt.Parameter_File>
/export/apps/rDock/src/rDock_2013.1_src/data/scripts/dock_solv.prm

>  <Rbt.Receptor>
prm/pocket_docking_4.prm

>  <SCORE>
-22.6649

>  <SCORE.INTER>
-14.3764

>  <SCORE.INTER.CONST>
1

>  <SCORE.INTER.POLAR>
-3.11325

>  <SCORE.INTER.ROT>
9

>  <SCORE.INTER.SOLV>
34.5888

>  <SCORE.INTER.VDW>
-20.3363

>  <SCORE.INTER.norm>
-0.342295

>  <SCORE.INTRA>
-9.42859

>  <SCORE.INTRA.DIHEDRAL>
-6.03921

>  <SCORE.INTRA.DIHEDRAL.0>
40.6252

>  <SCORE.INTRA.POLAR>
-0.829544

>  <SCORE.INTRA.POLAR.0>
-1.20161

>  <SCORE.INTRA.REPUL>
-0.115675

>  <SCORE.INTRA.REPUL.0>
0.115675

>  <SCORE.INTRA.SOLV>
-1.76771

>  <SCORE.INTRA.SOLV.lig_0>
-154.895

>  <SCORE.INTRA.VDW>
-2.12631

>  <SCORE.INTRA.VDW.0>
2.2925

>  <SCORE.INTRA.norm>
-0.22449

>  <SCORE.RESTR>
1.14008

>  <SCORE.RESTR.CAVITY>
1.14008

>  <SCORE.RESTR.norm>
0.0271447

>  <SCORE.SYSTEM>
0

>  <SCORE.SYSTEM.CONST>
0

>  <SCORE.SYSTEM.DIHEDRAL>
0

>  <SCORE.SYSTEM.SOLV>
0

>  <SCORE.SYSTEM.norm>
0

>  <SCORE.heavy>
42

>  <SCORE.norm>
-0.53964

>  <RMSD>
9.687

$$$$

 OpenBabel11021811413D
libRbt.so/2013.1/901 2013/11/27
 42 45  0  0  0  0  0  0  0  0999 V2000
   12.7666    0.8504   -1.9643 O   0  0  0  0  0  0  0  0  0  0  0  0
   12.2302   -0.4485   -2.1711 C   0  0  0  0  0  0  0  0  0  0  0  0
   10.7051   -0.3719   -2.2523 C   0  0  1  0  0  0  0  0  0  0  0  0
   10.1382   -1.6291   -2.6809 O   0  0  0  0  0  0  0  0  0  0  0  0
   10.0452   -0.0537   -0.9209 C   0  0  2  0  0  0  0  0  0  0  0  0
    8.6289   -0.5325   -1.1922 C   0  0  1  0  0  0  0  0  0  0  0  0
    7.9429    0.4239   -1.9926 O   0  0  0  0  0  0  0  0  0  0  0  0
    8.8693   -1.8206   -2.0056 C   0  0  2  0  0  0  0  0  0  0  0  0
   10.4796    3.1786    2.5194 C   0  0  2  0  0  0  0  0  0  0  0  0
   10.5487    2.9020    1.1122 O   0  0  0  0  0  0  0  0  0  0  0  0
    9.9646    1.6280    0.7854 C   0  0  2  0  0  0  0  0  0  0  0  0
   10.1025    1.3555   -0.6246 O   0  0  0  0  0  0  0  0  0  0  0  0
    8.4822    1.5895    1.1945 C   0  0  2  0  0  0  0  0  0  0  0  0
    7.6687    2.3362    0.2526 N   0  3  0  0  0  0  0  0  0  0  0  0
    8.2415    2.0871    2.6246 C   0  0  1  0  0  0  0  0  0  0  0  0
    8.6057    1.0703    3.5445 O   0  0  0  0  0  0  0  0  0  0  0  0
    9.0249    3.3601    2.9335 C   0  0  2  0  0  0  0  0  0  0  0  0
    8.4522    4.4629    2.2404 O   0  0  0  0  0  0  0  0  0  0  0  0
   11.3014    4.4171    2.8650 C   0  0  0  0  0  0  0  0  0  0  0  0
   10.9477    5.5199    1.9911 N   0  3  0  0  0  0  0  0  0  0  0  0
    7.3089   -6.6591   -5.4807 C   0  0  1  0  0  0  0  0  0  0  0  0
    8.0830   -5.4631   -5.7102 O   0  0  0  0  0  0  0  0  0  0  0  0
    7.8223   -4.4181   -4.7451 C   0  0  2  0  0  0  0  0  0  0  0  0
    8.2489   -4.7912   -3.4115 O   0  0  0  0  0  0  0  0  0  0  0  0
    6.3402   -4.0247   -4.7616 C   0  0  2  0  0  0  0  0  0  0  0  0
    6.0516   -3.1342   -3.6528 N   0  3  0  0  0  0  0  0  0  0  0  0
    5.4306   -5.2451   -4.6740 C   0  0  1  0  0  0  0  0  0  0  0  0
    4.0885   -4.8604   -4.9290 O   0  0  0  0  0  0  0  0  0  0  0  0
    5.8266   -6.3588   -5.6312 C   0  0  2  0  0  0  0  0  0  0  0  0
    5.0646   -7.5283   -5.3701 O   0  0  0  0  0  0  0  0  0  0  0  0
    7.6731   -7.7229   -6.5124 C   0  0  0  0  0  0  0  0  0  0  0  0
    7.0298   -8.9855   -6.1979 N   0  3  0  0  0  0  0  0  0  0  0  0
   12.0959   -4.9818   -1.6050 C   0  0  2  0  0  0  0  0  0  0  0  0
   12.0212   -4.9474   -3.1187 C   0  0  0  0  0  0  0  0  0  0  0  0
   10.6186   -5.2848   -3.5894 C   0  0  1  0  0  0  0  0  0  0  0  0
    9.5718   -4.2913   -3.0834 C   0  0  2  0  0  0  0  0  0  0  0  0
    9.6944   -4.0885   -1.5554 C   0  0  1  0  0  0  0  0  0  0  0  0
   11.1188   -3.9862   -0.9943 C   0  0  1  0  0  0  0  0  0  0  0  0
   13.4459   -4.6619   -1.1818 N   0  3  0  0  0  0  0  0  0  0  0  0
   10.6087   -5.3419   -5.0382 N   0  3  0  0  0  0  0  0  0  0  0  0
    8.9014   -2.9635   -1.1032 O   0  0  0  0  0  0  0  0  0  0  0  0
   11.0922   -4.1456    0.4202 O   0  0  0  0  0  0  0  0  0  0  0  0
  1  2  1  0  0  0  0
  3  2  1  1  0  0  0
  3  4  1  0  0  0  0
  3  5  1  0  0  0  0
  4  8  1  0  0  0  0
  5  6  1  0  0  0  0
  5 12  1  6  0  0  0
  6  7  1  6  0  0  0
  6  8  1  0  0  0  0
  8 41  1  1  0  0  0
  9 10  1  0  0  0  0
  9 17  1  0  0  0  0
  9 19  1  6  0  0  0
 10 11  1  0  0  0  0
 11 12  1  6  0  0  0
 11 13  1  0  0  0  0
 13 14  1  6  0  0  0
 13 15  1  0  0  0  0
 15 16  1  1  0  0  0
 15 17  1  0  0  0  0
 17 18  1  6  0  0  0
 19 20  1  0  0  0  0
 21 22  1  0  0  0  0
 21 29  1  0  0  0  0
 21 31  1  6  0  0  0
 22 23  1  0  0  0  0
 23 24  1  1  0  0  0
 23 25  1  0  0  0  0
 25 26  1  1  0  0  0
 25 27  1  0  0  0  0
 27 28  1  6  0  0  0
 27 29  1  0  0  0  0
 29 30  1  1  0  0  0
 31 32  1  0  0  0  0
 33 34  1  0  0  0  0
 33 38  1  0  0  0  0
 33 39  1  6  0  0  0
 34 35  1  0  0  0  0
 35 36  1  0  0  0  0
 35 40  1  6  0  0  0
 36 24  1  1  0  0  0
 36 37  1  0  0  0  0
 37 38  1  0  0  0  0
 37 41  1  6  0  0  0
 38 42  1  1  0  0  0
M  CHG  6  14   1  20   1  26   1  32   1  39   1  40   1
M  END
>  <CHROM.1>
-61.91766058,170.45602246,-158.00515435,66.48503345,-35.66000278,50.71902802
156.63866358,82.36155960,-175.12853444,-172.56013741,-70.01589684,172.88494829
96.04739972,-85.93411856,61.05911371,-54.26080682,169.63277049,-57.17909535
-63.17521111,-55.60377730,-37.38525762,176.40252867,9.10697334,-1.96585325
-1.80402528,-1.35354087,0.20735972,-2.56149672

>  <Name>


>  <RI>
0

>  <Rbt.Current_Directory>
/home/itssahil/PROJECTS/Mol_Feturizer/New_Systems/rnas/1qd3

>  <Rbt.Executable>
rbdock ($Id: //depot/dev/client3/rdock/2013.1/src/exe/rbdock.cxx#4 $)

>  <Rbt.Library>
libRbt.so (2013.1, Build901 2013/11/27)

>  <Rbt.Parameter_File>
/export/apps/rDock/src/rDock_2013.1_src/data/scripts/dock_solv.prm

>  <Rbt.Receptor>
prm/pocket_docking_3.prm

>  <SCORE>
-45.9529

>  <SCORE.INTER>
-21.2076

>  <SCORE.INTER.CONST>
1

>  <SCORE.INTER.POLAR>
-3.541

>  <SCORE.INTER.ROT>
9

>  <SCORE.INTER.SOLV>
27.2234

>  <SCORE.INTER.VDW>
-21.0095

>  <SCORE.INTER.norm>
-0.504942

>  <SCORE.INTRA>
-26.0219

>  <SCORE.INTRA.DIHEDRAL>
-19.271

>  <SCORE.INTRA.DIHEDRAL.0>
40.6252

>  <SCORE.INTRA.POLAR>
-2.23615

>  <SCORE.INTRA.POLAR.0>
-1.20161

>  <SCORE.INTRA.REPUL>
-0.115675

>  <SCORE.INTRA.REPUL.0>
0.115675

>  <SCORE.INTRA.SOLV>
-1.9656

>  <SCORE.INTRA.SOLV.lig_0>
-154.895

>  <SCORE.INTRA.VDW>
-7.22223

>  <SCORE.INTRA.VDW.0>
2.2925

>  <SCORE.INTRA.norm>
-0.619568

>  <SCORE.RESTR>
1.2765

>  <SCORE.RESTR.CAVITY>
1.2765

>  <SCORE.RESTR.norm>
0.0303929

>  <SCORE.SYSTEM>
0

>  <SCORE.SYSTEM.CONST>
0

>  <SCORE.SYSTEM.DIHEDRAL>
0

>  <SCORE.SYSTEM.SOLV>
0

>  <SCORE.SYSTEM.norm>
0

>  <SCORE.heavy>
42

>  <SCORE.norm>
-1.09412

>  <RMSD>
9.702

$$$$

 OpenBabel11021811413D
libRbt.so/2013.1/901 2013/11/27
 42 45  0  0  0  0  0  0  0  0999 V2000
    5.6837   -1.1522   -1.9243 O   0  0  0  0  0  0  0  0  0  0  0  0
    5.5872   -2.4216   -2.5543 C   0  0  0  0  0  0  0  0  0  0  0  0
    6.4789   -3.4292   -1.8277 C   0  0  1  0  0  0  0  0  0  0  0  0
    6.2445   -4.7738   -2.2996 O   0  0  0  0  0  0  0  0  0  0  0  0
    7.9638   -3.1745   -2.0269 C   0  0  2  0  0  0  0  0  0  0  0  0
    8.5305   -4.5348   -1.6560 C   0  0  1  0  0  0  0  0  0  0  0  0
    8.5378   -4.6828   -0.2404 O   0  0  0  0  0  0  0  0  0  0  0  0
    7.5001   -5.4989   -2.2784 C   0  0  2  0  0  0  0  0  0  0  0  0
   11.0150    0.4552   -1.4320 C   0  0  2  0  0  0  0  0  0  0  0  0
    9.9926   -0.3640   -0.8445 O   0  0  0  0  0  0  0  0  0  0  0  0
    9.5063   -1.3586   -1.7638 C   0  0  2  0  0  0  0  0  0  0  0  0
    8.4419   -2.1249   -1.1628 O   0  0  0  0  0  0  0  0  0  0  0  0
   10.6472   -2.2885   -2.2111 C   0  0  2  0  0  0  0  0  0  0  0  0
   10.9726   -3.2430   -1.1674 N   0  3  0  0  0  0  0  0  0  0  0  0
   11.9026   -1.5275   -2.6535 C   0  0  1  0  0  0  0  0  0  0  0  0
   11.7036   -1.0097   -3.9593 O   0  0  0  0  0  0  0  0  0  0  0  0
   12.2545   -0.3886   -1.7003 C   0  0  2  0  0  0  0  0  0  0  0  0
   12.7616   -0.9160   -0.4799 O   0  0  0  0  0  0  0  0  0  0  0  0
   11.3473    1.6351   -0.5229 C   0  0  0  0  0  0  0  0  0  0  0  0
   10.3619    2.6884   -0.6794 N   0  3  0  0  0  0  0  0  0  0  0  0
    6.0582   -7.0655   -6.3806 C   0  0  1  0  0  0  0  0  0  0  0  0
    6.1348   -6.7086   -4.9846 O   0  0  0  0  0  0  0  0  0  0  0  0
    6.0520   -7.8472   -4.0969 C   0  0  2  0  0  0  0  0  0  0  0  0
    7.1932   -8.7292   -4.2364 O   0  0  0  0  0  0  0  0  0  0  0  0
    4.7371   -8.6063   -4.3127 C   0  0  2  0  0  0  0  0  0  0  0  0
    4.7590   -9.8552   -3.5741 N   0  3  0  0  0  0  0  0  0  0  0  0
    4.4904   -8.9010   -5.7881 C   0  0  1  0  0  0  0  0  0  0  0  0
    3.1684   -9.3863   -5.9641 O   0  0  0  0  0  0  0  0  0  0  0  0
    4.7078   -7.6928   -6.6860 C   0  0  2  0  0  0  0  0  0  0  0  0
    4.6475   -8.0759   -8.0521 O   0  0  0  0  0  0  0  0  0  0  0  0
    6.1954   -5.8169   -7.2472 C   0  0  0  0  0  0  0  0  0  0  0  0
    7.5309   -5.7248   -7.8083 N   0  3  0  0  0  0  0  0  0  0  0  0
   11.2930   -7.5966   -4.1435 C   0  0  2  0  0  0  0  0  0  0  0  0
   10.8130   -8.4376   -5.3099 C   0  0  0  0  0  0  0  0  0  0  0  0
    9.4743   -9.0762   -4.9894 C   0  0  1  0  0  0  0  0  0  0  0  0
    8.3777   -8.0443   -4.7217 C   0  0  2  0  0  0  0  0  0  0  0  0
    8.8440   -6.9980   -3.6832 C   0  0  1  0  0  0  0  0  0  0  0  0
   10.2884   -6.4987   -3.8212 C   0  0  1  0  0  0  0  0  0  0  0  0
   12.5749   -7.0030   -4.4727 N   0  3  0  0  0  0  0  0  0  0  0  0
    9.0955   -9.9506   -6.0823 N   0  3  0  0  0  0  0  0  0  0  0  0
    7.9344   -5.8722   -3.6176 O   0  0  0  0  0  0  0  0  0  0  0  0
   10.6806   -5.8235   -2.6306 O   0  0  0  0  0  0  0  0  0  0  0  0
  1  2  1  0  0  0  0
  3  2  1  6  0  0  0
  3  4  1  0  0  0  0
  3  5  1  0  0  0  0
  4  8  1  0  0  0  0
  5  6  1  0  0  0  0
  5 12  1  1  0  0  0
  6  7  1  1  0  0  0
  6  8  1  0  0  0  0
  8 41  1  6  0  0  0
  9 10  1  0  0  0  0
  9 17  1  0  0  0  0
  9 19  1  1  0  0  0
 10 11  1  0  0  0  0
 11 12  1  1  0  0  0
 11 13  1  0  0  0  0
 13 14  1  1  0  0  0
 13 15  1  0  0  0  0
 15 16  1  6  0  0  0
 15 17  1  0  0  0  0
 17 18  1  1  0  0  0
 19 20  1  0  0  0  0
 21 22  1  0  0  0  0
 21 29  1  0  0  0  0
 21 31  1  6  0  0  0
 22 23  1  0  0  0  0
 23 24  1  6  0  0  0
 23 25  1  0  0  0  0
 25 26  1  1  0  0  0
 25 27  1  0  0  0  0
 27 28  1  1  0  0  0
 27 29  1  0  0  0  0
 29 30  1  6  0  0  0
 31 32  1  0  0  0  0
 33 34  1  0  0  0  0
 33 38  1  0  0  0  0
 33 39  1  6  0  0  0
 34 35  1  0  0  0  0
 35 36  1  0  0  0  0
 35 40  1  6  0  0  0
 36 24  1  1  0  0  0
 36 37  1  0  0  0  0
 37 38  1  0  0  0  0
 37 41  1  6  0  0  0
 38 42  1  1  0  0  0
M  CHG  6  14   1  20   1  26   1  32   1  39   1  40   1
M  END
>  <CHROM.1>
66.82148608,170.65825843,-147.40730559,62.62830749,-156.99786534,-80.26599750
-177.37646257,-71.37255473,-51.94307014,-64.66797184,49.06298630,102.37069669
25.89321478,-173.53601727,-175.23114587,-176.13322790,-176.89019085,-27.54530598
56.19671576,-169.42397583,130.31962675,-60.41527064,8.39331251,-4.93754484
-3.47363172,1.10357413,-0.06220337,0.46984632

>  <Name>


>  <RI>
0

>  <Rbt.Current_Directory>
/home/itssahil/PROJECTS/Mol_Feturizer/New_Systems/rnas/1qd3

>  <Rbt.Executable>
rbdock ($Id: //depot/dev/client3/rdock/2013.1/src/exe/rbdock.cxx#4 $)

>  <Rbt.Library>
libRbt.so (2013.1, Build901 2013/11/27)

>  <Rbt.Parameter_File>
/export/apps/rDock/src/rDock_2013.1_src/data/scripts/dock_solv.prm

>  <Rbt.Receptor>
prm/pocket_docking_3.prm

>  <SCORE>
-28.3949

>  <SCORE.INTER>
-15.4744

>  <SCORE.INTER.CONST>
1

>  <SCORE.INTER.POLAR>
-3.43444

>  <SCORE.INTER.ROT>
9

>  <SCORE.INTER.SOLV>
22.3572

>  <SCORE.INTER.VDW>
-15.9206

>  <SCORE.INTER.norm>
-0.368438

>  <SCORE.INTRA>
-15.928

>  <SCORE.INTRA.DIHEDRAL>
-12.8554

>  <SCORE.INTRA.DIHEDRAL.0>
40.6252

>  <SCORE.INTRA.POLAR>
-0.181046

>  <SCORE.INTRA.POLAR.0>
-1.20161

>  <SCORE.INTRA.REPUL>
-0.104958

>  <SCORE.INTRA.REPUL.0>
0.115675

>  <SCORE.INTRA.SOLV>
-7.85545

>  <SCORE.INTRA.SOLV.lig_0>
-154.895

>  <SCORE.INTRA.VDW>
-4.43224

>  <SCORE.INTRA.VDW.0>
2.2925

>  <SCORE.INTRA.norm>
-0.379238

>  <SCORE.RESTR>
3.00756

>  <SCORE.RESTR.CAVITY>
3.00756

>  <SCORE.RESTR.norm>
0.0716086

>  <SCORE.SYSTEM>
0

>  <SCORE.SYSTEM.CONST>
0

>  <SCORE.SYSTEM.DIHEDRAL>
0

>  <SCORE.SYSTEM.SOLV>
0

>  <SCORE.SYSTEM.norm>
0

>  <SCORE.heavy>
42

>  <SCORE.norm>
-0.676068

>  <RMSD>
9.706

$$$$

 OpenBabel11021811413D
libRbt.so/2013.1/901 2013/11/27
 42 45  0  0  0  0  0  0  0  0999 V2000
    9.2481    3.1409    0.7844 O   0  0  0  0  0  0  0  0  0  0  0  0
    9.8849    1.9214    0.4310 C   0  0  0  0  0  0  0  0  0  0  0  0
    8.8522    0.9405   -0.1256 C   0  0  1  0  0  0  0  0  0  0  0  0
    9.4260    0.0985   -1.1490 O   0  0  0  0  0  0  0  0  0  0  0  0
    8.2932   -0.0066    0.9232 C   0  0  2  0  0  0  0  0  0  0  0  0
    7.7417   -1.1093    0.0349 C   0  0  1  0  0  0  0  0  0  0  0  0
    6.5084   -0.6920   -0.5401 O   0  0  0  0  0  0  0  0  0  0  0  0
    8.8213   -1.2166   -1.0613 C   0  0  2  0  0  0  0  0  0  0  0  0
    7.4365    3.6988    3.6849 C   0  0  2  0  0  0  0  0  0  0  0  0
    6.9040    2.6950    2.8072 O   0  0  0  0  0  0  0  0  0  0  0  0
    7.8077    1.5866    2.6471 C   0  0  2  0  0  0  0  0  0  0  0  0
    7.2688    0.6256    1.7157 O   0  0  0  0  0  0  0  0  0  0  0  0
    8.0902    0.9164    4.0026 C   0  0  2  0  0  0  0  0  0  0  0  0
    6.9676    0.0936    4.4140 N   0  3  0  0  0  0  0  0  0  0  0  0
    8.4529    1.9197    5.1038 C   0  0  1  0  0  0  0  0  0  0  0  0
    9.7990    2.3357    4.9371 O   0  0  0  0  0  0  0  0  0  0  0  0
    7.5365    3.1403    5.0987 C   0  0  2  0  0  0  0  0  0  0  0  0
    6.2453    2.7801    5.5755 O   0  0  0  0  0  0  0  0  0  0  0  0
    6.5683    4.9535    3.6565 C   0  0  0  0  0  0  0  0  0  0  0  0
    5.4728    4.8329    4.6001 N   0  3  0  0  0  0  0  0  0  0  0  0
    7.8795   -6.5069   -4.1765 C   0  0  1  0  0  0  0  0  0  0  0  0
    7.4829   -5.1577   -3.8531 O   0  0  0  0  0  0  0  0  0  0  0  0
    7.9264   -4.7282   -2.5453 C   0  0  2  0  0  0  0  0  0  0  0  0
    9.3702   -4.6361   -2.4642 O   0  0  0  0  0  0  0  0  0  0  0  0
    7.3693   -5.6520   -1.4554 C   0  0  2  0  0  0  0  0  0  0  0  0
    7.9866   -5.3412   -0.1794 N   0  3  0  0  0  0  0  0  0  0  0  0
    7.6090   -7.1215   -1.7833 C   0  0  1  0  0  0  0  0  0  0  0  0
    6.8789   -7.9379   -0.8807 O   0  0  0  0  0  0  0  0  0  0  0  0
    7.2331   -7.4869   -3.2110 C   0  0  2  0  0  0  0  0  0  0  0  0
    7.6526   -8.8106   -3.5084 O   0  0  0  0  0  0  0  0  0  0  0  0
    7.4110   -6.8659   -5.5837 C   0  0  0  0  0  0  0  0  0  0  0  0
    8.3475   -7.7730   -6.2215 N   0  3  0  0  0  0  0  0  0  0  0  0
   12.4139   -1.8220   -3.4216 C   0  0  2  0  0  0  0  0  0  0  0  0
   11.4970   -2.2858   -4.5362 C   0  0  0  0  0  0  0  0  0  0  0  0
   10.7626   -3.5498   -4.1291 C   0  0  1  0  0  0  0  0  0  0  0  0
    9.8772   -3.3470   -2.8987 C   0  0  2  0  0  0  0  0  0  0  0  0
   10.6690   -2.6783   -1.7513 C   0  0  1  0  0  0  0  0  0  0  0  0
   11.6207   -1.5433   -2.1520 C   0  0  1  0  0  0  0  0  0  0  0  0
   13.1071   -0.6177   -3.8376 N   0  3  0  0  0  0  0  0  0  0  0  0
    9.9749   -4.0196   -5.2521 N   0  3  0  0  0  0  0  0  0  0  0  0
    9.7912   -2.2366   -0.6867 O   0  0  0  0  0  0  0  0  0  0  0  0
   12.5141   -1.2623   -1.0797 O   0  0  0  0  0  0  0  0  0  0  0  0
  1  2  1  0  0  0  0
  3  2  1  1  0  0  0
  3  4  1  0  0  0  0
  3  5  1  0  0  0  0
  4  8  1  0  0  0  0
  5  6  1  0  0  0  0
  5 12  1  6  0  0  0
  6  7  1  6  0  0  0
  6  8  1  0  0  0  0
  8 41  1  1  0  0  0
  9 10  1  0  0  0  0
  9 17  1  0  0  0  0
  9 19  1  1  0  0  0
 10 11  1  0  0  0  0
 11 12  1  6  0  0  0
 11 13  1  0  0  0  0
 13 14  1  1  0  0  0
 13 15  1  0  0  0  0
 15 16  1  6  0  0  0
 15 17  1  0  0  0  0
 17 18  1  6  0  0  0
 19 20  1  0  0  0  0
 21 22  1  0  0  0  0
 21 29  1  0  0  0  0
 21 31  1  6  0  0  0
 22 23  1  0  0  0  0
 23 24  1  6  0  0  0
 23 25  1  0  0  0  0
 25 26  1  1  0  0  0
 25 27  1  0  0  0  0
 27 28  1  1  0  0  0
 27 29  1  0  0  0  0
 29 30  1  6  0  0  0
 31 32  1  0  0  0  0
 33 34  1  0  0  0  0
 33 38  1  0  0  0  0
 33 39  1  6  0  0  0
 34 35  1  0  0  0  0
 35 36  1  0  0  0  0
 35 40  1  6  0  0  0
 36 24  1  1  0  0  0
 36 37  1  0  0  0  0
 37 38  1  0  0  0  0
 37 41  1  1  0  0  0
 38 42  1  1  0  0  0
M  CHG  6  14   1  20   1  26   1  32   1  39   1  40   1
M  END
>  <CHROM.1>
-171.86763043,146.61546903,-73.27759016,-98.00956154,-77.58976256,85.83886815
145.29274140,112.36749961,-77.59684719,-166.74531132,87.39993955,147.24041290
86.96576978,-117.11853079,-117.71490211,-55.93058949,-68.68347636,-131.51048067
-57.89723573,92.58880751,-62.67005044,-55.27951221,8.62193509,-1.64106896
-0.41003847,-1.70726196,-0.71935129,-2.52001835

>  <Name>


>  <RI>
0

>  <Rbt.Current_Directory>
/home/itssahil/PROJECTS/Mol_Feturizer/New_Systems/rnas/1qd3

>  <Rbt.Executable>
rbdock ($Id: //depot/dev/client3/rdock/2013.1/src/exe/rbdock.cxx#4 $)

>  <Rbt.Library>
libRbt.so (2013.1, Build901 2013/11/27)

>  <Rbt.Parameter_File>
/export/apps/rDock/src/rDock_2013.1_src/data/scripts/dock_solv.prm

>  <Rbt.Receptor>
prm/pocket_docking_3.prm

>  <SCORE>
-45.2758

>  <SCORE.INTER>
-40.3381

>  <SCORE.INTER.CONST>
1

>  <SCORE.INTER.POLAR>
-6.60703

>  <SCORE.INTER.ROT>
9

>  <SCORE.INTER.SOLV>
39.9466

>  <SCORE.INTER.VDW>
-27.7842

>  <SCORE.INTER.norm>
-0.960431

>  <SCORE.INTRA>
-5.65365

>  <SCORE.INTRA.DIHEDRAL>
6.53602

>  <SCORE.INTRA.DIHEDRAL.0>
40.6252

>  <SCORE.INTRA.POLAR>
0.208863

>  <SCORE.INTRA.POLAR.0>
-1.20161

>  <SCORE.INTRA.REPUL>
-0.115675

>  <SCORE.INTRA.REPUL.0>
0.115675

>  <SCORE.INTRA.SOLV>
-5.358

>  <SCORE.INTRA.SOLV.lig_0>
-154.895

>  <SCORE.INTRA.VDW>
-6.37442

>  <SCORE.INTRA.VDW.0>
2.2925

>  <SCORE.INTRA.norm>
-0.134611

>  <SCORE.RESTR>
0.715997

>  <SCORE.RESTR.CAVITY>
0.715997

>  <SCORE.RESTR.norm>
0.0170475

>  <SCORE.SYSTEM>
0

>  <SCORE.SYSTEM.CONST>
0

>  <SCORE.SYSTEM.DIHEDRAL>
0

>  <SCORE.SYSTEM.SOLV>
0

>  <SCORE.SYSTEM.norm>
0

>  <SCORE.heavy>
42

>  <SCORE.norm>
-1.07799

>  <RMSD>
9.719

$$$$

 OpenBabel11021811413D
libRbt.so/2013.1/901 2013/11/27
 42 45  0  0  0  0  0  0  0  0999 V2000
    9.8668   -0.4734   -3.6050 O   0  0  0  0  0  0  0  0  0  0  0  0
    9.0482    0.4341   -2.8812 C   0  0  0  0  0  0  0  0  0  0  0  0
    8.3857   -0.2890   -1.7079 C   0  0  1  0  0  0  0  0  0  0  0  0
    7.5203   -1.3504   -2.1664 O   0  0  0  0  0  0  0  0  0  0  0  0
    9.3800   -0.9453   -0.7645 C   0  0  2  0  0  0  0  0  0  0  0  0
    8.4771   -1.9455   -0.0623 C   0  0  1  0  0  0  0  0  0  0  0  0
    7.6840   -1.2763    0.9119 O   0  0  0  0  0  0  0  0  0  0  0  0
    7.5817   -2.4432   -1.2151 C   0  0  2  0  0  0  0  0  0  0  0  0
    7.8755    1.2193    2.8973 C   0  0  2  0  0  0  0  0  0  0  0  0
    8.9022    0.4837    2.2145 O   0  0  0  0  0  0  0  0  0  0  0  0
    8.9548    0.8084    0.8135 C   0  0  2  0  0  0  0  0  0  0  0  0
    9.9557    0.0111    0.1471 O   0  0  0  0  0  0  0  0  0  0  0  0
    9.2449    2.3059    0.6138 C   0  0  2  0  0  0  0  0  0  0  0  0
   10.6467    2.5952    0.8538 N   0  3  0  0  0  0  0  0  0  0  0  0
    8.3548    3.2093    1.4755 C   0  0  1  0  0  0  0  0  0  0  0  0
    7.0659    3.2977    0.8893 O   0  0  0  0  0  0  0  0  0  0  0  0
    8.2303    2.7007    2.9092 C   0  0  2  0  0  0  0  0  0  0  0  0
    9.4543    2.9057    3.6051 O   0  0  0  0  0  0  0  0  0  0  0  0
    7.6915    0.6933    4.3180 C   0  0  0  0  0  0  0  0  0  0  0  0
    6.4822    1.2373    4.9069 N   0  3  0  0  0  0  0  0  0  0  0  0
    8.0683   -6.1171   -5.6973 C   0  0  1  0  0  0  0  0  0  0  0  0
    8.0862   -4.9542   -4.8433 O   0  0  0  0  0  0  0  0  0  0  0  0
    6.8453   -4.7484   -4.1297 C   0  0  2  0  0  0  0  0  0  0  0  0
    6.5846   -5.8077   -3.1760 O   0  0  0  0  0  0  0  0  0  0  0  0
    5.6777   -4.5884   -5.1110 C   0  0  2  0  0  0  0  0  0  0  0  0
    4.4191   -4.5945   -4.3888 N   0  3  0  0  0  0  0  0  0  0  0  0
    5.6614   -5.6987   -6.1557 C   0  0  1  0  0  0  0  0  0  0  0  0
    4.7215   -5.3852   -7.1718 O   0  0  0  0  0  0  0  0  0  0  0  0
    7.0223   -5.9487   -6.7872 C   0  0  2  0  0  0  0  0  0  0  0  0
    6.9813   -7.1088   -7.6051 O   0  0  0  0  0  0  0  0  0  0  0  0
    9.4235   -6.2860   -6.3782 C   0  0  0  0  0  0  0  0  0  0  0  0
   10.4987   -6.2263   -5.4050 N   0  3  0  0  0  0  0  0  0  0  0  0
    8.3461   -6.5812    0.6185 C   0  0  2  0  0  0  0  0  0  0  0  0
    8.5176   -7.6210   -0.4712 C   0  0  0  0  0  0  0  0  0  0  0  0
    7.5179   -7.3893   -1.5891 C   0  0  1  0  0  0  0  0  0  0  0  0
    7.6910   -6.0269   -2.2620 C   0  0  2  0  0  0  0  0  0  0  0  0
    7.7394   -4.8931   -1.2118 C   0  0  1  0  0  0  0  0  0  0  0  0
    8.5469   -5.1784    0.0614 C   0  0  1  0  0  0  0  0  0  0  0  0
    9.3080   -6.8281    1.6758 N   0  3  0  0  0  0  0  0  0  0  0  0
    7.6423   -8.4575   -2.5616 N   0  3  0  0  0  0  0  0  0  0  0  0
    8.1683   -3.6409   -1.8008 O   0  0  0  0  0  0  0  0  0  0  0  0
    8.2283   -4.2150    1.0601 O   0  0  0  0  0  0  0  0  0  0  0  0
  1  2  1  0  0  0  0
  3  2  1  6  0  0  0
  3  4  1  0  0  0  0
  3  5  1  0  0  0  0
  4  8  1  0  0  0  0
  5  6  1  0  0  0  0
  5 12  1  1  0  0  0
  6  7  1  1  0  0  0
  6  8  1  0  0  0  0
  8 41  1  6  0  0  0
  9 10  1  0  0  0  0
  9 17  1  0  0  0  0
  9 19  1  1  0  0  0
 10 11  1  0  0  0  0
 11 12  1  6  0  0  0
 11 13  1  0  0  0  0
 13 14  1  1  0  0  0
 13 15  1  0  0  0  0
 15 16  1  6  0  0  0
 15 17  1  0  0  0  0
 17 18  1  1  0  0  0
 19 20  1  0  0  0  0
 21 22  1  0  0  0  0
 21 29  1  0  0  0  0
 21 31  1  6  0  0  0
 22 23  1  0  0  0  0
 23 24  1  1  0  0  0
 23 25  1  0  0  0  0
 25 26  1  1  0  0  0
 25 27  1  0  0  0  0
 27 28  1  6  0  0  0
 27 29  1  0  0  0  0
 29 30  1  1  0  0  0
 31 32  1  0  0  0  0
 33 34  1  0  0  0  0
 33 38  1  0  0  0  0
 33 39  1  1  0  0  0
 34 35  1  0  0  0  0
 35 36  1  0  0  0  0
 35 40  1  6  0  0  0
 36 24  1  6  0  0  0
 36 37  1  0  0  0  0
 37 38  1  0  0  0  0
 37 41  1  6  0  0  0
 38 42  1  1  0  0  0
M  CHG  6  14   1  20   1  26   1  32   1  39   1  40   1
M  END
>  <CHROM.1>
-61.89999974,-62.18107897,50.55332924,72.25288979,-152.80848268,-168.09217074
111.53147343,-174.86051307,-179.68058506,-68.66867499,-6.10822620,50.37243577
53.34135232,-163.34933105,-0.64764523,-174.94175650,73.00438610,-32.62378900
61.87600298,-53.22464340,147.16366824,54.78767550,8.01546149,-2.73196535
-1.39683582,0.55632205,-1.43035211,-0.28648906

>  <Name>


>  <RI>
0

>  <Rbt.Current_Directory>
/home/itssahil/PROJECTS/Mol_Feturizer/New_Systems/rnas/1qd3

>  <Rbt.Executable>
rbdock ($Id: //depot/dev/client3/rdock/2013.1/src/exe/rbdock.cxx#4 $)

>  <Rbt.Library>
libRbt.so (2013.1, Build901 2013/11/27)

>  <Rbt.Parameter_File>
/export/apps/rDock/src/rDock_2013.1_src/data/scripts/dock_solv.prm

>  <Rbt.Receptor>
prm/pocket_docking_2.prm

>  <SCORE>
-39.7424

>  <SCORE.INTER>
-34.9705

>  <SCORE.INTER.CONST>
1

>  <SCORE.INTER.POLAR>
-5.21977

>  <SCORE.INTER.ROT>
9

>  <SCORE.INTER.SOLV>
36.7887

>  <SCORE.INTER.VDW>
-27.7773

>  <SCORE.INTER.norm>
-0.832631

>  <SCORE.INTRA>
-9.70216

>  <SCORE.INTRA.DIHEDRAL>
-12.3974

>  <SCORE.INTRA.DIHEDRAL.0>
40.6252

>  <SCORE.INTRA.POLAR>
0.810506

>  <SCORE.INTRA.POLAR.0>
-1.20161

>  <SCORE.INTRA.REPUL>
-0.115675

>  <SCORE.INTRA.REPUL.0>
0.115675

>  <SCORE.INTRA.SOLV>
-11.0187

>  <SCORE.INTRA.SOLV.lig_0>
-154.895

>  <SCORE.INTRA.VDW>
-0.171454

>  <SCORE.INTRA.VDW.0>
2.2925

>  <SCORE.INTRA.norm>
-0.231004

>  <SCORE.RESTR>
4.93029

>  <SCORE.RESTR.CAVITY>
4.93029

>  <SCORE.RESTR.norm>
0.117388

>  <SCORE.SYSTEM>
0

>  <SCORE.SYSTEM.CONST>
0

>  <SCORE.SYSTEM.DIHEDRAL>
0

>  <SCORE.SYSTEM.SOLV>
0

>  <SCORE.SYSTEM.norm>
0

>  <SCORE.heavy>
42

>  <SCORE.norm>
-0.946247

>  <RMSD>
9.724

$$$$

 OpenBabel11021811413D
libRbt.so/2013.1/901 2013/11/27
 42 45  0  0  0  0  0  0  0  0999 V2000
    8.6473   -1.0445   -2.7733 O   0  0  0  0  0  0  0  0  0  0  0  0
    7.6634   -0.1875   -2.2120 C   0  0  0  0  0  0  0  0  0  0  0  0
    7.0974   -0.8143   -0.9371 C   0  0  1  0  0  0  0  0  0  0  0  0
    6.9764   -2.2476   -1.0658 O   0  0  0  0  0  0  0  0  0  0  0  0
    7.9670   -0.5814    0.2872 C   0  0  2  0  0  0  0  0  0  0  0  0
    7.4570   -1.6817    1.2027 C   0  0  1  0  0  0  0  0  0  0  0  0
    6.2070   -1.2983    1.7653 O   0  0  0  0  0  0  0  0  0  0  0  0
    7.2526   -2.8544    0.2220 C   0  0  2  0  0  0  0  0  0  0  0  0
   11.0997    2.2180    0.9232 C   0  0  2  0  0  0  0  0  0  0  0  0
    9.8664    1.7187    0.3837 O   0  0  0  0  0  0  0  0  0  0  0  0
    8.9652    1.2822    1.4172 C   0  0  2  0  0  0  0  0  0  0  0  0
    7.7620    0.7336    0.8401 O   0  0  0  0  0  0  0  0  0  0  0  0
    8.6215    2.4446    2.3644 C   0  0  2  0  0  0  0  0  0  0  0  0
    7.6650    3.3454    1.7479 N   0  3  0  0  0  0  0  0  0  0  0  0
    9.8579    3.2169    2.8392 C   0  0  1  0  0  0  0  0  0  0  0  0
   10.5144    2.4760    3.8555 O   0  0  0  0  0  0  0  0  0  0  0  0
   10.8349    3.5005    1.7014 C   0  0  2  0  0  0  0  0  0  0  0  0
   10.2986    4.4958    0.8375 O   0  0  0  0  0  0  0  0  0  0  0  0
   12.1156    2.4579   -0.1901 C   0  0  0  0  0  0  0  0  0  0  0  0
   11.5634    3.3439   -1.1975 N   0  3  0  0  0  0  0  0  0  0  0  0
    7.7466   -7.5476   -4.2681 C   0  0  1  0  0  0  0  0  0  0  0  0
    8.9519   -6.8930   -3.8201 O   0  0  0  0  0  0  0  0  0  0  0  0
    8.7138   -5.5908   -3.2376 C   0  0  2  0  0  0  0  0  0  0  0  0
    7.9529   -5.6767   -2.0074 O   0  0  0  0  0  0  0  0  0  0  0  0
    8.0278   -4.6639   -4.2485 C   0  0  2  0  0  0  0  0  0  0  0  0
    7.6062   -3.4403   -3.5920 N   0  3  0  0  0  0  0  0  0  0  0  0
    6.8171   -5.3289   -4.8939 C   0  0  1  0  0  0  0  0  0  0  0  0
    6.3599   -4.5381   -5.9801 O   0  0  0  0  0  0  0  0  0  0  0  0
    7.0976   -6.7420   -5.3817 C   0  0  2  0  0  0  0  0  0  0  0  0
    5.8930   -7.3690   -5.7969 O   0  0  0  0  0  0  0  0  0  0  0  0
    8.0791   -8.9276   -4.8282 C   0  0  0  0  0  0  0  0  0  0  0  0
    9.1580   -8.8435   -5.7955 N   0  3  0  0  0  0  0  0  0  0  0  0
    8.7740   -7.0467    1.9357 C   0  0  2  0  0  0  0  0  0  0  0  0
    9.5081   -7.7069    0.7854 C   0  0  0  0  0  0  0  0  0  0  0  0
    8.8209   -7.3969   -0.5316 C   0  0  1  0  0  0  0  0  0  0  0  0
    8.7899   -5.8998   -0.8424 C   0  0  2  0  0  0  0  0  0  0  0  0
    8.2439   -5.0960    0.3604 C   0  0  1  0  0  0  0  0  0  0  0  0
    8.7265   -5.5362    1.7488 C   0  0  1  0  0  0  0  0  0  0  0  0
    9.4465   -7.3628    3.1814 N   0  3  0  0  0  0  0  0  0  0  0  0
    9.4879   -8.1242   -1.5938 N   0  3  0  0  0  0  0  0  0  0  0  0
    8.4568   -3.6732    0.1896 O   0  0  0  0  0  0  0  0  0  0  0  0
    7.9017   -4.9539    2.7527 O   0  0  0  0  0  0  0  0  0  0  0  0
  1  2  1  0  0  0  0
  3  2  1  6  0  0  0
  3  4  1  0  0  0  0
  3  5  1  0  0  0  0
  4  8  1  0  0  0  0
  5  6  1  0  0  0  0
  5 12  1  1  0  0  0
  6  7  1  6  0  0  0
  6  8  1  0  0  0  0
  8 41  1  6  0  0  0
  9 10  1  0  0  0  0
  9 17  1  0  0  0  0
  9 19  1  6  0  0  0
 10 11  1  0  0  0  0
 11 12  1  6  0  0  0
 11 13  1  0  0  0  0
 13 14  1  6  0  0  0
 13 15  1  0  0  0  0
 15 16  1  1  0  0  0
 15 17  1  0  0  0  0
 17 18  1  6  0  0  0
 19 20  1  0  0  0  0
 21 22  1  0  0  0  0
 21 29  1  0  0  0  0
 21 31  1  6  0  0  0
 22 23  1  0  0  0  0
 23 24  1  1  0  0  0
 23 25  1  0  0  0  0
 25 26  1  1  0  0  0
 25 27  1  0  0  0  0
 27 28  1  6  0  0  0
 27 29  1  0  0  0  0
 29 30  1  1  0  0  0
 31 32  1  0  0  0  0
 33 34  1  0  0  0  0
 33 38  1  0  0  0  0
 33 39  1  1  0  0  0
 34 35  1  0  0  0  0
 35 36  1  0  0  0  0
 35 40  1  6  0  0  0
 36 24  1  6  0  0  0
 36 37  1  0  0  0  0
 37 38  1  0  0  0  0
 37 41  1  6  0  0  0
 38 42  1  1  0  0  0
M  CHG  6  14   1  20   1  26   1  32   1  39   1  40   1
M  END
>  <CHROM.1>
163.59994950,-37.11135903,-146.57402128,-78.54531573,-113.02909024,55.34731680
75.17349547,178.99176370,-160.51132453,-168.43567311,152.92926432,-50.28447245
86.27903313,-96.17791444,87.74077112,-84.06281246,-179.94302426,-59.17132599
65.59894135,-42.06906135,121.91371774,45.44390990,8.54652237,-2.77682089
-0.82857357,0.61855322,-1.38634770,-0.48567382

>  <Name>


>  <RI>
0

>  <Rbt.Current_Directory>
/home/itssahil/PROJECTS/Mol_Feturizer/New_Systems/rnas/1qd3

>  <Rbt.Executable>
rbdock ($Id: //depot/dev/client3/rdock/2013.1/src/exe/rbdock.cxx#4 $)

>  <Rbt.Library>
libRbt.so (2013.1, Build901 2013/11/27)

>  <Rbt.Parameter_File>
/export/apps/rDock/src/rDock_2013.1_src/data/scripts/dock_solv.prm

>  <Rbt.Receptor>
prm/pocket_docking_4.prm

>  <SCORE>
-50.8534

>  <SCORE.INTER>
-35.0288

>  <SCORE.INTER.CONST>
1

>  <SCORE.INTER.POLAR>
-5.51762

>  <SCORE.INTER.ROT>
9

>  <SCORE.INTER.SOLV>
29.3697

>  <SCORE.INTER.VDW>
-24.3503

>  <SCORE.INTER.norm>
-0.834018

>  <SCORE.INTRA>
-16.1865

>  <SCORE.INTRA.DIHEDRAL>
0.958974

>  <SCORE.INTRA.DIHEDRAL.0>
40.6252

>  <SCORE.INTRA.POLAR>
-2.09413

>  <SCORE.INTRA.POLAR.0>
-1.20161

>  <SCORE.INTRA.REPUL>
-0.115675

>  <SCORE.INTRA.REPUL.0>
0.115675

>  <SCORE.INTRA.SOLV>
0.785584

>  <SCORE.INTRA.SOLV.lig_0>
-154.895

>  <SCORE.INTRA.VDW>
-9.36033

>  <SCORE.INTRA.VDW.0>
2.2925

>  <SCORE.INTRA.norm>
-0.385392

>  <SCORE.RESTR>
0.361829

>  <SCORE.RESTR.CAVITY>
0.361829

>  <SCORE.RESTR.norm>
0.00861498

>  <SCORE.SYSTEM>
0

>  <SCORE.SYSTEM.CONST>
0

>  <SCORE.SYSTEM.DIHEDRAL>
0

>  <SCORE.SYSTEM.SOLV>
0

>  <SCORE.SYSTEM.norm>
0

>  <SCORE.heavy>
42

>  <SCORE.norm>
-1.2108

>  <RMSD>
9.724

$$$$

 OpenBabel11021811413D
libRbt.so/2013.1/901 2013/11/27
 42 45  0  0  0  0  0  0  0  0999 V2000
   11.2271    0.8577    1.0274 O   0  0  0  0  0  0  0  0  0  0  0  0
   10.0568    1.6010    0.7179 C   0  0  0  0  0  0  0  0  0  0  0  0
    9.0499    0.7044   -0.0037 C   0  0  1  0  0  0  0  0  0  0  0  0
    9.6966   -0.1124   -1.0039 O   0  0  0  0  0  0  0  0  0  0  0  0
    8.3339   -0.2654    0.9217 C   0  0  2  0  0  0  0  0  0  0  0  0
    7.8366   -1.2912   -0.0830 C   0  0  1  0  0  0  0  0  0  0  0  0
    6.6961   -0.7820   -0.7656 O   0  0  0  0  0  0  0  0  0  0  0  0
    9.0268   -1.3974   -1.0581 C   0  0  2  0  0  0  0  0  0  0  0  0
    7.2512    3.4218    3.6514 C   0  0  2  0  0  0  0  0  0  0  0  0
    6.7842    2.4155    2.7400 O   0  0  0  0  0  0  0  0  0  0  0  0
    7.7295    1.3401    2.5960 C   0  0  2  0  0  0  0  0  0  0  0  0
    7.2566    0.3772    1.6313 O   0  0  0  0  0  0  0  0  0  0  0  0
    7.9857    0.6575    3.9506 C   0  0  2  0  0  0  0  0  0  0  0  0
    6.8773   -0.2082    4.3086 N   0  3  0  0  0  0  0  0  0  0  0  0
    8.2751    1.6542    5.0792 C   0  0  1  0  0  0  0  0  0  0  0  0
    9.6117    2.1167    4.9676 O   0  0  0  0  0  0  0  0  0  0  0  0
    7.3193    2.8439    5.0593 C   0  0  2  0  0  0  0  0  0  0  0  0
    6.0246    2.4338    5.4836 O   0  0  0  0  0  0  0  0  0  0  0  0
    6.3431    4.6476    3.6106 C   0  0  0  0  0  0  0  0  0  0  0  0
    7.1199    5.8597    3.7903 N   0  3  0  0  0  0  0  0  0  0  0  0
    8.6718   -6.9485   -4.2729 C   0  0  1  0  0  0  0  0  0  0  0  0
    8.6609   -5.6216   -4.8398 O   0  0  0  0  0  0  0  0  0  0  0  0
    8.2682   -4.5987   -3.8959 C   0  0  2  0  0  0  0  0  0  0  0  0
    9.2310   -4.4506   -2.8231 O   0  0  0  0  0  0  0  0  0  0  0  0
    6.8655   -4.8819   -3.3445 C   0  0  2  0  0  0  0  0  0  0  0  0
    6.5705   -3.9748   -2.2510 N   0  3  0  0  0  0  0  0  0  0  0  0
    6.7308   -6.3191   -2.8535 C   0  0  1  0  0  0  0  0  0  0  0  0
    5.3684   -6.6037   -2.5760 O   0  0  0  0  0  0  0  0  0  0  0  0
    7.2692   -7.3434   -3.8406 C   0  0  2  0  0  0  0  0  0  0  0  0
    7.2878   -8.6350   -3.2506 O   0  0  0  0  0  0  0  0  0  0  0  0
    9.1361   -7.9590   -5.3179 C   0  0  0  0  0  0  0  0  0  0  0  0
   10.4827   -7.6540   -5.7653 N   0  3  0  0  0  0  0  0  0  0  0  0
   12.9298   -2.3524   -2.9483 C   0  0  2  0  0  0  0  0  0  0  0  0
   12.1106   -2.4277   -4.2216 C   0  0  0  0  0  0  0  0  0  0  0  0
   11.0624   -3.5199   -4.1155 C   0  0  1  0  0  0  0  0  0  0  0  0
   10.0697   -3.2759   -2.9780 C   0  0  2  0  0  0  0  0  0  0  0  0
   10.8088   -2.9778   -1.6529 C   0  0  1  0  0  0  0  0  0  0  0  0
   12.0369   -2.0630   -1.7492 C   0  0  1  0  0  0  0  0  0  0  0  0
   13.9264   -1.3065   -3.0776 N   0  3  0  0  0  0  0  0  0  0  0  0
   10.3676   -3.6310   -5.3832 N   0  3  0  0  0  0  0  0  0  0  0  0
    9.9011   -2.4838   -0.6375 O   0  0  0  0  0  0  0  0  0  0  0  0
   12.7994   -2.1520   -0.5502 O   0  0  0  0  0  0  0  0  0  0  0  0
  1  2  1  0  0  0  0
  3  2  1  1  0  0  0
  3  4  1  0  0  0  0
  3  5  1  0  0  0  0
  4  8  1  0  0  0  0
  5  6  1  0  0  0  0
  5 12  1  6  0  0  0
  6  7  1  6  0  0  0
  6  8  1  0  0  0  0
  8 41  1  1  0  0  0
  9 10  1  0  0  0  0
  9 17  1  0  0  0  0
  9 19  1  1  0  0  0
 10 11  1  0  0  0  0
 11 12  1  6  0  0  0
 11 13  1  0  0  0  0
 13 14  1  1  0  0  0
 13 15  1  0  0  0  0
 15 16  1  6  0  0  0
 15 17  1  0  0  0  0
 17 18  1  6  0  0  0
 19 20  1  0  0  0  0
 21 22  1  0  0  0  0
 21 29  1  0  0  0  0
 21 31  1  6  0  0  0
 22 23  1  0  0  0  0
 23 24  1  1  0  0  0
 23 25  1  0  0  0  0
 25 26  1  1  0  0  0
 25 27  1  0  0  0  0
 27 28  1  6  0  0  0
 27 29  1  0  0  0  0
 29 30  1  1  0  0  0
 31 32  1  0  0  0  0
 33 34  1  0  0  0  0
 33 38  1  0  0  0  0
 33 39  1  6  0  0  0
 34 35  1  0  0  0  0
 35 36  1  0  0  0  0
 35 40  1  6  0  0  0
 36 24  1  1  0  0  0
 36 37  1  0  0  0  0
 37 38  1  0  0  0  0
 37 41  1  1  0  0  0
 38 42  1  1  0  0  0
M  CHG  6  14   1  20   1  26   1  32   1  39   1  40   1
M  END
>  <CHROM.1>
179.01326043,-43.39470105,-68.61355923,-78.67857969,-81.72516731,-144.65427112
148.70945693,95.85545855,64.43124048,-177.28980870,111.77928858,60.81284522
103.56896743,-72.52948513,28.34016418,-49.34135509,-174.65952985,-166.99002457
-53.42620435,162.42314892,-49.36239489,175.19534881,8.82730129,-1.76047777
-0.59578694,-1.71003866,-0.42449756,-2.44952659

>  <Name>


>  <RI>
0

>  <Rbt.Current_Directory>
/home/itssahil/PROJECTS/Mol_Feturizer/New_Systems/rnas/1qd3

>  <Rbt.Executable>
rbdock ($Id: //depot/dev/client3/rdock/2013.1/src/exe/rbdock.cxx#4 $)

>  <Rbt.Library>
libRbt.so (2013.1, Build901 2013/11/27)

>  <Rbt.Parameter_File>
/export/apps/rDock/src/rDock_2013.1_src/data/scripts/dock_solv.prm

>  <Rbt.Receptor>
prm/pocket_docking_3.prm

>  <SCORE>
-50.7236

>  <SCORE.INTER>
-35.9929

>  <SCORE.INTER.CONST>
1

>  <SCORE.INTER.POLAR>
-6.21396

>  <SCORE.INTER.ROT>
9

>  <SCORE.INTER.SOLV>
42.8166

>  <SCORE.INTER.VDW>
-27.1543

>  <SCORE.INTER.norm>
-0.856974

>  <SCORE.INTRA>
-15.8393

>  <SCORE.INTRA.DIHEDRAL>
-10.0994

>  <SCORE.INTRA.DIHEDRAL.0>
40.6252

>  <SCORE.INTRA.POLAR>
0.0349408

>  <SCORE.INTRA.POLAR.0>
-1.20161

>  <SCORE.INTRA.REPUL>
-0.107016

>  <SCORE.INTRA.REPUL.0>
0.115675

>  <SCORE.INTRA.SOLV>
-8.17016

>  <SCORE.INTRA.SOLV.lig_0>
-154.895

>  <SCORE.INTRA.VDW>
-6.28826

>  <SCORE.INTRA.VDW.0>
2.2925

>  <SCORE.INTRA.norm>
-0.377126

>  <SCORE.RESTR>
1.10864

>  <SCORE.RESTR.CAVITY>
1.10864

>  <SCORE.RESTR.norm>
0.0263963

>  <SCORE.SYSTEM>
0

>  <SCORE.SYSTEM.CONST>
0

>  <SCORE.SYSTEM.DIHEDRAL>
0

>  <SCORE.SYSTEM.SOLV>
0

>  <SCORE.SYSTEM.norm>
0

>  <SCORE.heavy>
42

>  <SCORE.norm>
-1.2077

>  <RMSD>
9.733

$$$$

 OpenBabel11021811413D
libRbt.so/2013.1/901 2013/11/27
 42 45  0  0  0  0  0  0  0  0999 V2000
   12.9959   -5.9282   -2.4178 O   0  0  0  0  0  0  0  0  0  0  0  0
   11.6897   -5.3727   -2.3646 C   0  0  0  0  0  0  0  0  0  0  0  0
   11.5273   -4.3255   -3.4671 C   0  0  1  0  0  0  0  0  0  0  0  0
   11.6649   -4.9169   -4.7774 O   0  0  0  0  0  0  0  0  0  0  0  0
   10.1669   -3.6482   -3.4603 C   0  0  2  0  0  0  0  0  0  0  0  0
   10.1256   -3.0953   -4.8751 C   0  0  1  0  0  0  0  0  0  0  0  0
   10.9339   -1.9267   -4.9584 O   0  0  0  0  0  0  0  0  0  0  0  0
   10.7677   -4.2359   -5.6908 C   0  0  2  0  0  0  0  0  0  0  0  0
    7.4702   -1.7983   -0.0551 C   0  0  2  0  0  0  0  0  0  0  0  0
    8.7891   -1.9463   -0.6029 O   0  0  0  0  0  0  0  0  0  0  0  0
    8.7568   -2.4183   -1.9620 C   0  0  2  0  0  0  0  0  0  0  0  0
   10.0963   -2.6113   -2.4619 O   0  0  0  0  0  0  0  0  0  0  0  0
    7.9880   -1.4343   -2.8603 C   0  0  2  0  0  0  0  0  0  0  0  0
    8.7997   -0.2691   -3.1604 N   0  3  0  0  0  0  0  0  0  0  0  0
    6.6385   -1.0108   -2.2685 C   0  0  1  0  0  0  0  0  0  0  0  0
    5.6930   -2.0510   -2.4603 O   0  0  0  0  0  0  0  0  0  0  0  0
    6.7377   -0.6780   -0.7822 C   0  0  2  0  0  0  0  0  0  0  0  0
    7.4275    0.5539   -0.6055 O   0  0  0  0  0  0  0  0  0  0  0  0
    7.5386   -1.5195    1.4437 C   0  0  0  0  0  0  0  0  0  0  0  0
    6.3139   -1.9452    2.0947 N   0  3  0  0  0  0  0  0  0  0  0  0
    6.2734   -6.9045   -6.1237 C   0  0  1  0  0  0  0  0  0  0  0  0
    7.4983   -6.4470   -5.5133 O   0  0  0  0  0  0  0  0  0  0  0  0
    8.4784   -7.4961   -5.3398 C   0  0  2  0  0  0  0  0  0  0  0  0
    8.9570   -8.0079   -6.6081 O   0  0  0  0  0  0  0  0  0  0  0  0
    7.9147   -8.6232   -4.4660 C   0  0  2  0  0  0  0  0  0  0  0  0
    8.8211   -9.7564   -4.4736 N   0  3  0  0  0  0  0  0  0  0  0  0
    6.5408   -9.0773   -4.9464 C   0  0  1  0  0  0  0  0  0  0  0  0
    5.9598   -9.9430   -3.9836 O   0  0  0  0  0  0  0  0  0  0  0  0
    5.5907   -7.9227   -5.2251 C   0  0  2  0  0  0  0  0  0  0  0  0
    4.4040   -8.3984   -5.8433 O   0  0  0  0  0  0  0  0  0  0  0  0
    5.3131   -5.7332   -6.3093 C   0  0  0  0  0  0  0  0  0  0  0  0
    5.0744   -5.0590   -5.0463 N   0  3  0  0  0  0  0  0  0  0  0  0
   10.7640   -5.8318   -9.7860 C   0  0  2  0  0  0  0  0  0  0  0  0
    9.5381   -6.6660  -10.1012 C   0  0  0  0  0  0  0  0  0  0  0  0
    9.2747   -7.6650   -8.9897 C   0  0  1  0  0  0  0  0  0  0  0  0
    9.0035   -6.9915   -7.6437 C   0  0  2  0  0  0  0  0  0  0  0  0
   10.1003   -5.9528   -7.3136 C   0  0  1  0  0  0  0  0  0  0  0  0
   10.5792   -5.0751   -8.4776 C   0  0  1  0  0  0  0  0  0  0  0  0
   10.9967   -4.8905  -10.8648 N   0  3  0  0  0  0  0  0  0  0  0  0
    8.1600   -8.5105   -9.3703 N   0  3  0  0  0  0  0  0  0  0  0  0
    9.7239   -5.1217   -6.1882 O   0  0  0  0  0  0  0  0  0  0  0  0
   11.7954   -4.4256   -8.1227 O   0  0  0  0  0  0  0  0  0  0  0  0
  1  2  1  0  0  0  0
  3  2  1  1  0  0  0
  3  4  1  0  0  0  0
  3  5  1  0  0  0  0
  4  8  1  0  0  0  0
  5  6  1  0  0  0  0
  5 12  1  1  0  0  0
  6  7  1  1  0  0  0
  6  8  1  0  0  0  0
  8 41  1  1  0  0  0
  9 10  1  0  0  0  0
  9 17  1  0  0  0  0
  9 19  1  1  0  0  0
 10 11  1  0  0  0  0
 11 12  1  6  0  0  0
 11 13  1  0  0  0  0
 13 14  1  1  0  0  0
 13 15  1  0  0  0  0
 15 16  1  1  0  0  0
 15 17  1  0  0  0  0
 17 18  1  6  0  0  0
 19 20  1  0  0  0  0
 21 22  1  0  0  0  0
 21 29  1  0  0  0  0
 21 31  1  1  0  0  0
 22 23  1  0  0  0  0
 23 24  1  6  0  0  0
 23 25  1  0  0  0  0
 25 26  1  6  0  0  0
 25 27  1  0  0  0  0
 27 28  1  1  0  0  0
 27 29  1  0  0  0  0
 29 30  1  6  0  0  0
 31 32  1  0  0  0  0
 33 34  1  0  0  0  0
 33 38  1  0  0  0  0
 33 39  1  6  0  0  0
 34 35  1  0  0  0  0
 35 36  1  0  0  0  0
 35 40  1  6  0  0  0
 36 24  1  1  0  0  0
 36 37  1  0  0  0  0
 37 38  1  0  0  0  0
 37 41  1  1  0  0  0
 38 42  1  1  0  0  0
M  CHG  6  14   1  20   1  26   1  32   1  39   1  40   1
M  END
>  <CHROM.1>
70.97287644,62.49712081,-151.02742442,-46.12579492,-83.12091479,-154.77588550
150.76621099,-77.48381200,171.77493366,-161.71778061,-41.72686281,-55.56003530
32.93914313,-169.98891223,179.38620156,45.58438702,-173.88556431,166.50179617
-165.93189021,75.80805201,172.07154492,66.69394120,8.62779305,-4.86979311
-4.65134505,-1.70454493,-0.63109799,-2.35261291

>  <Name>


>  <RI>
0

>  <Rbt.Current_Directory>
/home/itssahil/PROJECTS/Mol_Feturizer/New_Systems/rnas/1qd3

>  <Rbt.Executable>
rbdock ($Id: //depot/dev/client3/rdock/2013.1/src/exe/rbdock.cxx#4 $)

>  <Rbt.Library>
libRbt.so (2013.1, Build901 2013/11/27)

>  <Rbt.Parameter_File>
/export/apps/rDock/src/rDock_2013.1_src/data/scripts/dock_solv.prm

>  <Rbt.Receptor>
prm/pocket_docking_4.prm

>  <SCORE>
-55.3032

>  <SCORE.INTER>
-39.7512

>  <SCORE.INTER.CONST>
1

>  <SCORE.INTER.POLAR>
-7.08187

>  <SCORE.INTER.ROT>
9

>  <SCORE.INTER.SOLV>
38.6047

>  <SCORE.INTER.VDW>
-25.3628

>  <SCORE.INTER.norm>
-0.946457

>  <SCORE.INTRA>
-16.926

>  <SCORE.INTRA.DIHEDRAL>
-14.8308

>  <SCORE.INTRA.DIHEDRAL.0>
40.6252

>  <SCORE.INTRA.POLAR>
0.750174

>  <SCORE.INTRA.POLAR.0>
-1.20161

>  <SCORE.INTRA.REPUL>
-0.0519515

>  <SCORE.INTRA.REPUL.0>
0.115675

>  <SCORE.INTRA.SOLV>
-11.0633

>  <SCORE.INTRA.SOLV.lig_0>
-154.895

>  <SCORE.INTRA.VDW>
-6.26981

>  <SCORE.INTRA.VDW.0>
2.2925

>  <SCORE.INTRA.norm>
-0.403001

>  <SCORE.RESTR>
1.37401

>  <SCORE.RESTR.CAVITY>
1.37401

>  <SCORE.RESTR.norm>
0.0327146

>  <SCORE.SYSTEM>
0

>  <SCORE.SYSTEM.CONST>
0

>  <SCORE.SYSTEM.DIHEDRAL>
0

>  <SCORE.SYSTEM.SOLV>
0

>  <SCORE.SYSTEM.norm>
0

>  <SCORE.heavy>
42

>  <SCORE.norm>
-1.31674

>  <RMSD>
9.743

$$$$

 OpenBabel11021811413D
libRbt.so/2013.1/901 2013/11/27
 42 45  0  0  0  0  0  0  0  0999 V2000
    6.7680   -1.8753    0.6301 O   0  0  0  0  0  0  0  0  0  0  0  0
    7.7171   -0.9785    0.0708 C   0  0  0  0  0  0  0  0  0  0  0  0
    8.9239   -1.7604   -0.4496 C   0  0  1  0  0  0  0  0  0  0  0  0
    8.5124   -2.8894   -1.2506 O   0  0  0  0  0  0  0  0  0  0  0  0
    9.8397   -0.9353   -1.3383 C   0  0  2  0  0  0  0  0  0  0  0  0
   10.5885   -2.0395   -2.0656 C   0  0  1  0  0  0  0  0  0  0  0  0
   11.5813   -2.5925   -1.2086 O   0  0  0  0  0  0  0  0  0  0  0  0
    9.4763   -3.0778   -2.3175 C   0  0  2  0  0  0  0  0  0  0  0  0
    8.8155    2.9130    0.2680 C   0  0  2  0  0  0  0  0  0  0  0  0
    9.2639    1.5503    0.3273 O   0  0  0  0  0  0  0  0  0  0  0  0
   10.3294    1.2939   -0.6052 C   0  0  2  0  0  0  0  0  0  0  0  0
   10.7161   -0.0954   -0.5613 O   0  0  0  0  0  0  0  0  0  0  0  0
   11.5401    2.1950   -0.3075 C   0  0  2  0  0  0  0  0  0  0  0  0
   12.2738    1.7069    0.8457 N   0  3  0  0  0  0  0  0  0  0  0  0
   11.1591    3.6679   -0.1176 C   0  0  1  0  0  0  0  0  0  0  0  0
   10.9265    4.2613   -1.3852 O   0  0  0  0  0  0  0  0  0  0  0  0
    9.9221    3.8368    0.7603 C   0  0  2  0  0  0  0  0  0  0  0  0
   10.2431    3.5386    2.1140 O   0  0  0  0  0  0  0  0  0  0  0  0
    7.5457    3.0978    1.0941 C   0  0  0  0  0  0  0  0  0  0  0  0
    7.7802    2.7195    2.4750 N   0  3  0  0  0  0  0  0  0  0  0  0
   12.4392   -6.1401   -3.3317 C   0  0  1  0  0  0  0  0  0  0  0  0
   11.7068   -4.9054   -3.1861 O   0  0  0  0  0  0  0  0  0  0  0  0
   11.0272   -4.4966   -4.3954 C   0  0  2  0  0  0  0  0  0  0  0  0
    9.9735   -5.4199   -4.7653 O   0  0  0  0  0  0  0  0  0  0  0  0
   12.0286   -4.3124   -5.5422 C   0  0  2  0  0  0  0  0  0  0  0  0
   11.3191   -4.1104   -6.7918 N   0  3  0  0  0  0  0  0  0  0  0  0
   12.9559   -5.5145   -5.6811 C   0  0  1  0  0  0  0  0  0  0  0  0
   14.0057   -5.2064   -6.5852 O   0  0  0  0  0  0  0  0  0  0  0  0
   13.5485   -5.9716   -4.3570 C   0  0  2  0  0  0  0  0  0  0  0  0
   14.2455   -7.1974   -4.5252 O   0  0  0  0  0  0  0  0  0  0  0  0
   13.0892   -6.5214   -2.0047 C   0  0  0  0  0  0  0  0  0  0  0  0
   12.0840   -6.9145   -1.0342 N   0  3  0  0  0  0  0  0  0  0  0  0
    5.8059   -5.0623   -3.9885 C   0  0  2  0  0  0  0  0  0  0  0  0
    6.5111   -6.3216   -3.5248 C   0  0  0  0  0  0  0  0  0  0  0  0
    7.8526   -6.4660   -4.2191 C   0  0  1  0  0  0  0  0  0  0  0  0
    8.8009   -5.3048   -3.9171 C   0  0  2  0  0  0  0  0  0  0  0  0
    8.1060   -3.9451   -4.1605 C   0  0  1  0  0  0  0  0  0  0  0  0
    6.6501   -3.8307   -3.6896 C   0  0  1  0  0  0  0  0  0  0  0  0
    4.5260   -4.9510   -3.3153 N   0  3  0  0  0  0  0  0  0  0  0  0
    8.4515   -7.7277   -3.8295 N   0  3  0  0  0  0  0  0  0  0  0  0
    8.8867   -2.8465   -3.6291 O   0  0  0  0  0  0  0  0  0  0  0  0
    6.0445   -2.6808   -4.2712 O   0  0  0  0  0  0  0  0  0  0  0  0
  1  2  1  0  0  0  0
  3  2  1  6  0  0  0
  3  4  1  0  0  0  0
  3  5  1  0  0  0  0
  4  8  1  0  0  0  0
  5  6  1  0  0  0  0
  5 12  1  1  0  0  0
  6  7  1  1  0  0  0
  6  8  1  0  0  0  0
  8 41  1  6  0  0  0
  9 10  1  0  0  0  0
  9 17  1  0  0  0  0
  9 19  1  1  0  0  0
 10 11  1  0  0  0  0
 11 12  1  1  0  0  0
 11 13  1  0  0  0  0
 13 14  1  1  0  0  0
 13 15  1  0  0  0  0
 15 16  1  6  0  0  0
 15 17  1  0  0  0  0
 17 18  1  1  0  0  0
 19 20  1  0  0  0  0
 21 22  1  0  0  0  0
 21 29  1  0  0  0  0
 21 31  1  1  0  0  0
 22 23  1  0  0  0  0
 23 24  1  6  0  0  0
 23 25  1  0  0  0  0
 25 26  1  6  0  0  0
 25 27  1  0  0  0  0
 27 28  1  6  0  0  0
 27 29  1  0  0  0  0
 29 30  1  6  0  0  0
 31 32  1  0  0  0  0
 33 34  1  0  0  0  0
 33 38  1  0  0  0  0
 33 39  1  1  0  0  0
 34 35  1  0  0  0  0
 35 36  1  0  0  0  0
 35 40  1  1  0  0  0
 36 24  1  6  0  0  0
 36 37  1  0  0  0  0
 37 38  1  0  0  0  0
 37 41  1  1  0  0  0
 38 42  1  6  0  0  0
M  CHG  6  14   1  20   1  26   1  32   1  39   1  40   1
M  END
>  <CHROM.1>
-169.34617227,47.81745514,-106.12738256,40.01747630,-79.73505456,58.33530598
81.31439379,-61.91805200,-170.82024544,-177.35355910,154.34860156,69.45147194
74.24881086,-170.23666702,-90.98266973,-64.35543444,61.25692269,-166.90394447
-73.04226931,177.47881944,-42.45506946,-23.86360969,9.85639874,-2.41387895
-2.20507585,1.68010228,0.11258714,0.52921448

>  <Name>


>  <RI>
0

>  <Rbt.Current_Directory>
/home/itssahil/PROJECTS/Mol_Feturizer/New_Systems/rnas/1qd3

>  <Rbt.Executable>
rbdock ($Id: //depot/dev/client3/rdock/2013.1/src/exe/rbdock.cxx#4 $)

>  <Rbt.Library>
libRbt.so (2013.1, Build901 2013/11/27)

>  <Rbt.Parameter_File>
/export/apps/rDock/src/rDock_2013.1_src/data/scripts/dock_solv.prm

>  <Rbt.Receptor>
prm/pocket_docking_6.prm

>  <SCORE>
-53.4909

>  <SCORE.INTER>
-34.682

>  <SCORE.INTER.CONST>
1

>  <SCORE.INTER.POLAR>
-7.38585

>  <SCORE.INTER.ROT>
9

>  <SCORE.INTER.SOLV>
29.0999

>  <SCORE.INTER.VDW>
-17.8018

>  <SCORE.INTER.norm>
-0.825761

>  <SCORE.INTRA>
-18.809

>  <SCORE.INTRA.DIHEDRAL>
-14.3656

>  <SCORE.INTRA.DIHEDRAL.0>
40.6252

>  <SCORE.INTRA.POLAR>
0.619999

>  <SCORE.INTRA.POLAR.0>
-1.20161

>  <SCORE.INTRA.REPUL>
-0.115675

>  <SCORE.INTRA.REPUL.0>
0.115675

>  <SCORE.INTRA.SOLV>
-11.4098

>  <SCORE.INTRA.SOLV.lig_0>
-154.895

>  <SCORE.INTRA.VDW>
-7.45088

>  <SCORE.INTRA.VDW.0>
2.2925

>  <SCORE.INTRA.norm>
-0.447833

>  <SCORE.RESTR>
0

>  <SCORE.RESTR.CAVITY>
0

>  <SCORE.RESTR.norm>
0

>  <SCORE.SYSTEM>
0

>  <SCORE.SYSTEM.CONST>
0

>  <SCORE.SYSTEM.DIHEDRAL>
0

>  <SCORE.SYSTEM.SOLV>
0

>  <SCORE.SYSTEM.norm>
0

>  <SCORE.heavy>
42

>  <SCORE.norm>
-1.27359

>  <RMSD>
9.745

$$$$

 OpenBabel11021811413D
libRbt.so/2013.1/901 2013/11/27
 42 45  0  0  0  0  0  0  0  0999 V2000
   11.2538   -0.8291   -2.4029 O   0  0  0  0  0  0  0  0  0  0  0  0
   10.2185   -0.0149   -2.9347 C   0  0  0  0  0  0  0  0  0  0  0  0
    8.8566   -0.6214   -2.5945 C   0  0  1  0  0  0  0  0  0  0  0  0
    8.7810   -2.0046   -3.0027 O   0  0  0  0  0  0  0  0  0  0  0  0
    8.5467   -0.6122   -1.1067 C   0  0  2  0  0  0  0  0  0  0  0  0
    7.4587   -1.6710   -1.0438 C   0  0  1  0  0  0  0  0  0  0  0  0
    6.2296   -1.1258   -1.5106 O   0  0  0  0  0  0  0  0  0  0  0  0
    7.9744   -2.7295   -2.0399 C   0  0  2  0  0  0  0  0  0  0  0  0
    9.7480    3.7220    0.4815 C   0  0  2  0  0  0  0  0  0  0  0  0
    8.6925    2.8572    0.0347 O   0  0  0  0  0  0  0  0  0  0  0  0
    9.1516    1.5084   -0.1668 C   0  0  2  0  0  0  0  0  0  0  0  0
    8.0826    0.6805   -0.6703 O   0  0  0  0  0  0  0  0  0  0  0  0
    9.7090    0.9234    1.1422 C   0  0  2  0  0  0  0  0  0  0  0  0
    8.6310    0.5475    2.0383 N   0  3  0  0  0  0  0  0  0  0  0  0
   10.6916    1.8644    1.8491 C   0  0  1  0  0  0  0  0  0  0  0  0
   11.9491    1.8104    1.1945 O   0  0  0  0  0  0  0  0  0  0  0  0
   10.1922    3.3064    1.8781 C   0  0  2  0  0  0  0  0  0  0  0  0
    9.1089    3.4268    2.7927 O   0  0  0  0  0  0  0  0  0  0  0  0
    9.2925    5.1784    0.4671 C   0  0  0  0  0  0  0  0  0  0  0  0
   10.4070    6.0607    0.7576 N   0  3  0  0  0  0  0  0  0  0  0  0
    8.6365   -6.6179   -5.3341 C   0  0  1  0  0  0  0  0  0  0  0  0
    8.9882   -5.4928   -4.5019 O   0  0  0  0  0  0  0  0  0  0  0  0
    7.8436   -4.8455   -3.9000 C   0  0  2  0  0  0  0  0  0  0  0  0
    7.1664   -5.7089   -2.9536 O   0  0  0  0  0  0  0  0  0  0  0  0
    6.8772   -4.3431   -4.9796 C   0  0  2  0  0  0  0  0  0  0  0  0
    5.6428   -3.8886   -4.3668 N   0  3  0  0  0  0  0  0  0  0  0  0
    6.5590   -5.4281   -6.0024 C   0  0  1  0  0  0  0  0  0  0  0  0
    5.8610   -4.8603   -7.0999 O   0  0  0  0  0  0  0  0  0  0  0  0
    7.7949   -6.1538   -6.5116 C   0  0  2  0  0  0  0  0  0  0  0  0
    7.4198   -7.2668   -7.3098 O   0  0  0  0  0  0  0  0  0  0  0  0
    9.8984   -7.2678   -5.8944 C   0  0  0  0  0  0  0  0  0  0  0  0
   10.7206   -7.8015   -4.8238 N   0  3  0  0  0  0  0  0  0  0  0  0
    7.8830   -6.4808    1.1683 C   0  0  2  0  0  0  0  0  0  0  0  0
    8.1111   -7.6097    0.1825 C   0  0  0  0  0  0  0  0  0  0  0  0
    7.4391   -7.3018   -1.1428 C   0  0  1  0  0  0  0  0  0  0  0  0
    7.9881   -6.0359   -1.8024 C   0  0  2  0  0  0  0  0  0  0  0  0
    7.9960   -4.8524   -0.8074 C   0  0  1  0  0  0  0  0  0  0  0  0
    8.4399   -5.1713    0.6264 C   0  0  1  0  0  0  0  0  0  0  0  0
    8.5295   -6.8019    2.4265 N   0  3  0  0  0  0  0  0  0  0  0  0
    7.5911   -8.4428   -2.0245 N   0  3  0  0  0  0  0  0  0  0  0  0
    8.7531   -3.7298   -1.3226 O   0  0  0  0  0  0  0  0  0  0  0  0
    8.0777   -4.1007    1.4923 O   0  0  0  0  0  0  0  0  0  0  0  0
  1  2  1  0  0  0  0
  3  2  1  1  0  0  0
  3  4  1  0  0  0  0
  3  5  1  0  0  0  0
  4  8  1  0  0  0  0
  5  6  1  0  0  0  0
  5 12  1  6  0  0  0
  6  7  1  6  0  0  0
  6  8  1  0  0  0  0
  8 41  1  1  0  0  0
  9 10  1  0  0  0  0
  9 17  1  0  0  0  0
  9 19  1  1  0  0  0
 10 11  1  0  0  0  0
 11 12  1  1  0  0  0
 11 13  1  0  0  0  0
 13 14  1  1  0  0  0
 13 15  1  0  0  0  0
 15 16  1  6  0  0  0
 15 17  1  0  0  0  0
 17 18  1  1  0  0  0
 19 20  1  0  0  0  0
 21 22  1  0  0  0  0
 21 29  1  0  0  0  0
 21 31  1  6  0  0  0
 22 23  1  0  0  0  0
 23 24  1  1  0  0  0
 23 25  1  0  0  0  0
 25 26  1  1  0  0  0
 25 27  1  0  0  0  0
 27 28  1  6  0  0  0
 27 29  1  0  0  0  0
 29 30  1  1  0  0  0
 31 32  1  0  0  0  0
 33 34  1  0  0  0  0
 33 38  1  0  0  0  0
 33 39  1  1  0  0  0
 34 35  1  0  0  0  0
 35 36  1  0  0  0  0
 35 40  1  6  0  0  0
 36 24  1  6  0  0  0
 36 37  1  0  0  0  0
 37 38  1  0  0  0  0
 37 41  1  6  0  0  0
 38 42  1  1  0  0  0
M  CHG  6  14   1  20   1  26   1  32   1  39   1  40   1
M  END
>  <CHROM.1>
57.96979127,-52.95398608,-93.58349969,-137.59666781,-154.12447363,-172.90447783
169.86675357,-43.24052705,-53.51899120,-175.25853763,-178.53781420,63.07304481
64.77808802,-159.51275002,-59.14875940,-49.09787530,56.17409262,-166.74608209
-51.85365157,66.34564588,93.34570028,-171.30822331,8.55275538,-2.56218849
-1.64945958,0.22555125,-1.39716731,-0.84723909

>  <Name>


>  <RI>
0

>  <Rbt.Current_Directory>
/home/itssahil/PROJECTS/Mol_Feturizer/New_Systems/rnas/1qd3

>  <Rbt.Executable>
rbdock ($Id: //depot/dev/client3/rdock/2013.1/src/exe/rbdock.cxx#4 $)

>  <Rbt.Library>
libRbt.so (2013.1, Build901 2013/11/27)

>  <Rbt.Parameter_File>
/export/apps/rDock/src/rDock_2013.1_src/data/scripts/dock_solv.prm

>  <Rbt.Receptor>
prm/pocket_docking_3.prm

>  <SCORE>
-47.5731

>  <SCORE.INTER>
-28.6165

>  <SCORE.INTER.CONST>
1

>  <SCORE.INTER.POLAR>
-4.43892

>  <SCORE.INTER.ROT>
9

>  <SCORE.INTER.SOLV>
29.0969

>  <SCORE.INTER.VDW>
-23.5802

>  <SCORE.INTER.norm>
-0.681344

>  <SCORE.INTRA>
-19.625

>  <SCORE.INTRA.DIHEDRAL>
-17.2005

>  <SCORE.INTRA.DIHEDRAL.0>
40.6252

>  <SCORE.INTRA.POLAR>
1.18259

>  <SCORE.INTRA.POLAR.0>
-1.20161

>  <SCORE.INTRA.REPUL>
-0.115675

>  <SCORE.INTRA.REPUL.0>
0.115675

>  <SCORE.INTRA.SOLV>
-11.7071

>  <SCORE.INTRA.SOLV.lig_0>
-154.895

>  <SCORE.INTRA.VDW>
-8.61365

>  <SCORE.INTRA.VDW.0>
2.2925

>  <SCORE.INTRA.norm>
-0.467262

>  <SCORE.RESTR>
0.668393

>  <SCORE.RESTR.CAVITY>
0.668393

>  <SCORE.RESTR.norm>
0.0159141

>  <SCORE.SYSTEM>
0

>  <SCORE.SYSTEM.CONST>
0

>  <SCORE.SYSTEM.DIHEDRAL>
0

>  <SCORE.SYSTEM.SOLV>
0

>  <SCORE.SYSTEM.norm>
0

>  <SCORE.heavy>
42

>  <SCORE.norm>
-1.13269

>  <RMSD>
9.749

$$$$

 OpenBabel11021811413D
libRbt.so/2013.1/901 2013/11/27
 42 45  0  0  0  0  0  0  0  0999 V2000
   10.4038    2.3641   -1.2183 O   0  0  0  0  0  0  0  0  0  0  0  0
   10.1846    1.4595   -0.1453 C   0  0  0  0  0  0  0  0  0  0  0  0
    9.0994    0.4532   -0.5301 C   0  0  1  0  0  0  0  0  0  0  0  0
    9.5370   -0.4054   -1.6057 O   0  0  0  0  0  0  0  0  0  0  0  0
    8.7077   -0.4761    0.6069 C   0  0  2  0  0  0  0  0  0  0  0  0
    8.0544   -1.6059   -0.1713 C   0  0  1  0  0  0  0  0  0  0  0  0
    6.7462   -1.2174   -0.5760 O   0  0  0  0  0  0  0  0  0  0  0  0
    8.9710   -1.7255   -1.4058 C   0  0  2  0  0  0  0  0  0  0  0  0
    9.0353    3.4985    2.3458 C   0  0  2  0  0  0  0  0  0  0  0  0
    8.3608    2.4590    1.6205 O   0  0  0  0  0  0  0  0  0  0  0  0
    8.4307    1.1944    2.3036 C   0  0  2  0  0  0  0  0  0  0  0  0
    7.7950    0.1618    1.5218 O   0  0  0  0  0  0  0  0  0  0  0  0
    7.7773    1.2910    3.6929 C   0  0  2  0  0  0  0  0  0  0  0  0
    6.3302    1.2847    3.5829 N   0  3  0  0  0  0  0  0  0  0  0  0
    8.2498    2.5097    4.4944 C   0  0  1  0  0  0  0  0  0  0  0  0
    9.5383    2.2511    5.0288 O   0  0  0  0  0  0  0  0  0  0  0  0
    8.2933    3.7781    3.6465 C   0  0  2  0  0  0  0  0  0  0  0  0
    6.9704    4.2229    3.3699 O   0  0  0  0  0  0  0  0  0  0  0  0
    9.1422    4.7632    1.4986 C   0  0  0  0  0  0  0  0  0  0  0  0
   10.1108    5.6777    2.0734 N   0  3  0  0  0  0  0  0  0  0  0  0
    9.2216   -7.9277   -3.8629 C   0  0  1  0  0  0  0  0  0  0  0  0
    8.5446   -6.7182   -4.2638 O   0  0  0  0  0  0  0  0  0  0  0  0
    8.4408   -5.7413   -3.2025 C   0  0  2  0  0  0  0  0  0  0  0  0
    9.7376   -5.2323   -2.8037 O   0  0  0  0  0  0  0  0  0  0  0  0
    7.6832   -6.3243   -2.0034 C   0  0  2  0  0  0  0  0  0  0  0  0
    7.7689   -5.4168   -0.8744 N   0  3  0  0  0  0  0  0  0  0  0  0
    8.2340   -7.6860   -1.5948 C   0  0  1  0  0  0  0  0  0  0  0  0
    7.3650   -8.2887   -0.6483 O   0  0  0  0  0  0  0  0  0  0  0  0
    8.4325   -8.6305   -2.7703 C   0  0  2  0  0  0  0  0  0  0  0  0
    9.1180   -9.8017   -2.3521 O   0  0  0  0  0  0  0  0  0  0  0  0
    9.3263   -8.8846   -5.0470 C   0  0  0  0  0  0  0  0  0  0  0  0
   10.3699   -9.8681   -4.8226 N   0  3  0  0  0  0  0  0  0  0  0  0
   12.2291   -2.0663   -4.1705 C   0  0  2  0  0  0  0  0  0  0  0  0
   11.2740   -2.6997   -5.1628 C   0  0  0  0  0  0  0  0  0  0  0  0
   10.7750   -4.0349   -4.6423 C   0  0  1  0  0  0  0  0  0  0  0  0
   10.0063   -3.9049   -3.3266 C   0  0  2  0  0  0  0  0  0  0  0  0
   10.8126   -3.0847   -2.2933 C   0  0  1  0  0  0  0  0  0  0  0  0
   11.5445   -1.8467   -2.8282 C   0  0  1  0  0  0  0  0  0  0  0  0
   12.6951   -0.7962   -4.6936 N   0  3  0  0  0  0  0  0  0  0  0  0
    9.9469   -4.6567   -5.6572 N   0  3  0  0  0  0  0  0  0  0  0  0
    9.9996   -2.7243   -1.1495 O   0  0  0  0  0  0  0  0  0  0  0  0
   12.4981   -1.3993   -1.8704 O   0  0  0  0  0  0  0  0  0  0  0  0
  1  2  1  0  0  0  0
  3  2  1  1  0  0  0
  3  4  1  0  0  0  0
  3  5  1  0  0  0  0
  4  8  1  0  0  0  0
  5  6  1  0  0  0  0
  5 12  1  1  0  0  0
  6  7  1  6  0  0  0
  6  8  1  0  0  0  0
  8 41  1  1  0  0  0
  9 10  1  0  0  0  0
  9 17  1  0  0  0  0
  9 19  1  6  0  0  0
 10 11  1  0  0  0  0
 11 12  1  6  0  0  0
 11 13  1  0  0  0  0
 13 14  1  6  0  0  0
 13 15  1  0  0  0  0
 15 16  1  6  0  0  0
 15 17  1  0  0  0  0
 17 18  1  6  0  0  0
 19 20  1  0  0  0  0
 21 22  1  0  0  0  0
 21 29  1  0  0  0  0
 21 31  1  6  0  0  0
 22 23  1  0  0  0  0
 23 24  1  1  0  0  0
 23 25  1  0  0  0  0
 25 26  1  1  0  0  0
 25 27  1  0  0  0  0
 27 28  1  1  0  0  0
 27 29  1  0  0  0  0
 29 30  1  1  0  0  0
 31 32  1  0  0  0  0
 33 34  1  0  0  0  0
 33 38  1  0  0  0  0
 33 39  1  6  0  0  0
 34 35  1  0  0  0  0
 35 36  1  0  0  0  0
 35 40  1  6  0  0  0
 36 24  1  1  0  0  0
 36 37  1  0  0  0  0
 37 38  1  0  0  0  0
 37 41  1  1  0  0  0
 38 42  1  1  0  0  0
M  CHG  6  14   1  20   1  26   1  32   1  39   1  40   1
M  END
>  <CHROM.1>
-175.12375545,66.19128473,-70.56083822,-72.10182195,-71.86412908,-165.00287782
88.98232632,45.27968566,-85.28853766,-57.08307059,177.83709741,160.26200574
103.16283958,-93.75690841,52.96610994,-56.60621475,71.76959578,67.67566271
77.07897487,79.16198847,-70.61215093,-177.33787855,9.22978219,-2.02857972
-0.93453114,-1.67584052,-0.90610189,-2.68300238

>  <Name>


>  <RI>
0

>  <Rbt.Current_Directory>
/home/itssahil/PROJECTS/Mol_Feturizer/New_Systems/rnas/1qd3

>  <Rbt.Executable>
rbdock ($Id: //depot/dev/client3/rdock/2013.1/src/exe/rbdock.cxx#4 $)

>  <Rbt.Library>
libRbt.so (2013.1, Build901 2013/11/27)

>  <Rbt.Parameter_File>
/export/apps/rDock/src/rDock_2013.1_src/data/scripts/dock_solv.prm

>  <Rbt.Receptor>
prm/pocket_docking_7.prm

>  <SCORE>
-58.4008

>  <SCORE.INTER>
-37.3876

>  <SCORE.INTER.CONST>
1

>  <SCORE.INTER.POLAR>
-7.38006

>  <SCORE.INTER.ROT>
9

>  <SCORE.INTER.SOLV>
30.8753

>  <SCORE.INTER.VDW>
-20.2166

>  <SCORE.INTER.norm>
-0.890181

>  <SCORE.INTRA>
-21.0132

>  <SCORE.INTRA.DIHEDRAL>
-14.0888

>  <SCORE.INTRA.DIHEDRAL.0>
40.6252

>  <SCORE.INTRA.POLAR>
-0.51284

>  <SCORE.INTRA.POLAR.0>
-1.20161

>  <SCORE.INTRA.REPUL>
-0.115675

>  <SCORE.INTRA.REPUL.0>
0.115675

>  <SCORE.INTRA.SOLV>
-8.13989

>  <SCORE.INTRA.SOLV.lig_0>
-154.895

>  <SCORE.INTRA.VDW>
-7.5768

>  <SCORE.INTRA.VDW.0>
2.2925

>  <SCORE.INTRA.norm>
-0.500314

>  <SCORE.RESTR>
0

>  <SCORE.RESTR.CAVITY>
0

>  <SCORE.RESTR.norm>
0

>  <SCORE.SYSTEM>
0

>  <SCORE.SYSTEM.CONST>
0

>  <SCORE.SYSTEM.DIHEDRAL>
0

>  <SCORE.SYSTEM.SOLV>
0

>  <SCORE.SYSTEM.norm>
0

>  <SCORE.heavy>
42

>  <SCORE.norm>
-1.39049

>  <RMSD>
9.750

$$$$

 OpenBabel11021811413D
libRbt.so/2013.1/901 2013/11/27
 42 45  0  0  0  0  0  0  0  0999 V2000
   12.2477   -9.4658   -1.1517 O   0  0  0  0  0  0  0  0  0  0  0  0
   10.8459   -9.3033   -0.9896 C   0  0  0  0  0  0  0  0  0  0  0  0
   10.5309   -7.8496   -0.6350 C   0  0  1  0  0  0  0  0  0  0  0  0
   10.8391   -6.9628   -1.7323 O   0  0  0  0  0  0  0  0  0  0  0  0
    9.0655   -7.6115   -0.3106 C   0  0  2  0  0  0  0  0  0  0  0  0
    8.9795   -6.1070   -0.5050 C   0  0  1  0  0  0  0  0  0  0  0  0
    9.5468   -5.4436    0.6192 O   0  0  0  0  0  0  0  0  0  0  0  0
    9.8674   -5.8865   -1.7466 C   0  0  2  0  0  0  0  0  0  0  0  0
    8.7264  -11.2959    2.6377 C   0  0  2  0  0  0  0  0  0  0  0  0
    8.8533   -9.8727    2.4974 O   0  0  0  0  0  0  0  0  0  0  0  0
    8.5565   -9.4358    1.1588 C   0  0  2  0  0  0  0  0  0  0  0  0
    8.7497   -8.0112    1.0376 O   0  0  0  0  0  0  0  0  0  0  0  0
    7.1168   -9.8145    0.7709 C   0  0  2  0  0  0  0  0  0  0  0  0
    6.1620   -8.9208    1.4002 N   0  3  0  0  0  0  0  0  0  0  0  0
    6.7749  -11.2751    1.0877 C   0  0  1  0  0  0  0  0  0  0  0  0
    7.3488  -12.1178    0.1011 O   0  0  0  0  0  0  0  0  0  0  0  0
    7.2666  -11.6977    2.4694 C   0  0  2  0  0  0  0  0  0  0  0  0
    6.4705  -11.0843    3.4767 O   0  0  0  0  0  0  0  0  0  0  0  0
    9.2631  -11.7530    3.9911 C   0  0  0  0  0  0  0  0  0  0  0  0
   10.7033  -11.5867    4.0474 N   0  3  0  0  0  0  0  0  0  0  0  0
    5.4107   -7.2265   -6.6282 C   0  0  1  0  0  0  0  0  0  0  0  0
    6.3153   -7.5516   -5.5521 O   0  0  0  0  0  0  0  0  0  0  0  0
    7.5420   -6.7863   -5.5840 C   0  0  2  0  0  0  0  0  0  0  0  0
    7.3082   -5.3750   -5.3534 O   0  0  0  0  0  0  0  0  0  0  0  0
    8.2872   -7.0146   -6.9047 C   0  0  2  0  0  0  0  0  0  0  0  0
    9.3984   -6.0877   -7.0132 N   0  3  0  0  0  0  0  0  0  0  0  0
    7.3691   -6.8394   -8.1092 C   0  0  1  0  0  0  0  0  0  0  0  0
    8.0298   -7.2865   -9.2829 O   0  0  0  0  0  0  0  0  0  0  0  0
    6.0443   -7.5728   -7.9657 C   0  0  2  0  0  0  0  0  0  0  0  0
    5.1673   -7.2193   -9.0252 O   0  0  0  0  0  0  0  0  0  0  0  0
    4.1287   -8.0439   -6.4977 C   0  0  0  0  0  0  0  0  0  0  0  0
    4.4328   -9.4409   -6.2479 N   0  3  0  0  0  0  0  0  0  0  0  0
    6.9568   -2.8966   -1.9133 C   0  0  2  0  0  0  0  0  0  0  0  0
    5.6823   -3.4063   -2.5567 C   0  0  0  0  0  0  0  0  0  0  0  0
    5.9613   -3.9147   -3.9591 C   0  0  1  0  0  0  0  0  0  0  0  0
    6.9500   -5.0813   -3.9775 C   0  0  2  0  0  0  0  0  0  0  0  0
    8.2201   -4.7433   -3.1630 C   0  0  1  0  0  0  0  0  0  0  0  0
    8.0016   -4.0018   -1.8376 C   0  0  1  0  0  0  0  0  0  0  0  0
    6.6622   -2.4120   -0.5783 N   0  3  0  0  0  0  0  0  0  0  0  0
    4.7082   -4.2987   -4.5791 N   0  3  0  0  0  0  0  0  0  0  0  0
    9.0398   -5.9177   -2.9448 O   0  0  0  0  0  0  0  0  0  0  0  0
    9.2368   -3.4640   -1.3769 O   0  0  0  0  0  0  0  0  0  0  0  0
  1  2  1  0  0  0  0
  3  2  1  6  0  0  0
  3  4  1  0  0  0  0
  3  5  1  0  0  0  0
  4  8  1  0  0  0  0
  5  6  1  0  0  0  0
  5 12  1  1  0  0  0
  6  7  1  1  0  0  0
  6  8  1  0  0  0  0
  8 41  1  6  0  0  0
  9 10  1  0  0  0  0
  9 17  1  0  0  0  0
  9 19  1  1  0  0  0
 10 11  1  0  0  0  0
 11 12  1  1  0  0  0
 11 13  1  0  0  0  0
 13 14  1  1  0  0  0
 13 15  1  0  0  0  0
 15 16  1  6  0  0  0
 15 17  1  0  0  0  0
 17 18  1  1  0  0  0
 19 20  1  0  0  0  0
 21 22  1  0  0  0  0
 21 29  1  0  0  0  0
 21 31  1  1  0  0  0
 22 23  1  0  0  0  0
 23 24  1  6  0  0  0
 23 25  1  0  0  0  0
 25 26  1  6  0  0  0
 25 27  1  0  0  0  0
 27 28  1  6  0  0  0
 27 29  1  0  0  0  0
 29 30  1  6  0  0  0
 31 32  1  0  0  0  0
 33 34  1  0  0  0  0
 33 38  1  0  0  0  0
 33 39  1  1  0  0  0
 34 35  1  0  0  0  0
 35 36  1  0  0  0  0
 35 40  1  1  0  0  0
 36 24  1  6  0  0  0
 36 37  1  0  0  0  0
 37 38  1  0  0  0  0
 37 41  1  1  0  0  0
 38 42  1  6  0  0  0
M  CHG  6  14   1  20   1  26   1  32   1  39   1  40   1
M  END
>  <CHROM.1>
170.76470986,66.45485604,-80.09270374,174.02319803,-168.83251311,-68.55149324
153.60113843,98.30776705,60.39457738,-60.64482504,164.92457378,-47.13195146
71.68268663,-146.05738363,-169.58756055,-163.85890402,68.77799259,-25.92474474
-44.93401851,41.39251618,-152.78921020,-59.07736292,7.83705767,-7.43965546
-2.20512848,0.83186315,1.23216587,2.72348485

>  <Name>


>  <RI>
0

>  <Rbt.Current_Directory>
/home/itssahil/PROJECTS/Mol_Feturizer/New_Systems/rnas/1qd3

>  <Rbt.Executable>
rbdock ($Id: //depot/dev/client3/rdock/2013.1/src/exe/rbdock.cxx#4 $)

>  <Rbt.Library>
libRbt.so (2013.1, Build901 2013/11/27)

>  <Rbt.Parameter_File>
/export/apps/rDock/src/rDock_2013.1_src/data/scripts/dock_solv.prm

>  <Rbt.Receptor>
prm/pocket_docking_8.prm

>  <SCORE>
-50.9192

>  <SCORE.INTER>
-37.2566

>  <SCORE.INTER.CONST>
1

>  <SCORE.INTER.POLAR>
-8.40855

>  <SCORE.INTER.ROT>
9

>  <SCORE.INTER.SOLV>
28.223

>  <SCORE.INTER.VDW>
-15.8169

>  <SCORE.INTER.norm>
-0.887062

>  <SCORE.INTRA>
-13.6804

>  <SCORE.INTRA.DIHEDRAL>
-16.981

>  <SCORE.INTRA.DIHEDRAL.0>
40.6252

>  <SCORE.INTRA.POLAR>
0.670723

>  <SCORE.INTRA.POLAR.0>
-1.20161

>  <SCORE.INTRA.REPUL>
-0.115675

>  <SCORE.INTRA.REPUL.0>
0.115675

>  <SCORE.INTRA.SOLV>
-12.8377

>  <SCORE.INTRA.SOLV.lig_0>
-154.895

>  <SCORE.INTRA.VDW>
-0.473078

>  <SCORE.INTRA.VDW.0>
2.2925

>  <SCORE.INTRA.norm>
-0.325723

>  <SCORE.RESTR>
0.0177321

>  <SCORE.RESTR.CAVITY>
0.0177321

>  <SCORE.RESTR.norm>
0.000422193

>  <SCORE.SYSTEM>
0

>  <SCORE.SYSTEM.CONST>
0

>  <SCORE.SYSTEM.DIHEDRAL>
0

>  <SCORE.SYSTEM.SOLV>
0

>  <SCORE.SYSTEM.norm>
0

>  <SCORE.heavy>
42

>  <SCORE.norm>
-1.21236

>  <RMSD>
9.753

$$$$

 OpenBabel11021811413D
libRbt.so/2013.1/901 2013/11/27
 42 45  0  0  0  0  0  0  0  0999 V2000
    9.6995   -3.3661   -2.8197 O   0  0  0  0  0  0  0  0  0  0  0  0
   10.2392   -2.6714   -1.7045 C   0  0  0  0  0  0  0  0  0  0  0  0
   10.5232   -3.6559   -0.5693 C   0  0  1  0  0  0  0  0  0  0  0  0
    9.3492   -4.4296   -0.2394 O   0  0  0  0  0  0  0  0  0  0  0  0
   11.6046   -4.6691   -0.9057 C   0  0  2  0  0  0  0  0  0  0  0  0
   11.3075   -5.7443    0.1260 C   0  0  1  0  0  0  0  0  0  0  0  0
   11.7985   -5.3382    1.3988 O   0  0  0  0  0  0  0  0  0  0  0  0
    9.7655   -5.7654    0.1415 C   0  0  2  0  0  0  0  0  0  0  0  0
   13.6775   -0.9855   -2.4932 C   0  0  2  0  0  0  0  0  0  0  0  0
   13.3733   -1.8784   -1.4108 O   0  0  0  0  0  0  0  0  0  0  0  0
   13.2866   -3.2459   -1.8501 C   0  0  2  0  0  0  0  0  0  0  0  0
   12.9230   -4.1077   -0.7516 O   0  0  0  0  0  0  0  0  0  0  0  0
   14.6187   -3.7028   -2.4691 C   0  0  2  0  0  0  0  0  0  0  0  0
   15.6005   -3.9741   -1.4353 N   0  3  0  0  0  0  0  0  0  0  0  0
   15.1773   -2.7070   -3.4924 C   0  0  1  0  0  0  0  0  0  0  0  0
   14.4698   -2.8414   -4.7149 O   0  0  0  0  0  0  0  0  0  0  0  0
   15.0852   -1.2637   -3.0047 C   0  0  2  0  0  0  0  0  0  0  0  0
   16.0356   -1.0393   -1.9699 O   0  0  0  0  0  0  0  0  0  0  0  0
   13.5388    0.4673   -2.0472 C   0  0  0  0  0  0  0  0  0  0  0  0
   12.1568    0.7681   -1.7238 N   0  3  0  0  0  0  0  0  0  0  0  0
    8.9937   -8.6801   -4.8368 C   0  0  1  0  0  0  0  0  0  0  0  0
    9.5139   -7.8228   -3.7992 O   0  0  0  0  0  0  0  0  0  0  0  0
    8.7592   -6.6002   -3.6344 C   0  0  2  0  0  0  0  0  0  0  0  0
    7.4138   -6.8520   -3.1587 O   0  0  0  0  0  0  0  0  0  0  0  0
    8.7425   -5.7953   -4.9396 C   0  0  2  0  0  0  0  0  0  0  0  0
    7.8145   -4.6856   -4.8255 N   0  3  0  0  0  0  0  0  0  0  0  0
    8.3459   -6.6595   -6.1314 C   0  0  1  0  0  0  0  0  0  0  0  0
    8.5711   -5.9443   -7.3364 O   0  0  0  0  0  0  0  0  0  0  0  0
    9.0895   -7.9852   -6.1852 C   0  0  2  0  0  0  0  0  0  0  0  0
    8.5446   -8.8159   -7.2000 O   0  0  0  0  0  0  0  0  0  0  0  0
    9.8175   -9.9621   -4.9169 C   0  0  0  0  0  0  0  0  0  0  0  0
   11.2368   -9.6599   -4.9505 N   0  3  0  0  0  0  0  0  0  0  0  0
    6.0640   -8.2187    0.6373 C   0  0  2  0  0  0  0  0  0  0  0  0
    5.7719   -9.0809   -0.5749 C   0  0  0  0  0  0  0  0  0  0  0  0
    5.9505   -8.2808   -1.8518 C   0  0  1  0  0  0  0  0  0  0  0  0
    7.3779   -7.7603   -2.0268 C   0  0  2  0  0  0  0  0  0  0  0  0
    7.8616   -7.0322   -0.7514 C   0  0  1  0  0  0  0  0  0  0  0  0
    7.4885   -7.6831    0.5871 C   0  0  1  0  0  0  0  0  0  0  0  0
    5.8808   -9.0042    1.8428 N   0  3  0  0  0  0  0  0  0  0  0  0
    5.5662   -9.1043   -2.9816 N   0  3  0  0  0  0  0  0  0  0  0  0
    9.2861   -6.7718   -0.7960 O   0  0  0  0  0  0  0  0  0  0  0  0
    7.6899   -6.7543    1.6473 O   0  0  0  0  0  0  0  0  0  0  0  0
  1  2  1  0  0  0  0
  3  2  1  6  0  0  0
  3  4  1  0  0  0  0
  3  5  1  0  0  0  0
  4  8  1  0  0  0  0
  5  6  1  0  0  0  0
  5 12  1  1  0  0  0
  6  7  1  1  0  0  0
  6  8  1  0  0  0  0
  8 41  1  6  0  0  0
  9 10  1  0  0  0  0
  9 17  1  0  0  0  0
  9 19  1  1  0  0  0
 10 11  1  0  0  0  0
 11 12  1  1  0  0  0
 11 13  1  0  0  0  0
 13 14  1  1  0  0  0
 13 15  1  0  0  0  0
 15 16  1  6  0  0  0
 15 17  1  0  0  0  0
 17 18  1  1  0  0  0
 19 20  1  0  0  0  0
 21 22  1  0  0  0  0
 21 29  1  0  0  0  0
 21 31  1  6  0  0  0
 22 23  1  0  0  0  0
 23 24  1  6  0  0  0
 23 25  1  0  0  0  0
 25 26  1  1  0  0  0
 25 27  1  0  0  0  0
 27 28  1  6  0  0  0
 27 29  1  0  0  0  0
 29 30  1  6  0  0  0
 31 32  1  0  0  0  0
 33 34  1  0  0  0  0
 33 38  1  0  0  0  0
 33 39  1  1  0  0  0
 34 35  1  0  0  0  0
 35 36  1  0  0  0  0
 35 40  1  6  0  0  0
 36 24  1  6  0  0  0
 36 37  1  0  0  0  0
 37 38  1  0  0  0  0
 37 41  1  6  0  0  0
 38 42  1  1  0  0  0
M  CHG  6  14   1  20   1  26   1  32   1  39   1  40   1
M  END
>  <CHROM.1>
-63.10653686,-54.05027253,-77.18680888,57.44168687,-71.35302834,-65.47465795
112.00011825,176.93215676,58.68206708,-60.86465587,-90.06275666,-48.63073842
47.93164033,-163.82257684,71.58602139,65.23521744,-64.99490858,51.12199011
41.90135894,71.51823440,162.58700075,65.45403163,10.25124530,-5.44603319
-2.34427677,-0.22631898,-0.73661770,-1.84180111

>  <Name>


>  <RI>
0

>  <Rbt.Current_Directory>
/home/itssahil/PROJECTS/Mol_Feturizer/New_Systems/rnas/1qd3

>  <Rbt.Executable>
rbdock ($Id: //depot/dev/client3/rdock/2013.1/src/exe/rbdock.cxx#4 $)

>  <Rbt.Library>
libRbt.so (2013.1, Build901 2013/11/27)

>  <Rbt.Parameter_File>
/export/apps/rDock/src/rDock_2013.1_src/data/scripts/dock_solv.prm

>  <Rbt.Receptor>
prm/pocket_docking_5.prm

>  <SCORE>
-35.0185

>  <SCORE.INTER>
-9.06718

>  <SCORE.INTER.CONST>
1

>  <SCORE.INTER.POLAR>
-2.58144

>  <SCORE.INTER.ROT>
9

>  <SCORE.INTER.SOLV>
15.4257

>  <SCORE.INTER.VDW>
-12.1819

>  <SCORE.INTER.norm>
-0.215885

>  <SCORE.INTRA>
-25.9513

>  <SCORE.INTRA.DIHEDRAL>
-23.0113

>  <SCORE.INTRA.DIHEDRAL.0>
40.6252

>  <SCORE.INTRA.POLAR>
-0.152101

>  <SCORE.INTRA.POLAR.0>
-1.20161

>  <SCORE.INTRA.REPUL>
-0.115675

>  <SCORE.INTRA.REPUL.0>
0.115675

>  <SCORE.INTRA.SOLV>
-11.066

>  <SCORE.INTRA.SOLV.lig_0>
-154.895

>  <SCORE.INTRA.VDW>
-7.81721

>  <SCORE.INTRA.VDW.0>
2.2925

>  <SCORE.INTRA.norm>
-0.617889

>  <SCORE.RESTR>
0

>  <SCORE.RESTR.CAVITY>
0

>  <SCORE.RESTR.norm>
0

>  <SCORE.SYSTEM>
0

>  <SCORE.SYSTEM.CONST>
0

>  <SCORE.SYSTEM.DIHEDRAL>
0

>  <SCORE.SYSTEM.SOLV>
0

>  <SCORE.SYSTEM.norm>
0

>  <SCORE.heavy>
42

>  <SCORE.norm>
-0.833774

>  <RMSD>
9.755

$$$$

 OpenBabel11021811413D
libRbt.so/2013.1/901 2013/11/27
 42 45  0  0  0  0  0  0  0  0999 V2000
   11.0691    0.1018   -1.5551 O   0  0  0  0  0  0  0  0  0  0  0  0
    9.9586    0.9718   -1.7206 C   0  0  0  0  0  0  0  0  0  0  0  0
    8.6593    0.1665   -1.6785 C   0  0  1  0  0  0  0  0  0  0  0  0
    8.6782   -0.9113   -2.6395 O   0  0  0  0  0  0  0  0  0  0  0  0
    8.3972   -0.4859   -0.3312 C   0  0  2  0  0  0  0  0  0  0  0  0
    7.3970   -1.5573   -0.7321 C   0  0  1  0  0  0  0  0  0  0  0  0
    6.1151   -0.9700   -0.9263 O   0  0  0  0  0  0  0  0  0  0  0  0
    7.9613   -2.0423   -2.0830 C   0  0  2  0  0  0  0  0  0  0  0  0
    9.9444    3.4211    1.0004 C   0  0  2  0  0  0  0  0  0  0  0  0
    8.9101    2.5661    0.4897 O   0  0  0  0  0  0  0  0  0  0  0  0
    8.8573    1.3095    1.1890 C   0  0  2  0  0  0  0  0  0  0  0  0
    7.8483    0.4533    0.6142 O   0  0  0  0  0  0  0  0  0  0  0  0
    8.5796    1.5322    2.6855 C   0  0  2  0  0  0  0  0  0  0  0  0
    7.1807    1.8488    2.9080 N   0  3  0  0  0  0  0  0  0  0  0  0
    9.4791    2.6059    3.3091 C   0  0  1  0  0  0  0  0  0  0  0  0
   10.7675    2.0613    3.5462 O   0  0  0  0  0  0  0  0  0  0  0  0
    9.6022    3.8430    2.4236 C   0  0  2  0  0  0  0  0  0  0  0  0
    8.3814    4.5737    2.4377 O   0  0  0  0  0  0  0  0  0  0  0  0
   10.1269    4.6405    0.1013 C   0  0  0  0  0  0  0  0  0  0  0  0
   10.9659    4.3108   -1.0355 N   0  3  0  0  0  0  0  0  0  0  0  0
    8.8017   -6.1868   -5.7181 C   0  0  1  0  0  0  0  0  0  0  0  0
    9.0721   -5.0260   -4.9047 O   0  0  0  0  0  0  0  0  0  0  0  0
    7.9064   -4.5322   -4.2057 C   0  0  2  0  0  0  0  0  0  0  0  0
    7.4250   -5.4762   -3.2174 O   0  0  0  0  0  0  0  0  0  0  0  0
    6.7990   -4.1583   -5.1985 C   0  0  2  0  0  0  0  0  0  0  0  0
    5.5703   -3.8672   -4.4835 N   0  3  0  0  0  0  0  0  0  0  0  0
    6.5411   -5.2748   -6.2042 C   0  0  1  0  0  0  0  0  0  0  0  0
    5.6891   -4.8015   -7.2358 O   0  0  0  0  0  0  0  0  0  0  0  0
    7.8146   -5.8347   -6.8190 C   0  0  2  0  0  0  0  0  0  0  0  0
    7.5223   -6.9865   -7.5965 O   0  0  0  0  0  0  0  0  0  0  0  0
   10.0870   -6.6681   -6.3851 C   0  0  0  0  0  0  0  0  0  0  0  0
   11.0172   -7.1831   -5.3970 N   0  3  0  0  0  0  0  0  0  0  0  0
    8.3433   -5.7363    0.9285 C   0  0  2  0  0  0  0  0  0  0  0  0
    8.6618   -6.9318    0.0525 C   0  0  0  0  0  0  0  0  0  0  0  0
    7.9213   -6.8350   -1.2686 C   0  0  1  0  0  0  0  0  0  0  0  0
    8.3111   -5.5945   -2.0736 C   0  0  2  0  0  0  0  0  0  0  0  0
    8.2214   -4.3195   -1.2035 C   0  0  1  0  0  0  0  0  0  0  0  0
    8.7396   -4.4395    0.2358 C   0  0  1  0  0  0  0  0  0  0  0  0
    9.0578   -5.8558    2.1852 N   0  3  0  0  0  0  0  0  0  0  0  0
    8.1687   -8.0396   -2.0368 N   0  3  0  0  0  0  0  0  0  0  0  0
    8.8376   -3.1840   -1.8592 O   0  0  0  0  0  0  0  0  0  0  0  0
    8.2905   -3.3281    1.0040 O   0  0  0  0  0  0  0  0  0  0  0  0
  1  2  1  0  0  0  0
  3  2  1  1  0  0  0
  3  4  1  0  0  0  0
  3  5  1  0  0  0  0
  4  8  1  0  0  0  0
  5  6  1  0  0  0  0
  5 12  1  1  0  0  0
  6  7  1  6  0  0  0
  6  8  1  0  0  0  0
  8 41  1  1  0  0  0
  9 10  1  0  0  0  0
  9 17  1  0  0  0  0
  9 19  1  6  0  0  0
 10 11  1  0  0  0  0
 11 12  1  6  0  0  0
 11 13  1  0  0  0  0
 13 14  1  6  0  0  0
 13 15  1  0  0  0  0
 15 16  1  6  0  0  0
 15 17  1  0  0  0  0
 17 18  1  6  0  0  0
 19 20  1  0  0  0  0
 21 22  1  0  0  0  0
 21 29  1  0  0  0  0
 21 31  1  6  0  0  0
 22 23  1  0  0  0  0
 23 24  1  1  0  0  0
 23 25  1  0  0  0  0
 25 26  1  1  0  0  0
 25 27  1  0  0  0  0
 27 28  1  6  0  0  0
 27 29  1  0  0  0  0
 29 30  1  1  0  0  0
 31 32  1  0  0  0  0
 33 34  1  0  0  0  0
 33 38  1  0  0  0  0
 33 39  1  1  0  0  0
 34 35  1  0  0  0  0
 35 36  1  0  0  0  0
 35 40  1  6  0  0  0
 36 24  1  6  0  0  0
 36 37  1  0  0  0  0
 37 38  1  0  0  0  0
 37 41  1  6  0  0  0
 38 42  1  1  0  0  0
M  CHG  6  14   1  20   1  26   1  32   1  39   1  40   1
M  END
>  <CHROM.1>
179.31781430,-54.18626944,-79.10064219,60.91530749,175.19083570,-82.10368055
96.80356987,-23.19367951,72.52538081,55.89579286,-47.02915016,67.26234610
70.56006330,-166.07156454,60.82383453,-35.28433162,-170.88818746,-167.40259604
-51.47225107,-55.24577054,121.37923799,-46.80541350,8.51546650,-2.17601652
-1.51697584,0.16104538,-1.45427457,-0.78684598

>  <Name>


>  <RI>
0

>  <Rbt.Current_Directory>
/home/itssahil/PROJECTS/Mol_Feturizer/New_Systems/rnas/1qd3

>  <Rbt.Executable>
rbdock ($Id: //depot/dev/client3/rdock/2013.1/src/exe/rbdock.cxx#4 $)

>  <Rbt.Library>
libRbt.so (2013.1, Build901 2013/11/27)

>  <Rbt.Parameter_File>
/export/apps/rDock/src/rDock_2013.1_src/data/scripts/dock_solv.prm

>  <Rbt.Receptor>
prm/pocket_docking_2.prm

>  <SCORE>
-42.3836

>  <SCORE.INTER>
-32.1747

>  <SCORE.INTER.CONST>
1

>  <SCORE.INTER.POLAR>
-5.0983

>  <SCORE.INTER.ROT>
9

>  <SCORE.INTER.SOLV>
35.3206

>  <SCORE.INTER.VDW>
-25.829

>  <SCORE.INTER.norm>
-0.766064

>  <SCORE.INTRA>
-16.7767

>  <SCORE.INTRA.DIHEDRAL>
-14.6717

>  <SCORE.INTRA.DIHEDRAL.0>
40.6252

>  <SCORE.INTRA.POLAR>
1.20051

>  <SCORE.INTRA.POLAR.0>
-1.20161

>  <SCORE.INTRA.REPUL>
-0.109735

>  <SCORE.INTRA.REPUL.0>
0.115675

>  <SCORE.INTRA.SOLV>
-12.3205

>  <SCORE.INTRA.SOLV.lig_0>
-154.895

>  <SCORE.INTRA.VDW>
-6.81366

>  <SCORE.INTRA.VDW.0>
2.2925

>  <SCORE.INTRA.norm>
-0.399446

>  <SCORE.RESTR>
6.56776

>  <SCORE.RESTR.CAVITY>
6.56776

>  <SCORE.RESTR.norm>
0.156375

>  <SCORE.SYSTEM>
0

>  <SCORE.SYSTEM.CONST>
0

>  <SCORE.SYSTEM.DIHEDRAL>
0

>  <SCORE.SYSTEM.SOLV>
0

>  <SCORE.SYSTEM.norm>
0

>  <SCORE.heavy>
42

>  <SCORE.norm>
-1.00913

>  <RMSD>
9.757

$$$$

 OpenBabel11021811413D
libRbt.so/2013.1/901 2013/11/27
 42 45  0  0  0  0  0  0  0  0999 V2000
    5.8019   -1.4546   -3.4248 O   0  0  0  0  0  0  0  0  0  0  0  0
    5.5492   -2.8472   -3.3047 C   0  0  0  0  0  0  0  0  0  0  0  0
    6.3213   -3.4124   -2.1118 C   0  0  1  0  0  0  0  0  0  0  0  0
    5.9611   -4.7876   -1.8572 O   0  0  0  0  0  0  0  0  0  0  0  0
    7.8277   -3.4103   -2.3123 C   0  0  2  0  0  0  0  0  0  0  0  0
    8.2473   -4.4334   -1.2701 C   0  0  1  0  0  0  0  0  0  0  0  0
    8.2138   -3.8426    0.0244 O   0  0  0  0  0  0  0  0  0  0  0  0
    7.1365   -5.4966   -1.3898 C   0  0  2  0  0  0  0  0  0  0  0  0
   11.5644   -2.7309   -3.7691 C   0  0  2  0  0  0  0  0  0  0  0  0
   10.1470   -2.6955   -3.5429 O   0  0  0  0  0  0  0  0  0  0  0  0
    9.8184   -2.0751   -2.2867 C   0  0  2  0  0  0  0  0  0  0  0  0
    8.3932   -2.1082   -2.0642 O   0  0  0  0  0  0  0  0  0  0  0  0
   10.3318   -0.6256   -2.2463 C   0  0  2  0  0  0  0  0  0  0  0  0
    9.4783    0.2450   -3.0336 N   0  3  0  0  0  0  0  0  0  0  0  0
   11.7923   -0.4940   -2.6940 C   0  0  1  0  0  0  0  0  0  0  0  0
   12.6469   -0.9119   -1.6414 O   0  0  0  0  0  0  0  0  0  0  0  0
   12.0887   -1.3119   -3.9481 C   0  0  2  0  0  0  0  0  0  0  0  0
   11.4783   -0.7033   -5.0802 O   0  0  0  0  0  0  0  0  0  0  0  0
   11.8934   -3.5894   -4.9871 C   0  0  0  0  0  0  0  0  0  0  0  0
   11.0757   -3.1967   -6.1194 N   0  3  0  0  0  0  0  0  0  0  0  0
    8.7216   -7.9173   -6.1911 C   0  0  1  0  0  0  0  0  0  0  0  0
    8.5699   -6.7736   -5.3245 O   0  0  0  0  0  0  0  0  0  0  0  0
    7.2777   -6.1346   -5.4404 C   0  0  2  0  0  0  0  0  0  0  0  0
    6.2039   -6.9930   -4.9824 O   0  0  0  0  0  0  0  0  0  0  0  0
    7.0342   -5.6648   -6.8798 C   0  0  2  0  0  0  0  0  0  0  0  0
    5.6613   -5.2197   -7.0301 N   0  3  0  0  0  0  0  0  0  0  0  0
    7.3159   -6.7709   -7.8905 C   0  0  1  0  0  0  0  0  0  0  0  0
    7.3087   -6.2320   -9.2034 O   0  0  0  0  0  0  0  0  0  0  0  0
    8.6361   -7.4855   -7.6459 C   0  0  2  0  0  0  0  0  0  0  0  0
    8.7499   -8.6169   -8.4964 O   0  0  0  0  0  0  0  0  0  0  0  0
   10.0907   -8.5565   -5.9774 C   0  0  0  0  0  0  0  0  0  0  0  0
   11.1514   -7.6141   -6.2833 N   0  3  0  0  0  0  0  0  0  0  0  0
    5.7552   -9.8592   -1.8706 C   0  0  2  0  0  0  0  0  0  0  0  0
    6.0858  -10.3641   -3.2612 C   0  0  0  0  0  0  0  0  0  0  0  0
    5.8135   -9.2881   -4.2961 C   0  0  1  0  0  0  0  0  0  0  0  0
    6.6616   -8.0339   -4.0798 C   0  0  2  0  0  0  0  0  0  0  0  0
    6.5617   -7.5439   -2.6167 C   0  0  1  0  0  0  0  0  0  0  0  0
    6.5863   -8.6290   -1.5321 C   0  0  1  0  0  0  0  0  0  0  0  0
    6.0183  -10.9067   -0.9024 N   0  3  0  0  0  0  0  0  0  0  0  0
    6.0434   -9.8369   -5.6183 N   0  3  0  0  0  0  0  0  0  0  0  0
    7.5555   -6.5303   -2.3266 O   0  0  0  0  0  0  0  0  0  0  0  0
    6.1501   -8.0812   -0.2924 O   0  0  0  0  0  0  0  0  0  0  0  0
  1  2  1  0  0  0  0
  3  2  1  6  0  0  0
  3  4  1  0  0  0  0
  3  5  1  0  0  0  0
  4  8  1  0  0  0  0
  5  6  1  0  0  0  0
  5 12  1  1  0  0  0
  6  7  1  1  0  0  0
  6  8  1  0  0  0  0
  8 41  1  6  0  0  0
  9 10  1  0  0  0  0
  9 17  1  0  0  0  0
  9 19  1  6  0  0  0
 10 11  1  0  0  0  0
 11 12  1  6  0  0  0
 11 13  1  0  0  0  0
 13 14  1  6  0  0  0
 13 15  1  0  0  0  0
 15 16  1  1  0  0  0
 15 17  1  0  0  0  0
 17 18  1  6  0  0  0
 19 20  1  0  0  0  0
 21 22  1  0  0  0  0
 21 29  1  0  0  0  0
 21 31  1  6  0  0  0
 22 23  1  0  0  0  0
 23 24  1  6  0  0  0
 23 25  1  0  0  0  0
 25 26  1  1  0  0  0
 25 27  1  0  0  0  0
 27 28  1  6  0  0  0
 27 29  1  0  0  0  0
 29 30  1  6  0  0  0
 31 32  1  0  0  0  0
 33 34  1  0  0  0  0
 33 38  1  0  0  0  0
 33 39  1  1  0  0  0
 34 35  1  0  0  0  0
 35 36  1  0  0  0  0
 35 40  1  6  0  0  0
 36 24  1  6  0  0  0
 36 37  1  0  0  0  0
 37 38  1  0  0  0  0
 37 41  1  1  0  0  0
 38 42  1  1  0  0  0
M  CHG  6  14   1  20   1  26   1  32   1  39   1  40   1
M  END
>  <CHROM.1>
53.66822528,172.85126138,-178.32129103,87.75906090,-58.50670851,50.04327607
47.58437987,66.67614591,-172.88848581,173.78248025,168.22251268,-60.51753916
21.75535068,-146.39069373,-167.09618264,-172.12136953,-172.16669616,61.71040165
-173.03547712,76.55195452,145.75612945,-54.42153223,8.23588718,-5.28522940
-3.96396738,0.71341467,0.94304397,0.94180564

>  <Name>


>  <RI>
0

>  <Rbt.Current_Directory>
/home/itssahil/PROJECTS/Mol_Feturizer/New_Systems/rnas/1qd3

>  <Rbt.Executable>
rbdock ($Id: //depot/dev/client3/rdock/2013.1/src/exe/rbdock.cxx#4 $)

>  <Rbt.Library>
libRbt.so (2013.1, Build901 2013/11/27)

>  <Rbt.Parameter_File>
/export/apps/rDock/src/rDock_2013.1_src/data/scripts/dock_solv.prm

>  <Rbt.Receptor>
prm/pocket_docking_4.prm

>  <SCORE>
-53.3942

>  <SCORE.INTER>
-34.7886

>  <SCORE.INTER.CONST>
1

>  <SCORE.INTER.POLAR>
-6.93485

>  <SCORE.INTER.ROT>
9

>  <SCORE.INTER.SOLV>
34.349

>  <SCORE.INTER.VDW>
-21.1259

>  <SCORE.INTER.norm>
-0.8283

>  <SCORE.INTRA>
-20.0504

>  <SCORE.INTRA.DIHEDRAL>
-18.5959

>  <SCORE.INTRA.DIHEDRAL.0>
40.6252

>  <SCORE.INTRA.POLAR>
0.639523

>  <SCORE.INTRA.POLAR.0>
-1.20161

>  <SCORE.INTRA.REPUL>
-0.115675

>  <SCORE.INTRA.REPUL.0>
0.115675

>  <SCORE.INTRA.SOLV>
-7.79763

>  <SCORE.INTRA.SOLV.lig_0>
-154.895

>  <SCORE.INTRA.VDW>
-8.44969

>  <SCORE.INTRA.VDW.0>
2.2925

>  <SCORE.INTRA.norm>
-0.477391

>  <SCORE.RESTR>
1.44483

>  <SCORE.RESTR.CAVITY>
1.44483

>  <SCORE.RESTR.norm>
0.0344006

>  <SCORE.SYSTEM>
0

>  <SCORE.SYSTEM.CONST>
0

>  <SCORE.SYSTEM.DIHEDRAL>
0

>  <SCORE.SYSTEM.SOLV>
0

>  <SCORE.SYSTEM.norm>
0

>  <SCORE.heavy>
42

>  <SCORE.norm>
-1.27129

>  <RMSD>
9.759

$$$$

 OpenBabel11021811413D
libRbt.so/2013.1/901 2013/11/27
 42 45  0  0  0  0  0  0  0  0999 V2000
   13.0597   -9.2023    0.9941 O   0  0  0  0  0  0  0  0  0  0  0  0
   11.6401   -9.1668    1.0261 C   0  0  0  0  0  0  0  0  0  0  0  0
   11.0893   -9.1902   -0.4002 C   0  0  1  0  0  0  0  0  0  0  0  0
    9.6627   -9.4142   -0.4086 O   0  0  0  0  0  0  0  0  0  0  0  0
   11.3075   -7.8880   -1.1527 C   0  0  2  0  0  0  0  0  0  0  0  0
   10.2696   -8.0271   -2.2538 C   0  0  1  0  0  0  0  0  0  0  0  0
   10.7458   -8.9215   -3.2533 O   0  0  0  0  0  0  0  0  0  0  0  0
    9.0811   -8.6632   -1.5044 C   0  0  2  0  0  0  0  0  0  0  0  0
   15.7183   -6.1563   -0.5513 C   0  0  2  0  0  0  0  0  0  0  0  0
   14.8407   -6.9500   -1.3646 O   0  0  0  0  0  0  0  0  0  0  0  0
   13.4910   -6.9416   -0.8655 C   0  0  2  0  0  0  0  0  0  0  0  0
   12.6493   -7.7935   -1.6700 O   0  0  0  0  0  0  0  0  0  0  0  0
   12.9310   -5.5090   -0.8387 C   0  0  2  0  0  0  0  0  0  0  0  0
   12.5647   -5.0744   -2.1741 N   0  3  0  0  0  0  0  0  0  0  0  0
   13.8889   -4.5027   -0.1902 C   0  0  1  0  0  0  0  0  0  0  0  0
   13.8303   -4.6388    1.2208 O   0  0  0  0  0  0  0  0  0  0  0  0
   15.3286   -4.6878   -0.6621 C   0  0  2  0  0  0  0  0  0  0  0  0
   15.4587   -4.2467   -2.0085 O   0  0  0  0  0  0  0  0  0  0  0  0
   17.1719   -6.3654   -0.9663 C   0  0  0  0  0  0  0  0  0  0  0  0
   17.5524   -7.7550   -0.7959 N   0  3  0  0  0  0  0  0  0  0  0  0
    6.0327   -7.2377   -5.6920 C   0  0  1  0  0  0  0  0  0  0  0  0
    7.0936   -7.5741   -4.7736 O   0  0  0  0  0  0  0  0  0  0  0  0
    6.8925   -7.0388   -3.4453 C   0  0  2  0  0  0  0  0  0  0  0  0
    5.7414   -7.6272   -2.7908 O   0  0  0  0  0  0  0  0  0  0  0  0
    6.7815   -5.5099   -3.4899 C   0  0  2  0  0  0  0  0  0  0  0  0
    6.3720   -5.0049   -2.1926 N   0  3  0  0  0  0  0  0  0  0  0  0
    5.7841   -5.0463   -4.5457 C   0  0  1  0  0  0  0  0  0  0  0  0
    5.8866   -3.6410   -4.7157 O   0  0  0  0  0  0  0  0  0  0  0  0
    5.9714   -5.7320   -5.8903 C   0  0  2  0  0  0  0  0  0  0  0  0
    4.9042   -5.4001   -6.7665 O   0  0  0  0  0  0  0  0  0  0  0  0
    6.2992   -7.8736   -7.0534 C   0  0  0  0  0  0  0  0  0  0  0  0
    5.0897   -7.8974   -7.8553 N   0  3  0  0  0  0  0  0  0  0  0  0
    5.6365   -9.6161    0.9686 C   0  0  2  0  0  0  0  0  0  0  0  0
    5.0883  -10.3488   -0.2400 C   0  0  0  0  0  0  0  0  0  0  0  0
    4.8316   -9.3788   -1.3784 C   0  0  1  0  0  0  0  0  0  0  0  0
    6.1027   -8.6678   -1.8452 C   0  0  2  0  0  0  0  0  0  0  0  0
    6.8632   -8.0513   -0.6483 C   0  0  1  0  0  0  0  0  0  0  0  0
    6.9387   -8.9062    0.6236 C   0  0  1  0  0  0  0  0  0  0  0  0
    5.8673  -10.5633    2.0426 N   0  3  0  0  0  0  0  0  0  0  0  0
    4.2153  -10.0952   -2.4781 N   0  3  0  0  0  0  0  0  0  0  0  0
    8.1901   -7.6130   -1.0306 O   0  0  0  0  0  0  0  0  0  0  0  0
    7.3517   -8.1002    1.7222 O   0  0  0  0  0  0  0  0  0  0  0  0
  1  2  1  0  0  0  0
  3  2  1  1  0  0  0
  3  4  1  0  0  0  0
  3  5  1  0  0  0  0
  4  8  1  0  0  0  0
  5  6  1  0  0  0  0
  5 12  1  6  0  0  0
  6  7  1  6  0  0  0
  6  8  1  0  0  0  0
  8 41  1  1  0  0  0
  9 10  1  0  0  0  0
  9 17  1  0  0  0  0
  9 19  1  6  0  0  0
 10 11  1  0  0  0  0
 11 12  1  6  0  0  0
 11 13  1  0  0  0  0
 13 14  1  6  0  0  0
 13 15  1  0  0  0  0
 15 16  1  1  0  0  0
 15 17  1  0  0  0  0
 17 18  1  6  0  0  0
 19 20  1  0  0  0  0
 21 22  1  0  0  0  0
 21 29  1  0  0  0  0
 21 31  1  6  0  0  0
 22 23  1  0  0  0  0
 23 24  1  6  0  0  0
 23 25  1  0  0  0  0
 25 26  1  1  0  0  0
 25 27  1  0  0  0  0
 27 28  1  6  0  0  0
 27 29  1  0  0  0  0
 29 30  1  6  0  0  0
 31 32  1  0  0  0  0
 33 34  1  0  0  0  0
 33 38  1  0  0  0  0
 33 39  1  1  0  0  0
 34 35  1  0  0  0  0
 35 36  1  0  0  0  0
 35 40  1  6  0  0  0
 36 24  1  6  0  0  0
 36 37  1  0  0  0  0
 37 38  1  0  0  0  0
 37 41  1  6  0  0  0
 38 42  1  1  0  0  0
M  CHG  6  14   1  20   1  26   1  32   1  39   1  40   1
M  END
>  <CHROM.1>
-64.43793042,168.92575031,-101.63319207,63.00577675,-79.80991851,-60.95767368
176.03150528,-26.81633289,-178.67972649,56.46747681,-65.88942917,162.78092109
100.31108617,-170.92775408,-67.78855144,-174.25196671,-174.96528444,-57.30004974
-59.56651400,-44.27217066,-61.94603086,-178.18095709,9.44429394,-7.32883977
-1.90384383,0.19888517,0.28148676,2.16250966

>  <Name>


>  <RI>
0

>  <Rbt.Current_Directory>
/home/itssahil/PROJECTS/Mol_Feturizer/New_Systems/rnas/1qd3

>  <Rbt.Executable>
rbdock ($Id: //depot/dev/client3/rdock/2013.1/src/exe/rbdock.cxx#4 $)

>  <Rbt.Library>
libRbt.so (2013.1, Build901 2013/11/27)

>  <Rbt.Parameter_File>
/export/apps/rDock/src/rDock_2013.1_src/data/scripts/dock_solv.prm

>  <Rbt.Receptor>
prm/pocket_docking_8.prm

>  <SCORE>
-44.03

>  <SCORE.INTER>
-22.9257

>  <SCORE.INTER.CONST>
1

>  <SCORE.INTER.POLAR>
-4.9122

>  <SCORE.INTER.ROT>
9

>  <SCORE.INTER.SOLV>
15.4504

>  <SCORE.INTER.VDW>
-13.66

>  <SCORE.INTER.norm>
-0.545851

>  <SCORE.INTRA>
-21.1043

>  <SCORE.INTRA.DIHEDRAL>
-21.569

>  <SCORE.INTRA.DIHEDRAL.0>
40.6252

>  <SCORE.INTRA.POLAR>
0.693674

>  <SCORE.INTRA.POLAR.0>
-1.20161

>  <SCORE.INTRA.REPUL>
-0.115675

>  <SCORE.INTRA.REPUL.0>
0.115675

>  <SCORE.INTRA.SOLV>
-9.93757

>  <SCORE.INTRA.SOLV.lig_0>
-154.895

>  <SCORE.INTRA.VDW>
-7.13109

>  <SCORE.INTRA.VDW.0>
2.2925

>  <SCORE.INTRA.norm>
-0.502482

>  <SCORE.RESTR>
0

>  <SCORE.RESTR.CAVITY>
0

>  <SCORE.RESTR.norm>
0

>  <SCORE.SYSTEM>
0

>  <SCORE.SYSTEM.CONST>
0

>  <SCORE.SYSTEM.DIHEDRAL>
0

>  <SCORE.SYSTEM.SOLV>
0

>  <SCORE.SYSTEM.norm>
0

>  <SCORE.heavy>
42

>  <SCORE.norm>
-1.04833

>  <RMSD>
9.793

$$$$

 OpenBabel11021811413D
libRbt.so/2013.1/901 2013/11/27
 42 45  0  0  0  0  0  0  0  0999 V2000
   10.9573    0.8887    0.5425 O   0  0  0  0  0  0  0  0  0  0  0  0
   10.2307    1.6520   -0.4100 C   0  0  0  0  0  0  0  0  0  0  0  0
    9.0331    0.8460   -0.9145 C   0  0  1  0  0  0  0  0  0  0  0  0
    9.4499   -0.2129   -1.8037 O   0  0  0  0  0  0  0  0  0  0  0  0
    8.2509    0.1674    0.1978 C   0  0  2  0  0  0  0  0  0  0  0  0
    7.5089   -0.8960   -0.5943 C   0  0  1  0  0  0  0  0  0  0  0  0
    6.4121   -0.3051   -1.2827 O   0  0  0  0  0  0  0  0  0  0  0  0
    8.5777   -1.3546   -1.6072 C   0  0  2  0  0  0  0  0  0  0  0  0
    7.8087    3.8041    3.2566 C   0  0  2  0  0  0  0  0  0  0  0  0
    7.1502    2.9327    2.3246 O   0  0  0  0  0  0  0  0  0  0  0  0
    8.0324    1.9087    1.8307 C   0  0  2  0  0  0  0  0  0  0  0  0
    7.3575    1.0878    0.8548 O   0  0  0  0  0  0  0  0  0  0  0  0
    8.5580    1.0408    2.9869 C   0  0  2  0  0  0  0  0  0  0  0  0
    7.5389    0.1104    3.4368 N   0  3  0  0  0  0  0  0  0  0  0  0
    9.0879    1.8675    4.1644 C   0  0  1  0  0  0  0  0  0  0  0  0
   10.3770    2.3676    3.8463 O   0  0  0  0  0  0  0  0  0  0  0  0
    8.1626    3.0284    4.5189 C   0  0  2  0  0  0  0  0  0  0  0  0
    6.9805    2.5353    5.1385 O   0  0  0  0  0  0  0  0  0  0  0  0
    6.9261    5.0046    3.5862 C   0  0  0  0  0  0  0  0  0  0  0  0
    5.7008    4.5709    4.2308 N   0  3  0  0  0  0  0  0  0  0  0  0
    8.5004   -7.2245   -4.5513 C   0  0  1  0  0  0  0  0  0  0  0  0
    8.3758   -5.8981   -5.1055 O   0  0  0  0  0  0  0  0  0  0  0  0
    7.8918   -4.9227   -4.1538 C   0  0  2  0  0  0  0  0  0  0  0  0
    8.8339   -4.7018   -3.0753 O   0  0  0  0  0  0  0  0  0  0  0  0
    6.5170   -5.3326   -3.6117 C   0  0  2  0  0  0  0  0  0  0  0  0
    6.1398   -4.4654   -2.5111 N   0  3  0  0  0  0  0  0  0  0  0  0
    6.5064   -6.7808   -3.1351 C   0  0  1  0  0  0  0  0  0  0  0  0
    5.1730   -7.1858   -2.8666 O   0  0  0  0  0  0  0  0  0  0  0  0
    7.1359   -7.7445   -4.1292 C   0  0  2  0  0  0  0  0  0  0  0  0
    7.2649   -9.0352   -3.5514 O   0  0  0  0  0  0  0  0  0  0  0  0
    9.0550   -8.1803   -5.6036 C   0  0  0  0  0  0  0  0  0  0  0  0
   10.4886   -8.0074   -5.7506 N   0  3  0  0  0  0  0  0  0  0  0  0
   12.5038   -2.5503   -3.1257 C   0  0  2  0  0  0  0  0  0  0  0  0
   11.7937   -2.7777   -4.4456 C   0  0  0  0  0  0  0  0  0  0  0  0
   10.7541   -3.8745   -4.3078 C   0  0  1  0  0  0  0  0  0  0  0  0
    9.6678   -3.5325   -3.2871 C   0  0  2  0  0  0  0  0  0  0  0  0
   10.2910   -3.0798   -1.9464 C   0  0  1  0  0  0  0  0  0  0  0  0
   11.5113   -2.1544   -2.0409 C   0  0  1  0  0  0  0  0  0  0  0  0
   13.4945   -1.5030   -3.2856 N   0  3  0  0  0  0  0  0  0  0  0  0
   10.1679   -4.1343   -5.6083 N   0  3  0  0  0  0  0  0  0  0  0  0
    9.2963   -2.5004   -1.0667 O   0  0  0  0  0  0  0  0  0  0  0  0
   12.1731   -2.0995   -0.7814 O   0  0  0  0  0  0  0  0  0  0  0  0
  1  2  1  0  0  0  0
  3  2  1  1  0  0  0
  3  4  1  0  0  0  0
  3  5  1  0  0  0  0
  4  8  1  0  0  0  0
  5  6  1  0  0  0  0
  5 12  1  6  0  0  0
  6  7  1  6  0  0  0
  6  8  1  0  0  0  0
  8 41  1  1  0  0  0
  9 10  1  0  0  0  0
  9 17  1  0  0  0  0
  9 19  1  1  0  0  0
 10 11  1  0  0  0  0
 11 12  1  6  0  0  0
 11 13  1  0  0  0  0
 13 14  1  1  0  0  0
 13 15  1  0  0  0  0
 15 16  1  6  0  0  0
 15 17  1  0  0  0  0
 17 18  1  6  0  0  0
 19 20  1  0  0  0  0
 21 22  1  0  0  0  0
 21 29  1  0  0  0  0
 21 31  1  6  0  0  0
 22 23  1  0  0  0  0
 23 24  1  1  0  0  0
 23 25  1  0  0  0  0
 25 26  1  1  0  0  0
 25 27  1  0  0  0  0
 27 28  1  6  0  0  0
 27 29  1  0  0  0  0
 29 30  1  1  0  0  0
 31 32  1  0  0  0  0
 33 34  1  0  0  0  0
 33 38  1  0  0  0  0
 33 39  1  6  0  0  0
 34 35  1  0  0  0  0
 35 36  1  0  0  0  0
 35 40  1  6  0  0  0
 36 24  1  1  0  0  0
 36 37  1  0  0  0  0
 37 38  1  0  0  0  0
 37 41  1  1  0  0  0
 38 42  1  1  0  0  0
M  CHG  6  14   1  20   1  26   1  32   1  39   1  40   1
M  END
>  <CHROM.1>
-177.44798156,-73.30648653,-80.62161588,-179.89361514,-66.08476730,62.60958444
171.98715968,85.96761047,-176.10805601,-169.92094295,165.62277511,77.88309854
97.36718984,-77.06627251,-172.16739116,53.75048546,-170.48472212,75.17997064
-57.30293600,165.83353219,-57.85389047,-64.54655162,8.74074094,-1.83099459
-1.01567071,-1.64086792,-0.39378645,-2.47358709

>  <Name>


>  <RI>
0

>  <Rbt.Current_Directory>
/home/itssahil/PROJECTS/Mol_Feturizer/New_Systems/rnas/1qd3

>  <Rbt.Executable>
rbdock ($Id: //depot/dev/client3/rdock/2013.1/src/exe/rbdock.cxx#4 $)

>  <Rbt.Library>
libRbt.so (2013.1, Build901 2013/11/27)

>  <Rbt.Parameter_File>
/export/apps/rDock/src/rDock_2013.1_src/data/scripts/dock_solv.prm

>  <Rbt.Receptor>
prm/pocket_docking_3.prm

>  <SCORE>
-46.8388

>  <SCORE.INTER>
-25.3891

>  <SCORE.INTER.CONST>
1

>  <SCORE.INTER.POLAR>
-3.83405

>  <SCORE.INTER.ROT>
9

>  <SCORE.INTER.SOLV>
38.2881

>  <SCORE.INTER.VDW>
-26.5086

>  <SCORE.INTER.norm>
-0.604501

>  <SCORE.INTRA>
-22.0399

>  <SCORE.INTRA.DIHEDRAL>
-24.8503

>  <SCORE.INTRA.DIHEDRAL.0>
40.6252

>  <SCORE.INTRA.POLAR>
-0.142252

>  <SCORE.INTRA.POLAR.0>
-1.20161

>  <SCORE.INTRA.REPUL>
0.047751

>  <SCORE.INTRA.REPUL.0>
0.115675

>  <SCORE.INTRA.SOLV>
-4.20455

>  <SCORE.INTRA.SOLV.lig_0>
-154.895

>  <SCORE.INTRA.VDW>
-7.26763

>  <SCORE.INTRA.VDW.0>
2.2925

>  <SCORE.INTRA.norm>
-0.52476

>  <SCORE.RESTR>
0.590145

>  <SCORE.RESTR.CAVITY>
0.590145

>  <SCORE.RESTR.norm>
0.0140511

>  <SCORE.SYSTEM>
0

>  <SCORE.SYSTEM.CONST>
0

>  <SCORE.SYSTEM.DIHEDRAL>
0

>  <SCORE.SYSTEM.SOLV>
0

>  <SCORE.SYSTEM.norm>
0

>  <SCORE.heavy>
42

>  <SCORE.norm>
-1.11521

>  <RMSD>
9.810

$$$$

 OpenBabel11021811413D
libRbt.so/2013.1/901 2013/11/27
 42 45  0  0  0  0  0  0  0  0999 V2000
   11.4135   -7.6109   -0.0802 O   0  0  0  0  0  0  0  0  0  0  0  0
   11.0092   -6.4445   -0.7828 C   0  0  0  0  0  0  0  0  0  0  0  0
   10.8466   -6.7657   -2.2690 C   0  0  1  0  0  0  0  0  0  0  0  0
    9.7200   -7.6401   -2.4970 O   0  0  0  0  0  0  0  0  0  0  0  0
   10.5965   -5.5372   -3.1280 C   0  0  2  0  0  0  0  0  0  0  0  0
    9.9978   -6.1824   -4.3666 C   0  0  1  0  0  0  0  0  0  0  0  0
   11.0307   -6.7708   -5.1493 O   0  0  0  0  0  0  0  0  0  0  0  0
    9.1056   -7.2855   -3.7618 C   0  0  2  0  0  0  0  0  0  0  0  0
   10.6733   -1.3632   -3.3396 C   0  0  2  0  0  0  0  0  0  0  0  0
   10.9743   -2.6869   -2.8720 O   0  0  0  0  0  0  0  0  0  0  0  0
   11.5849   -3.4928   -3.8960 C   0  0  2  0  0  0  0  0  0  0  0  0
   11.8205   -4.8315   -3.4121 O   0  0  0  0  0  0  0  0  0  0  0  0
   12.9022   -2.8578   -4.3733 C   0  0  2  0  0  0  0  0  0  0  0  0
   13.9604   -3.0777   -3.4046 N   0  3  0  0  0  0  0  0  0  0  0  0
   12.7671   -1.3640   -4.6913 C   0  0  1  0  0  0  0  0  0  0  0  0
   12.1392   -1.2063   -5.9538 O   0  0  0  0  0  0  0  0  0  0  0  0
   11.9693   -0.6158   -3.6268 C   0  0  2  0  0  0  0  0  0  0  0  0
   12.7400   -0.4966   -2.4367 O   0  0  0  0  0  0  0  0  0  0  0  0
    9.8275   -0.6106   -2.3163 C   0  0  0  0  0  0  0  0  0  0  0  0
    8.9586    0.3428   -2.9802 N   0  3  0  0  0  0  0  0  0  0  0  0
    5.4882   -6.6376   -6.0372 C   0  0  1  0  0  0  0  0  0  0  0  0
    4.9753   -7.0728   -4.7606 O   0  0  0  0  0  0  0  0  0  0  0  0
    4.8971   -8.5114   -4.6351 C   0  0  2  0  0  0  0  0  0  0  0  0
    6.2073   -9.1302   -4.6503 O   0  0  0  0  0  0  0  0  0  0  0  0
    3.9946   -9.1008   -5.7258 C   0  0  2  0  0  0  0  0  0  0  0  0
    4.0919  -10.5487   -5.7205 N   0  3  0  0  0  0  0  0  0  0  0  0
    4.3657   -8.5789   -7.1094 C   0  0  1  0  0  0  0  0  0  0  0  0
    3.3695   -8.9581   -8.0464 O   0  0  0  0  0  0  0  0  0  0  0  0
    4.5497   -7.0697   -7.1520 C   0  0  2  0  0  0  0  0  0  0  0  0
    5.0739   -6.6717   -8.4104 O   0  0  0  0  0  0  0  0  0  0  0  0
    5.5785   -5.1147   -6.0720 C   0  0  0  0  0  0  0  0  0  0  0  0
    6.7631   -4.6537   -5.3712 N   0  3  0  0  0  0  0  0  0  0  0  0
    6.4091   -8.4763   -0.4513 C   0  0  2  0  0  0  0  0  0  0  0  0
    6.6556   -9.8809   -0.9657 C   0  0  0  0  0  0  0  0  0  0  0  0
    6.1577  -10.0194   -2.3925 C   0  0  1  0  0  0  0  0  0  0  0  0
    6.8711   -9.0743   -3.3604 C   0  0  2  0  0  0  0  0  0  0  0  0
    6.8616   -7.6237   -2.8254 C   0  0  1  0  0  0  0  0  0  0  0  0
    7.1208   -7.4504   -1.3230 C   0  0  1  0  0  0  0  0  0  0  0  0
    6.8880   -8.3722    0.9139 N   0  3  0  0  0  0  0  0  0  0  0  0
    6.3166  -11.3972   -2.8154 N   0  3  0  0  0  0  0  0  0  0  0  0
    7.7544   -6.7715   -3.5840 O   0  0  0  0  0  0  0  0  0  0  0  0
    6.7499   -6.1367   -0.9183 O   0  0  0  0  0  0  0  0  0  0  0  0
  1  2  1  0  0  0  0
  3  2  1  1  0  0  0
  3  4  1  0  0  0  0
  3  5  1  0  0  0  0
  4  8  1  0  0  0  0
  5  6  1  0  0  0  0
  5 12  1  6  0  0  0
  6  7  1  6  0  0  0
  6  8  1  0  0  0  0
  8 41  1  1  0  0  0
  9 10  1  0  0  0  0
  9 17  1  0  0  0  0
  9 19  1  1  0  0  0
 10 11  1  0  0  0  0
 11 12  1  1  0  0  0
 11 13  1  0  0  0  0
 13 14  1  1  0  0  0
 13 15  1  0  0  0  0
 15 16  1  6  0  0  0
 15 17  1  0  0  0  0
 17 18  1  1  0  0  0
 19 20  1  0  0  0  0
 21 22  1  0  0  0  0
 21 29  1  0  0  0  0
 21 31  1  1  0  0  0
 22 23  1  0  0  0  0
 23 24  1  6  0  0  0
 23 25  1  0  0  0  0
 25 26  1  6  0  0  0
 25 27  1  0  0  0  0
 27 28  1  6  0  0  0
 27 29  1  0  0  0  0
 29 30  1  6  0  0  0
 31 32  1  0  0  0  0
 33 34  1  0  0  0  0
 33 38  1  0  0  0  0
 33 39  1  1  0  0  0
 34 35  1  0  0  0  0
 35 36  1  0  0  0  0
 35 40  1  6  0  0  0
 36 24  1  6  0  0  0
 36 37  1  0  0  0  0
 37 38  1  0  0  0  0
 37 41  1  6  0  0  0
 38 42  1  1  0  0  0
M  CHG  6  14   1  20   1  26   1  32   1  39   1  40   1
M  END
>  <CHROM.1>
-60.59466424,68.58224638,-163.96547407,-54.64356176,-53.48550853,-149.73482139
65.41717152,-173.97087933,177.65711508,-171.83975905,-107.68935306,79.34337332
81.16265405,70.52840693,-170.47362091,-177.15477435,-172.20651551,-139.15562458
-71.31429135,-56.83053490,-50.38529421,-176.03057028,8.37619334,-6.02538902
-3.73456618,-0.40793864,0.71469955,2.35058301

>  <Name>


>  <RI>
0

>  <Rbt.Current_Directory>
/home/itssahil/PROJECTS/Mol_Feturizer/New_Systems/rnas/1qd3

>  <Rbt.Executable>
rbdock ($Id: //depot/dev/client3/rdock/2013.1/src/exe/rbdock.cxx#4 $)

>  <Rbt.Library>
libRbt.so (2013.1, Build901 2013/11/27)

>  <Rbt.Parameter_File>
/export/apps/rDock/src/rDock_2013.1_src/data/scripts/dock_solv.prm

>  <Rbt.Receptor>
prm/pocket_docking_6.prm

>  <SCORE>
-42.8541

>  <SCORE.INTER>
-16.245

>  <SCORE.INTER.CONST>
1

>  <SCORE.INTER.POLAR>
-3.67272

>  <SCORE.INTER.ROT>
9

>  <SCORE.INTER.SOLV>
26.8943

>  <SCORE.INTER.VDW>
-17.1523

>  <SCORE.INTER.norm>
-0.386785

>  <SCORE.INTRA>
-26.6091

>  <SCORE.INTRA.DIHEDRAL>
-24.2413

>  <SCORE.INTRA.DIHEDRAL.0>
40.6252

>  <SCORE.INTRA.POLAR>
-0.0287857

>  <SCORE.INTRA.POLAR.0>
-1.20161

>  <SCORE.INTRA.REPUL>
-0.115675

>  <SCORE.INTRA.REPUL.0>
0.115675

>  <SCORE.INTRA.SOLV>
-11.4484

>  <SCORE.INTRA.SOLV.lig_0>
-154.895

>  <SCORE.INTRA.VDW>
-8.08803

>  <SCORE.INTRA.VDW.0>
2.2925

>  <SCORE.INTRA.norm>
-0.63355

>  <SCORE.RESTR>
0

>  <SCORE.RESTR.CAVITY>
0

>  <SCORE.RESTR.norm>
0

>  <SCORE.SYSTEM>
0

>  <SCORE.SYSTEM.CONST>
0

>  <SCORE.SYSTEM.DIHEDRAL>
0

>  <SCORE.SYSTEM.SOLV>
0

>  <SCORE.SYSTEM.norm>
0

>  <SCORE.heavy>
42

>  <SCORE.norm>
-1.02034

>  <RMSD>
9.832

$$$$

 OpenBabel11021811413D
libRbt.so/2013.1/901 2013/11/27
 42 45  0  0  0  0  0  0  0  0999 V2000
   14.5716   -3.2963   -2.6317 O   0  0  0  0  0  0  0  0  0  0  0  0
   13.1626   -3.2599   -2.4557 C   0  0  0  0  0  0  0  0  0  0  0  0
   12.4680   -3.3910   -3.8117 C   0  0  1  0  0  0  0  0  0  0  0  0
   12.6804   -4.6989   -4.3861 O   0  0  0  0  0  0  0  0  0  0  0  0
   10.9607   -3.2124   -3.7373 C   0  0  2  0  0  0  0  0  0  0  0  0
   10.5389   -3.8719   -5.0396 C   0  0  1  0  0  0  0  0  0  0  0  0
   10.7943   -2.9921   -6.1289 O   0  0  0  0  0  0  0  0  0  0  0  0
   11.4870   -5.0861   -5.1133 C   0  0  2  0  0  0  0  0  0  0  0  0
   11.3076    0.1011   -0.6565 C   0  0  2  0  0  0  0  0  0  0  0  0
   11.4120   -0.3487   -2.0160 O   0  0  0  0  0  0  0  0  0  0  0  0
   10.4250   -1.3480   -2.3289 C   0  0  2  0  0  0  0  0  0  0  0  0
   10.5945   -1.8196   -3.6819 O   0  0  0  0  0  0  0  0  0  0  0  0
    9.0053   -0.7894   -2.1318 C   0  0  2  0  0  0  0  0  0  0  0  0
    8.6390    0.0850   -3.2308 N   0  3  0  0  0  0  0  0  0  0  0  0
    8.8248   -0.0700   -0.7899 C   0  0  1  0  0  0  0  0  0  0  0  0
    8.6777   -1.0310    0.2434 O   0  0  0  0  0  0  0  0  0  0  0  0
    9.9965    0.8531   -0.4664 C   0  0  2  0  0  0  0  0  0  0  0  0
    9.9610    1.9972   -1.3115 O   0  0  0  0  0  0  0  0  0  0  0  0
   12.4978    0.9827   -0.2888 C   0  0  0  0  0  0  0  0  0  0  0  0
   12.5024    2.1893   -1.0943 N   0  3  0  0  0  0  0  0  0  0  0  0
    6.7026   -7.0578   -5.9003 C   0  0  1  0  0  0  0  0  0  0  0  0
    7.7950   -6.5354   -5.1156 O   0  0  0  0  0  0  0  0  0  0  0  0
    8.3579   -7.5041   -4.2011 C   0  0  2  0  0  0  0  0  0  0  0  0
    8.9972   -8.6019   -4.8980 O   0  0  0  0  0  0  0  0  0  0  0  0
    7.2877   -8.0148   -3.2287 C   0  0  2  0  0  0  0  0  0  0  0  0
    7.8078   -9.1312   -2.4614 N   0  3  0  0  0  0  0  0  0  0  0  0
    6.0239   -8.4546   -3.9595 C   0  0  1  0  0  0  0  0  0  0  0  0
    4.9869   -8.6926   -3.0202 O   0  0  0  0  0  0  0  0  0  0  0  0
    5.5465   -7.4460   -4.9930 C   0  0  2  0  0  0  0  0  0  0  0  0
    4.4863   -7.9929   -5.7634 O   0  0  0  0  0  0  0  0  0  0  0  0
    6.1955   -5.9902   -6.8655 C   0  0  0  0  0  0  0  0  0  0  0  0
    6.1958   -4.6837   -6.2333 N   0  3  0  0  0  0  0  0  0  0  0  0
   12.8401   -8.6186   -6.7232 C   0  0  2  0  0  0  0  0  0  0  0  0
   11.6492   -9.0276   -7.5674 C   0  0  0  0  0  0  0  0  0  0  0  0
   10.4584   -9.3524   -6.6847 C   0  0  1  0  0  0  0  0  0  0  0  0
   10.0025   -8.1573   -5.8463 C   0  0  2  0  0  0  0  0  0  0  0  0
   11.1943   -7.5234   -5.0923 C   0  0  1  0  0  0  0  0  0  0  0  0
   12.5069   -7.3973   -5.8769 C   0  0  1  0  0  0  0  0  0  0  0  0
   13.9647   -8.3195   -7.5891 N   0  3  0  0  0  0  0  0  0  0  0  0
    9.3732   -9.8352   -7.5163 N   0  3  0  0  0  0  0  0  0  0  0  0
   10.8375   -6.2439   -4.5140 O   0  0  0  0  0  0  0  0  0  0  0  0
   13.5798   -7.1268   -4.9810 O   0  0  0  0  0  0  0  0  0  0  0  0
  1  2  1  0  0  0  0
  3  2  1  1  0  0  0
  3  4  1  0  0  0  0
  3  5  1  0  0  0  0
  4  8  1  0  0  0  0
  5  6  1  0  0  0  0
  5 12  1  6  0  0  0
  6  7  1  6  0  0  0
  6  8  1  0  0  0  0
  8 41  1  1  0  0  0
  9 10  1  0  0  0  0
  9 17  1  0  0  0  0
  9 19  1  6  0  0  0
 10 11  1  0  0  0  0
 11 12  1  6  0  0  0
 11 13  1  0  0  0  0
 13 14  1  6  0  0  0
 13 15  1  0  0  0  0
 15 16  1  1  0  0  0
 15 17  1  0  0  0  0
 17 18  1  6  0  0  0
 19 20  1  0  0  0  0
 21 22  1  0  0  0  0
 21 29  1  0  0  0  0
 21 31  1  6  0  0  0
 22 23  1  0  0  0  0
 23 24  1  6  0  0  0
 23 25  1  0  0  0  0
 25 26  1  6  0  0  0
 25 27  1  0  0  0  0
 27 28  1  1  0  0  0
 27 29  1  0  0  0  0
 29 30  1  6  0  0  0
 31 32  1  0  0  0  0
 33 34  1  0  0  0  0
 33 38  1  0  0  0  0
 33 39  1  6  0  0  0
 34 35  1  0  0  0  0
 35 36  1  0  0  0  0
 35 40  1  6  0  0  0
 36 24  1  1  0  0  0
 36 37  1  0  0  0  0
 37 38  1  0  0  0  0
 37 41  1  6  0  0  0
 38 42  1  1  0  0  0
M  CHG  6  14   1  20   1  26   1  32   1  39   1  40   1
M  END
>  <CHROM.1>
-176.58779979,67.07568156,-94.03744703,56.52113508,-95.04090217,63.70470131
115.41295985,-4.32378100,54.15660726,-175.87506908,150.15157410,-38.86355137
54.67922739,-171.07872693,-39.74309644,-175.47408510,-126.28623945,-151.22152774
-65.92097522,70.54999345,-111.77832479,179.49351461,9.93165505,-4.74861787
-4.04858231,-1.33556258,-0.16163208,-2.64563647

>  <Name>


>  <RI>
0

>  <Rbt.Current_Directory>
/home/itssahil/PROJECTS/Mol_Feturizer/New_Systems/rnas/1qd3

>  <Rbt.Executable>
rbdock ($Id: //depot/dev/client3/rdock/2013.1/src/exe/rbdock.cxx#4 $)

>  <Rbt.Library>
libRbt.so (2013.1, Build901 2013/11/27)

>  <Rbt.Parameter_File>
/export/apps/rDock/src/rDock_2013.1_src/data/scripts/dock_solv.prm

>  <Rbt.Receptor>
prm/pocket_docking_4.prm

>  <SCORE>
-30.7664

>  <SCORE.INTER>
-18.4808

>  <SCORE.INTER.CONST>
1

>  <SCORE.INTER.POLAR>
-4.9399

>  <SCORE.INTER.ROT>
9

>  <SCORE.INTER.SOLV>
29.6565

>  <SCORE.INTER.VDW>
-15.3397

>  <SCORE.INTER.norm>
-0.440019

>  <SCORE.INTRA>
-12.9119

>  <SCORE.INTRA.DIHEDRAL>
-1.41022

>  <SCORE.INTRA.DIHEDRAL.0>
40.6252

>  <SCORE.INTRA.POLAR>
-0.443585

>  <SCORE.INTRA.POLAR.0>
-1.20161

>  <SCORE.INTRA.REPUL>
-0.115675

>  <SCORE.INTRA.REPUL.0>
0.115675

>  <SCORE.INTRA.SOLV>
-12.0914

>  <SCORE.INTRA.SOLV.lig_0>
-154.895

>  <SCORE.INTRA.VDW>
-4.07454

>  <SCORE.INTRA.VDW.0>
2.2925

>  <SCORE.INTRA.norm>
-0.307427

>  <SCORE.RESTR>
0.626309

>  <SCORE.RESTR.CAVITY>
0.626309

>  <SCORE.RESTR.norm>
0.0149121

>  <SCORE.SYSTEM>
0

>  <SCORE.SYSTEM.CONST>
0

>  <SCORE.SYSTEM.DIHEDRAL>
0

>  <SCORE.SYSTEM.SOLV>
0

>  <SCORE.SYSTEM.norm>
0

>  <SCORE.heavy>
42

>  <SCORE.norm>
-0.732534

>  <RMSD>
9.837

$$$$

 OpenBabel11021811413D
libRbt.so/2013.1/901 2013/11/27
 42 45  0  0  0  0  0  0  0  0999 V2000
   10.3905   -3.8002   -1.1803 O   0  0  0  0  0  0  0  0  0  0  0  0
   11.0591   -4.8853   -0.5532 C   0  0  0  0  0  0  0  0  0  0  0  0
   10.8005   -6.1740   -1.3347 C   0  0  1  0  0  0  0  0  0  0  0  0
    9.5549   -6.7877   -0.9377 O   0  0  0  0  0  0  0  0  0  0  0  0
   10.6951   -5.9588   -2.8354 C   0  0  2  0  0  0  0  0  0  0  0  0
    9.9681   -7.2280   -3.2469 C   0  0  1  0  0  0  0  0  0  0  0  0
   10.8797   -8.3210   -3.2619 O   0  0  0  0  0  0  0  0  0  0  0  0
    8.9518   -7.4089   -2.1010 C   0  0  2  0  0  0  0  0  0  0  0  0
   11.5852   -2.3649   -4.4779 C   0  0  2  0  0  0  0  0  0  0  0  0
   11.5412   -3.5303   -3.6404 O   0  0  0  0  0  0  0  0  0  0  0  0
   12.1079   -4.6819   -4.2913 C   0  0  2  0  0  0  0  0  0  0  0  0
   11.9952   -5.8463   -3.4469 O   0  0  0  0  0  0  0  0  0  0  0  0
   13.5801   -4.4285   -4.6582 C   0  0  2  0  0  0  0  0  0  0  0  0
   14.4278   -4.5287   -3.4844 N   0  3  0  0  0  0  0  0  0  0  0  0
   13.7993   -3.0862   -5.3661 C   0  0  1  0  0  0  0  0  0  0  0  0
   13.3962   -3.1974   -6.7218 O   0  0  0  0  0  0  0  0  0  0  0  0
   13.0339   -1.9478   -4.6971 C   0  0  2  0  0  0  0  0  0  0  0  0
   13.6422   -1.6184   -3.4537 O   0  0  0  0  0  0  0  0  0  0  0  0
   10.7798   -1.2265   -3.8581 C   0  0  0  0  0  0  0  0  0  0  0  0
   11.1040   -1.0841   -2.4512 N   0  3  0  0  0  0  0  0  0  0  0  0
    5.4962   -8.9527   -6.4527 C   0  0  1  0  0  0  0  0  0  0  0  0
    6.5465   -8.3619   -5.6590 O   0  0  0  0  0  0  0  0  0  0  0  0
    6.0984   -7.2464   -4.8550 C   0  0  2  0  0  0  0  0  0  0  0  0
    5.1556   -7.6565   -3.8339 O   0  0  0  0  0  0  0  0  0  0  0  0
    5.5078   -6.1437   -5.7420 C   0  0  2  0  0  0  0  0  0  0  0  0
    4.8744   -5.1310   -4.9179 N   0  3  0  0  0  0  0  0  0  0  0  0
    4.4858   -6.6984   -6.7281 C   0  0  1  0  0  0  0  0  0  0  0  0
    4.1447   -5.6988   -7.6760 O   0  0  0  0  0  0  0  0  0  0  0  0
    4.9699   -7.9417   -7.4583 C   0  0  2  0  0  0  0  0  0  0  0  0
    3.9123   -8.5133   -8.2143 O   0  0  0  0  0  0  0  0  0  0  0  0
    6.0403  -10.1443   -7.2354 C   0  0  0  0  0  0  0  0  0  0  0  0
    7.2035   -9.7600   -8.0139 N   0  3  0  0  0  0  0  0  0  0  0  0
    5.7593   -8.5849    0.2738 C   0  0  2  0  0  0  0  0  0  0  0  0
    5.2654   -9.6887   -0.6405 C   0  0  0  0  0  0  0  0  0  0  0  0
    4.7288   -9.1064   -1.9350 C   0  0  1  0  0  0  0  0  0  0  0  0
    5.7920   -8.3385   -2.7216 C   0  0  2  0  0  0  0  0  0  0  0  0
    6.5151   -7.3126   -1.8186 C   0  0  1  0  0  0  0  0  0  0  0  0
    6.8635   -7.7811   -0.3995 C   0  0  1  0  0  0  0  0  0  0  0  0
    6.2609   -9.1666    1.5042 N   0  3  0  0  0  0  0  0  0  0  0  0
    4.1743  -10.1778   -2.7394 N   0  3  0  0  0  0  0  0  0  0  0  0
    7.6935   -6.7725   -2.4656 O   0  0  0  0  0  0  0  0  0  0  0  0
    7.2017   -6.6590    0.4089 O   0  0  0  0  0  0  0  0  0  0  0  0
  1  2  1  0  0  0  0
  3  2  1  1  0  0  0
  3  4  1  0  0  0  0
  3  5  1  0  0  0  0
  4  8  1  0  0  0  0
  5  6  1  0  0  0  0
  5 12  1  6  0  0  0
  6  7  1  1  0  0  0
  6  8  1  0  0  0  0
  8 41  1  6  0  0  0
  9 10  1  0  0  0  0
  9 17  1  0  0  0  0
  9 19  1  1  0  0  0
 10 11  1  0  0  0  0
 11 12  1  1  0  0  0
 11 13  1  0  0  0  0
 13 14  1  1  0  0  0
 13 15  1  0  0  0  0
 15 16  1  6  0  0  0
 15 17  1  0  0  0  0
 17 18  1  1  0  0  0
 19 20  1  0  0  0  0
 21 22  1  0  0  0  0
 21 29  1  0  0  0  0
 21 31  1  6  0  0  0
 22 23  1  0  0  0  0
 23 24  1  1  0  0  0
 23 25  1  0  0  0  0
 25 26  1  1  0  0  0
 25 27  1  0  0  0  0
 27 28  1  6  0  0  0
 27 29  1  0  0  0  0
 29 30  1  1  0  0  0
 31 32  1  0  0  0  0
 33 34  1  0  0  0  0
 33 38  1  0  0  0  0
 33 39  1  1  0  0  0
 34 35  1  0  0  0  0
 35 36  1  0  0  0  0
 35 40  1  6  0  0  0
 36 24  1  6  0  0  0
 36 37  1  0  0  0  0
 37 38  1  0  0  0  0
 37 41  1  6  0  0  0
 38 42  1  1  0  0  0
M  CHG  6  14   1  20   1  26   1  32   1  39   1  40   1
M  END
>  <CHROM.1>
-60.28589057,-84.56316583,-129.48241767,-58.43707861,-88.63706875,46.63077341
44.40659429,70.37189487,-179.17418832,179.30030855,-78.47587316,-53.88522684
75.24651872,-162.38393181,-69.06759957,64.37555592,61.48825327,87.49411264
61.64012009,65.44320689,-97.05645006,175.88392664,8.54011572,-6.26514890
-3.65371122,-0.04335183,0.61660850,1.77843589

>  <Name>


>  <RI>
0

>  <Rbt.Current_Directory>
/home/itssahil/PROJECTS/Mol_Feturizer/New_Systems/rnas/1qd3

>  <Rbt.Executable>
rbdock ($Id: //depot/dev/client3/rdock/2013.1/src/exe/rbdock.cxx#4 $)

>  <Rbt.Library>
libRbt.so (2013.1, Build901 2013/11/27)

>  <Rbt.Parameter_File>
/export/apps/rDock/src/rDock_2013.1_src/data/scripts/dock_solv.prm

>  <Rbt.Receptor>
prm/pocket_docking_5.prm

>  <SCORE>
-51.2901

>  <SCORE.INTER>
-25.5261

>  <SCORE.INTER.CONST>
1

>  <SCORE.INTER.POLAR>
-4.86666

>  <SCORE.INTER.ROT>
9

>  <SCORE.INTER.SOLV>
19.8422

>  <SCORE.INTER.VDW>
-17.0093

>  <SCORE.INTER.norm>
-0.607764

>  <SCORE.INTRA>
-25.7703

>  <SCORE.INTRA.DIHEDRAL>
-15.9869

>  <SCORE.INTRA.DIHEDRAL.0>
40.6252

>  <SCORE.INTRA.POLAR>
-2.06771

>  <SCORE.INTRA.POLAR.0>
-1.20161

>  <SCORE.INTRA.REPUL>
-0.115675

>  <SCORE.INTRA.REPUL.0>
0.115675

>  <SCORE.INTRA.SOLV>
-7.57793

>  <SCORE.INTRA.SOLV.lig_0>
-154.895

>  <SCORE.INTRA.VDW>
-6.37934

>  <SCORE.INTRA.VDW.0>
2.2925

>  <SCORE.INTRA.norm>
-0.613579

>  <SCORE.RESTR>
0.00634234

>  <SCORE.RESTR.CAVITY>
0.00634234

>  <SCORE.RESTR.norm>
0.000151008

>  <SCORE.SYSTEM>
0

>  <SCORE.SYSTEM.CONST>
0

>  <SCORE.SYSTEM.DIHEDRAL>
0

>  <SCORE.SYSTEM.SOLV>
0

>  <SCORE.SYSTEM.norm>
0

>  <SCORE.heavy>
42

>  <SCORE.norm>
-1.22119

>  <RMSD>
9.874

$$$$

 OpenBabel11021811413D
libRbt.so/2013.1/901 2013/11/27
 42 45  0  0  0  0  0  0  0  0999 V2000
   13.2805   -7.5285   -6.2517 O   0  0  0  0  0  0  0  0  0  0  0  0
   12.1272   -7.7498   -5.4525 C   0  0  0  0  0  0  0  0  0  0  0  0
   11.3192   -6.4563   -5.3403 C   0  0  1  0  0  0  0  0  0  0  0  0
   10.4901   -6.2524   -6.5051 O   0  0  0  0  0  0  0  0  0  0  0  0
   10.3730   -6.4372   -4.1513 C   0  0  2  0  0  0  0  0  0  0  0  0
    9.4107   -5.3424   -4.5806 C   0  0  1  0  0  0  0  0  0  0  0  0
   10.0125   -4.0680   -4.3817 O   0  0  0  0  0  0  0  0  0  0  0  0
    9.2539   -5.6182   -6.0899 C   0  0  2  0  0  0  0  0  0  0  0  0
    9.8378   -7.0995    0.3685 C   0  0  2  0  0  0  0  0  0  0  0  0
   10.7127   -7.0121   -0.7665 O   0  0  0  0  0  0  0  0  0  0  0  0
   10.1918   -6.1336   -1.7804 C   0  0  2  0  0  0  0  0  0  0  0  0
   11.0647   -6.1138   -2.9290 O   0  0  0  0  0  0  0  0  0  0  0  0
   10.0085   -4.7111   -1.2242 C   0  0  2  0  0  0  0  0  0  0  0  0
   11.2857   -4.0292   -1.1234 N   0  3  0  0  0  0  0  0  0  0  0  0
    9.2770   -4.6836    0.1230 C   0  0  1  0  0  0  0  0  0  0  0  0
    7.8866   -4.8661   -0.0923 O   0  0  0  0  0  0  0  0  0  0  0  0
    9.7905   -5.7543    1.0819 C   0  0  2  0  0  0  0  0  0  0  0  0
   11.0867   -5.4035    1.5524 O   0  0  0  0  0  0  0  0  0  0  0  0
   10.2973   -8.2022    1.3181 C   0  0  0  0  0  0  0  0  0  0  0  0
   11.5977   -7.8811    1.8758 N   0  3  0  0  0  0  0  0  0  0  0  0
    5.9618   -8.4700   -6.8787 C   0  0  1  0  0  0  0  0  0  0  0  0
    5.3166   -8.2529   -5.6064 O   0  0  0  0  0  0  0  0  0  0  0  0
    5.9302   -8.9852   -4.5207 C   0  0  2  0  0  0  0  0  0  0  0  0
    7.2770   -8.5255   -4.2479 O   0  0  0  0  0  0  0  0  0  0  0  0
    5.9072  -10.4921   -4.8042 C   0  0  2  0  0  0  0  0  0  0  0  0
    6.7068  -11.1942   -3.8175 N   0  3  0  0  0  0  0  0  0  0  0  0
    6.4358  -10.8131   -6.1978 C   0  0  1  0  0  0  0  0  0  0  0  0
    6.1785  -12.1746   -6.5048 O   0  0  0  0  0  0  0  0  0  0  0  0
    5.8404   -9.9300   -7.2836 C   0  0  2  0  0  0  0  0  0  0  0  0
    6.5066  -10.1491   -8.5184 O   0  0  0  0  0  0  0  0  0  0  0  0
    5.2830   -7.6319   -7.9583 C   0  0  0  0  0  0  0  0  0  0  0  0
    6.2473   -6.7803   -8.6303 N   0  3  0  0  0  0  0  0  0  0  0  0
    5.6983   -4.5804   -4.0390 C   0  0  2  0  0  0  0  0  0  0  0  0
    6.2208   -5.2067   -2.7611 C   0  0  0  0  0  0  0  0  0  0  0  0
    6.3614   -6.7089   -2.9243 C   0  0  1  0  0  0  0  0  0  0  0  0
    7.3487   -7.0924   -4.0274 C   0  0  2  0  0  0  0  0  0  0  0  0
    7.0305   -6.3407   -5.3407 C   0  0  1  0  0  0  0  0  0  0  0  0
    6.6396   -4.8634   -5.2020 C   0  0  1  0  0  0  0  0  0  0  0  0
    5.5678   -3.1476   -3.8550 N   0  3  0  0  0  0  0  0  0  0  0  0
    6.7649   -7.2849   -1.6563 N   0  3  0  0  0  0  0  0  0  0  0  0
    8.1011   -6.4817   -6.3066 O   0  0  0  0  0  0  0  0  0  0  0  0
    6.0546   -4.4038   -6.4159 O   0  0  0  0  0  0  0  0  0  0  0  0
  1  2  1  0  0  0  0
  3  2  1  6  0  0  0
  3  4  1  0  0  0  0
  3  5  1  0  0  0  0
  4  8  1  0  0  0  0
  5  6  1  0  0  0  0
  5 12  1  1  0  0  0
  6  7  1  6  0  0  0
  6  8  1  0  0  0  0
  8 41  1  1  0  0  0
  9 10  1  0  0  0  0
  9 17  1  0  0  0  0
  9 19  1  1  0  0  0
 10 11  1  0  0  0  0
 11 12  1  6  0  0  0
 11 13  1  0  0  0  0
 13 14  1  1  0  0  0
 13 15  1  0  0  0  0
 15 16  1  6  0  0  0
 15 17  1  0  0  0  0
 17 18  1  6  0  0  0
 19 20  1  0  0  0  0
 21 22  1  0  0  0  0
 21 29  1  0  0  0  0
 21 31  1  6  0  0  0
 22 23  1  0  0  0  0
 23 24  1  6  0  0  0
 23 25  1  0  0  0  0
 25 26  1  1  0  0  0
 25 27  1  0  0  0  0
 27 28  1  6  0  0  0
 27 29  1  0  0  0  0
 29 30  1  6  0  0  0
 31 32  1  0  0  0  0
 33 34  1  0  0  0  0
 33 38  1  0  0  0  0
 33 39  1  1  0  0  0
 34 35  1  0  0  0  0
 35 36  1  0  0  0  0
 35 40  1  1  0  0  0
 36 24  1  6  0  0  0
 36 37  1  0  0  0  0
 37 38  1  0  0  0  0
 37 41  1  6  0  0  0
 38 42  1  6  0  0  0
M  CHG  6  14   1  20   1  26   1  32   1  39   1  40   1
M  END
>  <CHROM.1>
-62.20055757,81.28956722,-178.08744158,-60.02117595,147.06348391,64.40447906
125.32162189,79.66893166,-61.35499329,-173.50421711,159.42189244,124.35196511
53.33115383,54.13199041,76.11199095,-57.05180341,59.44566715,-141.85840987
-61.02979662,100.81547788,-79.16554246,39.54938566,8.33183751,-6.91788890
-3.84765082,-0.11429661,-1.04767088,-0.53925468

>  <Name>


>  <RI>
0

>  <Rbt.Current_Directory>
/home/itssahil/PROJECTS/Mol_Feturizer/New_Systems/rnas/1qd3

>  <Rbt.Executable>
rbdock ($Id: //depot/dev/client3/rdock/2013.1/src/exe/rbdock.cxx#4 $)

>  <Rbt.Library>
libRbt.so (2013.1, Build901 2013/11/27)

>  <Rbt.Parameter_File>
/export/apps/rDock/src/rDock_2013.1_src/data/scripts/dock_solv.prm

>  <Rbt.Receptor>
prm/pocket_docking_4.prm

>  <SCORE>
-23.6263

>  <SCORE.INTER>
-10.6398

>  <SCORE.INTER.CONST>
1

>  <SCORE.INTER.POLAR>
-3.05167

>  <SCORE.INTER.ROT>
9

>  <SCORE.INTER.SOLV>
19.7792

>  <SCORE.INTER.VDW>
-13.1141

>  <SCORE.INTER.norm>
-0.25333

>  <SCORE.INTRA>
-14.9764

>  <SCORE.INTRA.DIHEDRAL>
-11.4112

>  <SCORE.INTRA.DIHEDRAL.0>
40.6252

>  <SCORE.INTRA.POLAR>
-1.26577

>  <SCORE.INTRA.POLAR.0>
-1.20161

>  <SCORE.INTRA.REPUL>
-0.115675

>  <SCORE.INTRA.REPUL.0>
0.115675

>  <SCORE.INTRA.SOLV>
-1.90317

>  <SCORE.INTRA.SOLV.lig_0>
-154.895

>  <SCORE.INTRA.VDW>
-3.43722

>  <SCORE.INTRA.VDW.0>
2.2925

>  <SCORE.INTRA.norm>
-0.356582

>  <SCORE.RESTR>
1.98999

>  <SCORE.RESTR.CAVITY>
1.98999

>  <SCORE.RESTR.norm>
0.0473808

>  <SCORE.SYSTEM>
0

>  <SCORE.SYSTEM.CONST>
0

>  <SCORE.SYSTEM.DIHEDRAL>
0

>  <SCORE.SYSTEM.SOLV>
0

>  <SCORE.SYSTEM.norm>
0

>  <SCORE.heavy>
42

>  <SCORE.norm>
-0.56253

>  <RMSD>
9.900

$$$$

 OpenBabel11021811413D
libRbt.so/2013.1/901 2013/11/27
 42 45  0  0  0  0  0  0  0  0999 V2000
   12.6437    0.7560   -2.4939 O   0  0  0  0  0  0  0  0  0  0  0  0
   11.6619    0.5743   -1.4835 C   0  0  0  0  0  0  0  0  0  0  0  0
   10.3310    0.1736   -2.1212 C   0  0  1  0  0  0  0  0  0  0  0  0
   10.4737   -1.0123   -2.9330 O   0  0  0  0  0  0  0  0  0  0  0  0
    9.2481   -0.1493   -1.1050 C   0  0  2  0  0  0  0  0  0  0  0  0
    8.2920   -0.9575   -1.9663 C   0  0  1  0  0  0  0  0  0  0  0  0
    7.5367   -0.0827   -2.7971 O   0  0  0  0  0  0  0  0  0  0  0  0
    9.2577   -1.7955   -2.8288 C   0  0  2  0  0  0  0  0  0  0  0  0
   10.1260    4.0444    0.8878 C   0  0  2  0  0  0  0  0  0  0  0  0
    9.1974    3.2258    0.1605 O   0  0  0  0  0  0  0  0  0  0  0  0
    9.5580    1.8334    0.2060 C   0  0  2  0  0  0  0  0  0  0  0  0
    8.6394    1.0474   -0.5813 O   0  0  0  0  0  0  0  0  0  0  0  0
    9.5857    1.3270    1.6583 C   0  0  2  0  0  0  0  0  0  0  0  0
    8.2387    1.1153    2.1555 N   0  3  0  0  0  0  0  0  0  0  0  0
   10.3672    2.2501    2.6006 C   0  0  1  0  0  0  0  0  0  0  0  0
   11.7585    2.0427    2.4161 O   0  0  0  0  0  0  0  0  0  0  0  0
   10.0356    3.7226    2.3740 C   0  0  2  0  0  0  0  0  0  0  0  0
    8.7278    4.0058    2.8578 O   0  0  0  0  0  0  0  0  0  0  0  0
    9.8515    5.5241    0.6346 C   0  0  0  0  0  0  0  0  0  0  0  0
   10.9964    6.3256    1.0241 N   0  3  0  0  0  0  0  0  0  0  0  0
    7.5448   -8.0044   -4.8863 C   0  0  1  0  0  0  0  0  0  0  0  0
    7.5954   -6.7271   -5.5556 O   0  0  0  0  0  0  0  0  0  0  0  0
    7.4006   -5.6052   -4.6642 C   0  0  2  0  0  0  0  0  0  0  0  0
    8.4814   -5.4772   -3.7075 O   0  0  0  0  0  0  0  0  0  0  0  0
    6.0443   -5.7070   -3.9557 C   0  0  2  0  0  0  0  0  0  0  0  0
    5.9515   -4.6989   -2.9161 N   0  3  0  0  0  0  0  0  0  0  0  0
    5.8314   -7.0846   -3.3382 C   0  0  1  0  0  0  0  0  0  0  0  0
    4.4858   -7.2115   -2.9052 O   0  0  0  0  0  0  0  0  0  0  0  0
    6.1657   -8.2256   -4.2867 C   0  0  2  0  0  0  0  0  0  0  0  0
    6.1283   -9.4670   -3.5980 O   0  0  0  0  0  0  0  0  0  0  0  0
    7.8009   -9.1285   -5.8861 C   0  0  0  0  0  0  0  0  0  0  0  0
    6.9789   -8.9602   -7.0705 N   0  3  0  0  0  0  0  0  0  0  0  0
   12.5089   -4.2070   -4.2227 C   0  0  2  0  0  0  0  0  0  0  0  0
   11.6994   -4.5282   -5.4636 C   0  0  0  0  0  0  0  0  0  0  0  0
   10.4642   -5.3310   -5.0994 C   0  0  1  0  0  0  0  0  0  0  0  0
    9.5266   -4.5754   -4.1566 C   0  0  2  0  0  0  0  0  0  0  0  0
   10.2988   -4.0160   -2.9394 C   0  0  1  0  0  0  0  0  0  0  0  0
   11.6774   -3.4075   -3.2287 C   0  0  1  0  0  0  0  0  0  0  0  0
   13.6849   -3.4455   -4.5983 N   0  3  0  0  0  0  0  0  0  0  0  0
    9.7701   -5.7057   -6.3160 N   0  3  0  0  0  0  0  0  0  0  0  0
    9.4925   -3.0797   -2.1829 O   0  0  0  0  0  0  0  0  0  0  0  0
   12.4009   -3.2530   -2.0123 O   0  0  0  0  0  0  0  0  0  0  0  0
  1  2  1  0  0  0  0
  3  2  1  1  0  0  0
  3  4  1  0  0  0  0
  3  5  1  0  0  0  0
  4  8  1  0  0  0  0
  5  6  1  0  0  0  0
  5 12  1  6  0  0  0
  6  7  1  6  0  0  0
  6  8  1  0  0  0  0
  8 41  1  1  0  0  0
  9 10  1  0  0  0  0
  9 17  1  0  0  0  0
  9 19  1  1  0  0  0
 10 11  1  0  0  0  0
 11 12  1  6  0  0  0
 11 13  1  0  0  0  0
 13 14  1  1  0  0  0
 13 15  1  0  0  0  0
 15 16  1  6  0  0  0
 15 17  1  0  0  0  0
 17 18  1  6  0  0  0
 19 20  1  0  0  0  0
 21 22  1  0  0  0  0
 21 29  1  0  0  0  0
 21 31  1  6  0  0  0
 22 23  1  0  0  0  0
 23 24  1  1  0  0  0
 23 25  1  0  0  0  0
 25 26  1  1  0  0  0
 25 27  1  0  0  0  0
 27 28  1  6  0  0  0
 27 29  1  0  0  0  0
 29 30  1  1  0  0  0
 31 32  1  0  0  0  0
 33 34  1  0  0  0  0
 33 38  1  0  0  0  0
 33 39  1  6  0  0  0
 34 35  1  0  0  0  0
 35 36  1  0  0  0  0
 35 40  1  6  0  0  0
 36 24  1  1  0  0  0
 36 37  1  0  0  0  0
 37 38  1  0  0  0  0
 37 41  1  6  0  0  0
 38 42  1  1  0  0  0
M  CHG  6  14   1  20   1  26   1  32   1  39   1  40   1
M  END
>  <CHROM.1>
-175.52644080,56.31729241,-66.34063432,128.09717273,-67.95359750,-162.93034022
151.95951358,61.59127857,-179.30472760,-170.88103422,-59.80444680,-48.47825955
93.27515561,-82.11989225,74.02029628,-51.51409226,-173.57046516,-165.31775923
-175.67215881,62.11190964,-71.44045978,-54.99302899,9.24169980,-2.22109937
-2.23587237,-1.34717363,-0.38118043,-2.54023608

>  <Name>


>  <RI>
0

>  <Rbt.Current_Directory>
/home/itssahil/PROJECTS/Mol_Feturizer/New_Systems/rnas/1qd3

>  <Rbt.Executable>
rbdock ($Id: //depot/dev/client3/rdock/2013.1/src/exe/rbdock.cxx#4 $)

>  <Rbt.Library>
libRbt.so (2013.1, Build901 2013/11/27)

>  <Rbt.Parameter_File>
/export/apps/rDock/src/rDock_2013.1_src/data/scripts/dock_solv.prm

>  <Rbt.Receptor>
prm/pocket_docking_4.prm

>  <SCORE>
-47.0869

>  <SCORE.INTER>
-27.5583

>  <SCORE.INTER.CONST>
1

>  <SCORE.INTER.POLAR>
-4.71538

>  <SCORE.INTER.ROT>
9

>  <SCORE.INTER.SOLV>
21.9273

>  <SCORE.INTER.VDW>
-19.5634

>  <SCORE.INTER.norm>
-0.656151

>  <SCORE.INTRA>
-19.7221

>  <SCORE.INTRA.DIHEDRAL>
-17.883

>  <SCORE.INTRA.DIHEDRAL.0>
40.6252

>  <SCORE.INTRA.POLAR>
0.228923

>  <SCORE.INTRA.POLAR.0>
-1.20161

>  <SCORE.INTRA.REPUL>
-0.115675

>  <SCORE.INTRA.REPUL.0>
0.115675

>  <SCORE.INTRA.SOLV>
-8.81489

>  <SCORE.INTRA.SOLV.lig_0>
-154.895

>  <SCORE.INTRA.VDW>
-6.57312

>  <SCORE.INTRA.VDW.0>
2.2925

>  <SCORE.INTRA.norm>
-0.469574

>  <SCORE.RESTR>
0.193515

>  <SCORE.RESTR.CAVITY>
0.193515

>  <SCORE.RESTR.norm>
0.0046075

>  <SCORE.SYSTEM>
0

>  <SCORE.SYSTEM.CONST>
0

>  <SCORE.SYSTEM.DIHEDRAL>
0

>  <SCORE.SYSTEM.SOLV>
0

>  <SCORE.SYSTEM.norm>
0

>  <SCORE.heavy>
42

>  <SCORE.norm>
-1.12112

>  <RMSD>
9.939

$$$$

 OpenBabel11021811413D
libRbt.so/2013.1/901 2013/11/27
 42 45  0  0  0  0  0  0  0  0999 V2000
    8.8417    0.2224   -2.7673 O   0  0  0  0  0  0  0  0  0  0  0  0
    7.9664    0.6829   -1.7478 C   0  0  0  0  0  0  0  0  0  0  0  0
    7.5212   -0.4931   -0.8776 C   0  0  1  0  0  0  0  0  0  0  0  0
    7.0066   -1.5763   -1.6822 O   0  0  0  0  0  0  0  0  0  0  0  0
    8.6467   -1.0915   -0.0502 C   0  0  2  0  0  0  0  0  0  0  0  0
    8.0591   -2.4554    0.2714 C   0  0  1  0  0  0  0  0  0  0  0  0
    7.0905   -2.3298    1.3067 O   0  0  0  0  0  0  0  0  0  0  0  0
    7.3647   -2.8328   -1.0529 C   0  0  2  0  0  0  0  0  0  0  0  0
    9.9291    3.1412    1.7543 C   0  0  2  0  0  0  0  0  0  0  0  0
    9.6654    1.7532    2.0103 O   0  0  0  0  0  0  0  0  0  0  0  0
    9.2177    1.0643    0.8289 C   0  0  2  0  0  0  0  0  0  0  0  0
    8.9066   -0.3113    1.1333 O   0  0  0  0  0  0  0  0  0  0  0  0
   10.2823    1.1386   -0.2791 C   0  0  2  0  0  0  0  0  0  0  0  0
   11.3700    0.2159   -0.0107 N   0  3  0  0  0  0  0  0  0  0  0  0
   10.8224    2.5567   -0.4977 C   0  0  1  0  0  0  0  0  0  0  0  0
    9.8785    3.3107   -1.2417 O   0  0  0  0  0  0  0  0  0  0  0  0
   11.1234    3.2701    0.8176 C   0  0  2  0  0  0  0  0  0  0  0  0
   12.2823    2.7069    1.4212 O   0  0  0  0  0  0  0  0  0  0  0  0
   10.1791    3.8908    3.0598 C   0  0  0  0  0  0  0  0  0  0  0  0
   11.3341    3.3426    3.7456 N   0  3  0  0  0  0  0  0  0  0  0  0
    9.2002   -6.4044   -6.2252 C   0  0  1  0  0  0  0  0  0  0  0  0
    9.1334   -5.1251   -5.5613 O   0  0  0  0  0  0  0  0  0  0  0  0
    7.8511   -4.8660   -4.9447 C   0  0  2  0  0  0  0  0  0  0  0  0
    7.5797   -5.7775   -3.8514 O   0  0  0  0  0  0  0  0  0  0  0  0
    6.7303   -4.9078   -5.9905 C   0  0  2  0  0  0  0  0  0  0  0  0
    5.4374   -4.8575   -5.3335 N   0  3  0  0  0  0  0  0  0  0  0  0
    6.8066   -6.1643   -6.8507 C   0  0  1  0  0  0  0  0  0  0  0  0
    5.9093   -6.0502   -7.9443 O   0  0  0  0  0  0  0  0  0  0  0  0
    8.2060   -6.4493   -7.3740 C   0  0  2  0  0  0  0  0  0  0  0  0
    8.2478   -7.7214   -8.0038 O   0  0  0  0  0  0  0  0  0  0  0  0
   10.5936   -6.6172   -6.8100 C   0  0  0  0  0  0  0  0  0  0  0  0
   10.9624   -5.5115   -7.6750 N   0  3  0  0  0  0  0  0  0  0  0  0
    9.3717   -6.8228   -0.1372 C   0  0  2  0  0  0  0  0  0  0  0  0
    9.9242   -7.4580   -1.3979 C   0  0  0  0  0  0  0  0  0  0  0  0
    8.9433   -7.3023   -2.5453 C   0  0  1  0  0  0  0  0  0  0  0  0
    8.6633   -5.8382   -2.8872 C   0  0  2  0  0  0  0  0  0  0  0  0
    8.2866   -5.0363   -1.6200 C   0  0  1  0  0  0  0  0  0  0  0  0
    9.1000   -5.3404   -0.3550 C   0  0  1  0  0  0  0  0  0  0  0  0
   10.3242   -6.9901    0.9439 N   0  3  0  0  0  0  0  0  0  0  0  0
    9.4574   -8.0069   -3.7036 N   0  3  0  0  0  0  0  0  0  0  0  0
    8.2816   -3.6102   -1.8754 O   0  0  0  0  0  0  0  0  0  0  0  0
    8.4385   -4.8010    0.7845 O   0  0  0  0  0  0  0  0  0  0  0  0
  1  2  1  0  0  0  0
  3  2  1  6  0  0  0
  3  4  1  0  0  0  0
  3  5  1  0  0  0  0
  4  8  1  0  0  0  0
  5  6  1  0  0  0  0
  5 12  1  1  0  0  0
  6  7  1  1  0  0  0
  6  8  1  0  0  0  0
  8 41  1  6  0  0  0
  9 10  1  0  0  0  0
  9 17  1  0  0  0  0
  9 19  1  1  0  0  0
 10 11  1  0  0  0  0
 11 12  1  1  0  0  0
 11 13  1  0  0  0  0
 13 14  1  1  0  0  0
 13 15  1  0  0  0  0
 15 16  1  1  0  0  0
 15 17  1  0  0  0  0
 17 18  1  1  0  0  0
 19 20  1  0  0  0  0
 21 22  1  0  0  0  0
 21 29  1  0  0  0  0
 21 31  1  6  0  0  0
 22 23  1  0  0  0  0
 23 24  1  1  0  0  0
 23 25  1  0  0  0  0
 25 26  1  1  0  0  0
 25 27  1  0  0  0  0
 27 28  1  6  0  0  0
 27 29  1  0  0  0  0
 29 30  1  1  0  0  0
 31 32  1  0  0  0  0
 33 34  1  0  0  0  0
 33 38  1  0  0  0  0
 33 39  1  1  0  0  0
 34 35  1  0  0  0  0
 35 36  1  0  0  0  0
 35 40  1  6  0  0  0
 36 24  1  6  0  0  0
 36 37  1  0  0  0  0
 37 38  1  0  0  0  0
 37 41  1  6  0  0  0
 38 42  1  1  0  0  0
M  CHG  6  14   1  20   1  26   1  32   1  39   1  40   1
M  END
>  <CHROM.1>
154.65172343,-51.42394526,-56.77820950,-173.70437703,-156.77089774,60.89883258
-171.31179273,-177.87856332,55.53563699,-174.49802502,-156.01664082,-54.46693904
51.53620216,-134.45525904,30.24983401,-171.85112204,53.31523282,-172.54650197
-66.79758449,59.19101047,151.08110324,-73.07739993,8.94252355,-2.74758558
-1.98644225,0.43721174,-1.38367685,-0.44752903

>  <Name>


>  <RI>
0

>  <Rbt.Current_Directory>
/home/itssahil/PROJECTS/Mol_Feturizer/New_Systems/rnas/1qd3

>  <Rbt.Executable>
rbdock ($Id: //depot/dev/client3/rdock/2013.1/src/exe/rbdock.cxx#4 $)

>  <Rbt.Library>
libRbt.so (2013.1, Build901 2013/11/27)

>  <Rbt.Parameter_File>
/export/apps/rDock/src/rDock_2013.1_src/data/scripts/dock_solv.prm

>  <Rbt.Receptor>
prm/pocket_docking_2.prm

>  <SCORE>
-14.1893

>  <SCORE.INTER>
-15.414

>  <SCORE.INTER.CONST>
1

>  <SCORE.INTER.POLAR>
-5.04866

>  <SCORE.INTER.ROT>
9

>  <SCORE.INTER.SOLV>
31.7127

>  <SCORE.INTER.VDW>
-13.618

>  <SCORE.INTER.norm>
-0.366999

>  <SCORE.INTRA>
-8.69494

>  <SCORE.INTRA.DIHEDRAL>
-17.3251

>  <SCORE.INTRA.DIHEDRAL.0>
40.6252

>  <SCORE.INTRA.POLAR>
1.1267

>  <SCORE.INTRA.POLAR.0>
-1.20161

>  <SCORE.INTRA.REPUL>
-0.0833376

>  <SCORE.INTRA.REPUL.0>
0.115675

>  <SCORE.INTRA.SOLV>
-5.26153

>  <SCORE.INTRA.SOLV.lig_0>
-154.895

>  <SCORE.INTRA.VDW>
-0.815735

>  <SCORE.INTRA.VDW.0>
2.2925

>  <SCORE.INTRA.norm>
-0.207022

>  <SCORE.RESTR>
9.91961

>  <SCORE.RESTR.CAVITY>
9.91961

>  <SCORE.RESTR.norm>
0.236181

>  <SCORE.SYSTEM>
0

>  <SCORE.SYSTEM.CONST>
0

>  <SCORE.SYSTEM.DIHEDRAL>
0

>  <SCORE.SYSTEM.SOLV>
0

>  <SCORE.SYSTEM.norm>
0

>  <SCORE.heavy>
42

>  <SCORE.norm>
-0.33784

>  <RMSD>
9.943

$$$$

 OpenBabel11021811413D
libRbt.so/2013.1/901 2013/11/27
 42 45  0  0  0  0  0  0  0  0999 V2000
   11.9423   -3.4573   -0.1909 O   0  0  0  0  0  0  0  0  0  0  0  0
   12.6033   -3.1245   -1.4034 C   0  0  0  0  0  0  0  0  0  0  0  0
   11.5852   -2.6184   -2.4260 C   0  0  1  0  0  0  0  0  0  0  0  0
   10.8669   -3.7121   -3.0372 O   0  0  0  0  0  0  0  0  0  0  0  0
   10.5240   -1.7127   -1.8235 C   0  0  2  0  0  0  0  0  0  0  0  0
    9.4469   -1.7991   -2.8918 C   0  0  1  0  0  0  0  0  0  0  0  0
    9.8042   -0.9830   -4.0019 O   0  0  0  0  0  0  0  0  0  0  0  0
    9.5047   -3.2866   -3.2949 C   0  0  2  0  0  0  0  0  0  0  0  0
   10.5408    2.2128    0.8980 C   0  0  2  0  0  0  0  0  0  0  0  0
   11.0366    1.5714   -0.2870 O   0  0  0  0  0  0  0  0  0  0  0  0
   10.4524    0.2703   -0.4786 C   0  0  2  0  0  0  0  0  0  0  0  0
   11.0141   -0.3695   -1.6434 O   0  0  0  0  0  0  0  0  0  0  0  0
    8.9235    0.3761   -0.6124 C   0  0  2  0  0  0  0  0  0  0  0  0
    8.5545    0.8651   -1.9282 N   0  3  0  0  0  0  0  0  0  0  0  0
    8.2843    1.2406    0.4806 C   0  0  1  0  0  0  0  0  0  0  0  0
    8.2086    0.4960    1.6859 O   0  0  0  0  0  0  0  0  0  0  0  0
    9.0612    2.5314    0.7254 C   0  0  2  0  0  0  0  0  0  0  0  0
    8.8765    3.4239   -0.3672 O   0  0  0  0  0  0  0  0  0  0  0  0
   11.3379    3.4792    1.1976 C   0  0  0  0  0  0  0  0  0  0  0  0
   10.8611    4.1007    2.4188 N   0  3  0  0  0  0  0  0  0  0  0  0
    8.1169   -6.5288   -7.3456 C   0  0  1  0  0  0  0  0  0  0  0  0
    8.3947   -5.3250   -6.6001 O   0  0  0  0  0  0  0  0  0  0  0  0
    7.4810   -5.1088   -5.5002 C   0  0  2  0  0  0  0  0  0  0  0  0
    7.6140   -6.1246   -4.4755 O   0  0  0  0  0  0  0  0  0  0  0  0
    6.0363   -5.0205   -6.0071 C   0  0  2  0  0  0  0  0  0  0  0  0
    5.1169   -5.0159   -4.8844 N   0  3  0  0  0  0  0  0  0  0  0  0
    5.6906   -6.1813   -6.9331 C   0  0  1  0  0  0  0  0  0  0  0  0
    4.4407   -5.9370   -7.5595 O   0  0  0  0  0  0  0  0  0  0  0  0
    6.7470   -6.4352   -7.9974 C   0  0  2  0  0  0  0  0  0  0  0  0
    6.4604   -7.6349   -8.7011 O   0  0  0  0  0  0  0  0  0  0  0  0
    9.1477   -6.7044   -8.4571 C   0  0  0  0  0  0  0  0  0  0  0  0
    9.5264   -8.0991   -8.5914 N   0  3  0  0  0  0  0  0  0  0  0  0
   10.4311   -7.1846   -1.4689 C   0  0  2  0  0  0  0  0  0  0  0  0
   10.7062   -7.6309   -2.8913 C   0  0  0  0  0  0  0  0  0  0  0  0
    9.4472   -7.5310   -3.7326 C   0  0  1  0  0  0  0  0  0  0  0  0
    8.9117   -6.1015   -3.8251 C   0  0  2  0  0  0  0  0  0  0  0  0
    8.7863   -5.4655   -2.4214 C   0  0  1  0  0  0  0  0  0  0  0  0
    9.9339   -5.7456   -1.4421 C   0  0  1  0  0  0  0  0  0  0  0  0
   11.6470   -7.2949   -0.6856 N   0  3  0  0  0  0  0  0  0  0  0  0
    9.7208   -8.0594   -5.0548 N   0  3  0  0  0  0  0  0  0  0  0  0
    8.5415   -4.0399   -2.5036 O   0  0  0  0  0  0  0  0  0  0  0  0
    9.5343   -5.4002   -0.1199 O   0  0  0  0  0  0  0  0  0  0  0  0
  1  2  1  0  0  0  0
  3  2  1  1  0  0  0
  3  4  1  0  0  0  0
  3  5  1  0  0  0  0
  4  8  1  0  0  0  0
  5  6  1  0  0  0  0
  5 12  1  6  0  0  0
  6  7  1  6  0  0  0
  6  8  1  0  0  0  0
  8 41  1  1  0  0  0
  9 10  1  0  0  0  0
  9 17  1  0  0  0  0
  9 19  1  6  0  0  0
 10 11  1  0  0  0  0
 11 12  1  6  0  0  0
 11 13  1  0  0  0  0
 13 14  1  6  0  0  0
 13 15  1  0  0  0  0
 15 16  1  1  0  0  0
 15 17  1  0  0  0  0
 17 18  1  6  0  0  0
 19 20  1  0  0  0  0
 21 22  1  0  0  0  0
 21 29  1  0  0  0  0
 21 31  1  6  0  0  0
 22 23  1  0  0  0  0
 23 24  1  1  0  0  0
 23 25  1  0  0  0  0
 25 26  1  1  0  0  0
 25 27  1  0  0  0  0
 27 28  1  6  0  0  0
 27 29  1  0  0  0  0
 29 30  1  1  0  0  0
 31 32  1  0  0  0  0
 33 34  1  0  0  0  0
 33 38  1  0  0  0  0
 33 39  1  1  0  0  0
 34 35  1  0  0  0  0
 35 36  1  0  0  0  0
 35 40  1  6  0  0  0
 36 24  1  1  0  0  0
 36 37  1  0  0  0  0
 37 38  1  0  0  0  0
 37 41  1  6  0  0  0
 38 42  1  1  0  0  0
M  CHG  6  14   1  20   1  26   1  32   1  39   1  40   1
M  END
>  <CHROM.1>
57.86807708,-78.77004120,-146.39558126,69.04339732,-42.61686367,-178.19468812
176.07827252,-58.42011214,-176.32840647,-62.70737091,-56.65142419,140.50225282
64.56001337,-133.87578055,-27.36304924,75.95067898,-64.62358432,-176.87635914
-176.76533991,178.46878435,-54.25522468,-145.69381326,9.17973236,-3.30081523
-2.95871850,-1.26330941,0.81075673,-2.68749342

>  <Name>


>  <RI>
0

>  <Rbt.Current_Directory>
/home/itssahil/PROJECTS/Mol_Feturizer/New_Systems/rnas/1qd3

>  <Rbt.Executable>
rbdock ($Id: //depot/dev/client3/rdock/2013.1/src/exe/rbdock.cxx#4 $)

>  <Rbt.Library>
libRbt.so (2013.1, Build901 2013/11/27)

>  <Rbt.Parameter_File>
/export/apps/rDock/src/rDock_2013.1_src/data/scripts/dock_solv.prm

>  <Rbt.Receptor>
prm/pocket_docking_3.prm

>  <SCORE>
-31.1968

>  <SCORE.INTER>
-17.6926

>  <SCORE.INTER.CONST>
1

>  <SCORE.INTER.POLAR>
-4.1605

>  <SCORE.INTER.ROT>
9

>  <SCORE.INTER.SOLV>
27.4669

>  <SCORE.INTER.VDW>
-16.6824

>  <SCORE.INTER.norm>
-0.421253

>  <SCORE.INTRA>
-16.0811

>  <SCORE.INTRA.DIHEDRAL>
-13.1571

>  <SCORE.INTRA.DIHEDRAL.0>
40.6252

>  <SCORE.INTRA.POLAR>
-0.477634

>  <SCORE.INTRA.POLAR.0>
-1.20161

>  <SCORE.INTRA.REPUL>
-0.115675

>  <SCORE.INTRA.REPUL.0>
0.115675

>  <SCORE.INTRA.SOLV>
-1.16037

>  <SCORE.INTRA.SOLV.lig_0>
-154.895

>  <SCORE.INTRA.VDW>
-6.72002

>  <SCORE.INTRA.VDW.0>
2.2925

>  <SCORE.INTRA.norm>
-0.382882

>  <SCORE.RESTR>
2.57683

>  <SCORE.RESTR.CAVITY>
2.57683

>  <SCORE.RESTR.norm>
0.0613531

>  <SCORE.SYSTEM>
0

>  <SCORE.SYSTEM.CONST>
0

>  <SCORE.SYSTEM.DIHEDRAL>
0

>  <SCORE.SYSTEM.SOLV>
0

>  <SCORE.SYSTEM.norm>
0

>  <SCORE.heavy>
42

>  <SCORE.norm>
-0.742782

>  <RMSD>
9.948

$$$$

 OpenBabel11021811413D
libRbt.so/2013.1/901 2013/11/27
 42 45  0  0  0  0  0  0  0  0999 V2000
    6.2736   -1.6623   -2.5617 O   0  0  0  0  0  0  0  0  0  0  0  0
    5.8163   -2.5449   -3.5765 C   0  0  0  0  0  0  0  0  0  0  0  0
    5.6514   -3.9526   -3.0024 C   0  0  1  0  0  0  0  0  0  0  0  0
    4.9592   -4.8191   -3.9275 O   0  0  0  0  0  0  0  0  0  0  0  0
    6.9728   -4.6404   -2.7020 C   0  0  2  0  0  0  0  0  0  0  0  0
    6.5247   -6.0915   -2.6518 C   0  0  1  0  0  0  0  0  0  0  0  0
    5.8741   -6.3513   -1.4129 O   0  0  0  0  0  0  0  0  0  0  0  0
    5.5024   -6.1580   -3.8047 C   0  0  2  0  0  0  0  0  0  0  0  0
   10.8675   -5.5396   -2.0831 C   0  0  2  0  0  0  0  0  0  0  0  0
    9.6232   -4.8668   -2.3294 O   0  0  0  0  0  0  0  0  0  0  0  0
    8.7941   -4.8226   -1.1541 C   0  0  2  0  0  0  0  0  0  0  0  0
    7.5302   -4.1930   -1.4505 O   0  0  0  0  0  0  0  0  0  0  0  0
    9.5080   -4.0767   -0.0138 C   0  0  2  0  0  0  0  0  0  0  0  0
    9.4733   -2.6428   -0.2355 N   0  3  0  0  0  0  0  0  0  0  0  0
   10.9494   -4.5519    0.2036 C   0  0  1  0  0  0  0  0  0  0  0  0
   10.9381   -5.7838    0.9073 O   0  0  0  0  0  0  0  0  0  0  0  0
   11.7070   -4.7211   -1.1106 C   0  0  2  0  0  0  0  0  0  0  0  0
   12.0003   -3.4460   -1.6696 O   0  0  0  0  0  0  0  0  0  0  0  0
   11.6213   -5.7716   -3.3896 C   0  0  0  0  0  0  0  0  0  0  0  0
   11.9055   -4.5073   -4.0419 N   0  3  0  0  0  0  0  0  0  0  0  0
    8.4604   -6.9351   -7.2264 C   0  0  1  0  0  0  0  0  0  0  0  0
    8.2128   -8.3410   -7.0166 O   0  0  0  0  0  0  0  0  0  0  0  0
    8.9812   -8.9017   -5.9273 C   0  0  2  0  0  0  0  0  0  0  0  0
    8.5968   -8.3427   -4.6469 O   0  0  0  0  0  0  0  0  0  0  0  0
   10.4836   -8.7253   -6.1789 C   0  0  2  0  0  0  0  0  0  0  0  0
   11.2317   -9.0976   -4.9925 N   0  3  0  0  0  0  0  0  0  0  0  0
   10.8283   -7.2894   -6.5584 C   0  0  1  0  0  0  0  0  0  0  0  0
   12.1726   -7.2235   -7.0085 O   0  0  0  0  0  0  0  0  0  0  0  0
    9.9102   -6.7140   -7.6259 C   0  0  2  0  0  0  0  0  0  0  0  0
   10.1613   -5.3268   -7.7972 O   0  0  0  0  0  0  0  0  0  0  0  0
    7.5829   -6.4137   -8.3608 C   0  0  0  0  0  0  0  0  0  0  0  0
    6.5800   -5.4949   -7.8542 N   0  3  0  0  0  0  0  0  0  0  0  0
    4.7764  -10.1256   -5.2171 C   0  0  2  0  0  0  0  0  0  0  0  0
    5.6519  -10.6600   -4.1010 C   0  0  0  0  0  0  0  0  0  0  0  0
    7.0889  -10.2109   -4.2912 C   0  0  1  0  0  0  0  0  0  0  0  0
    7.2394   -8.6892   -4.2663 C   0  0  2  0  0  0  0  0  0  0  0  0
    6.2341   -8.0178   -5.2303 C   0  0  1  0  0  0  0  0  0  0  0  0
    4.8161   -8.6038   -5.2517 C   0  0  1  0  0  0  0  0  0  0  0  0
    3.4115  -10.5731   -5.0152 N   0  3  0  0  0  0  0  0  0  0  0  0
    7.9131  -10.8215   -3.2664 N   0  3  0  0  0  0  0  0  0  0  0  0
    6.1754   -6.5851   -5.0238 O   0  0  0  0  0  0  0  0  0  0  0  0
    4.1166   -8.1312   -6.3983 O   0  0  0  0  0  0  0  0  0  0  0  0
  1  2  1  0  0  0  0
  3  2  1  6  0  0  0
  3  4  1  0  0  0  0
  3  5  1  0  0  0  0
  4  8  1  0  0  0  0
  5  6  1  0  0  0  0
  5 12  1  1  0  0  0
  6  7  1  1  0  0  0
  6  8  1  0  0  0  0
  8 41  1  6  0  0  0
  9 10  1  0  0  0  0
  9 17  1  0  0  0  0
  9 19  1  6  0  0  0
 10 11  1  0  0  0  0
 11 12  1  6  0  0  0
 11 13  1  0  0  0  0
 13 14  1  6  0  0  0
 13 15  1  0  0  0  0
 15 16  1  6  0  0  0
 15 17  1  0  0  0  0
 17 18  1  6  0  0  0
 19 20  1  0  0  0  0
 21 22  1  0  0  0  0
 21 29  1  0  0  0  0
 21 31  1  6  0  0  0
 22 23  1  0  0  0  0
 23 24  1  1  0  0  0
 23 25  1  0  0  0  0
 25 26  1  1  0  0  0
 25 27  1  0  0  0  0
 27 28  1  6  0  0  0
 27 29  1  0  0  0  0
 29 30  1  1  0  0  0
 31 32  1  0  0  0  0
 33 34  1  0  0  0  0
 33 38  1  0  0  0  0
 33 39  1  1  0  0  0
 34 35  1  0  0  0  0
 35 36  1  0  0  0  0
 35 40  1  1  0  0  0
 36 24  1  6  0  0  0
 36 37  1  0  0  0  0
 37 38  1  0  0  0  0
 37 41  1  1  0  0  0
 38 42  1  6  0  0  0
M  CHG  6  14   1  20   1  26   1  32   1  39   1  40   1
M  END
>  <CHROM.1>
-60.23125069,169.39633202,-179.30272669,-35.09224875,-154.45719048,59.97243368
43.34313591,-145.63544705,56.98970145,54.95811794,-71.57576147,111.79592534
65.66163355,55.13708753,69.74129930,-57.87868330,45.10170405,-169.54373100
53.55516544,65.07477952,-72.61716961,174.41069709,8.18171065,-6.45013383
-4.02397577,1.06015893,0.13338424,0.84512815

>  <Name>


>  <RI>
0

>  <Rbt.Current_Directory>
/home/itssahil/PROJECTS/Mol_Feturizer/New_Systems/rnas/1qd3

>  <Rbt.Executable>
rbdock ($Id: //depot/dev/client3/rdock/2013.1/src/exe/rbdock.cxx#4 $)

>  <Rbt.Library>
libRbt.so (2013.1, Build901 2013/11/27)

>  <Rbt.Parameter_File>
/export/apps/rDock/src/rDock_2013.1_src/data/scripts/dock_solv.prm

>  <Rbt.Receptor>
prm/pocket_docking_4.prm

>  <SCORE>
-33.0739

>  <SCORE.INTER>
-14.9218

>  <SCORE.INTER.CONST>
1

>  <SCORE.INTER.POLAR>
-3.47089

>  <SCORE.INTER.ROT>
9

>  <SCORE.INTER.SOLV>
21.2031

>  <SCORE.INTER.VDW>
-15.0459

>  <SCORE.INTER.norm>
-0.35528

>  <SCORE.INTRA>
-19.2601

>  <SCORE.INTRA.DIHEDRAL>
-22.6022

>  <SCORE.INTRA.DIHEDRAL.0>
40.6252

>  <SCORE.INTRA.POLAR>
0.668894

>  <SCORE.INTRA.POLAR.0>
-1.20161

>  <SCORE.INTRA.REPUL>
-0.114035

>  <SCORE.INTRA.REPUL.0>
0.115675

>  <SCORE.INTRA.SOLV>
-5.47204

>  <SCORE.INTRA.SOLV.lig_0>
-154.895

>  <SCORE.INTRA.VDW>
-6.92704

>  <SCORE.INTRA.VDW.0>
2.2925

>  <SCORE.INTRA.norm>
-0.458574

>  <SCORE.RESTR>
1.10795

>  <SCORE.RESTR.CAVITY>
1.10795

>  <SCORE.RESTR.norm>
0.0263797

>  <SCORE.SYSTEM>
0

>  <SCORE.SYSTEM.CONST>
0

>  <SCORE.SYSTEM.DIHEDRAL>
0

>  <SCORE.SYSTEM.SOLV>
0

>  <SCORE.SYSTEM.norm>
0

>  <SCORE.heavy>
42

>  <SCORE.norm>
-0.787474

>  <RMSD>
9.964

$$$$

 OpenBabel11021811413D
libRbt.so/2013.1/901 2013/11/27
 42 45  0  0  0  0  0  0  0  0999 V2000
   10.6761   -6.1653    0.2779 O   0  0  0  0  0  0  0  0  0  0  0  0
   11.3056   -7.3806   -0.1021 C   0  0  0  0  0  0  0  0  0  0  0  0
   10.8397   -7.7899   -1.4999 C   0  0  1  0  0  0  0  0  0  0  0  0
    9.4734   -8.2574   -1.4821 O   0  0  0  0  0  0  0  0  0  0  0  0
   10.8734   -6.6505   -2.5049 C   0  0  2  0  0  0  0  0  0  0  0  0
    9.9310   -7.1903   -3.5676 C   0  0  1  0  0  0  0  0  0  0  0  0
   10.6010   -8.1719   -4.3508 O   0  0  0  0  0  0  0  0  0  0  0  0
    8.8301   -7.8589   -2.7191 C   0  0  2  0  0  0  0  0  0  0  0  0
   11.7216   -2.9275   -3.9341 C   0  0  2  0  0  0  0  0  0  0  0  0
   11.6982   -4.1198   -3.1345 O   0  0  0  0  0  0  0  0  0  0  0  0
   12.2967   -5.2365   -3.8168 C   0  0  2  0  0  0  0  0  0  0  0  0
   12.2047   -6.4296   -3.0108 O   0  0  0  0  0  0  0  0  0  0  0  0
   13.7656   -4.9376   -4.1627 C   0  0  2  0  0  0  0  0  0  0  0  0
   14.6060   -5.0556   -2.9854 N   0  3  0  0  0  0  0  0  0  0  0  0
   13.9589   -3.5687   -4.8256 C   0  0  1  0  0  0  0  0  0  0  0  0
   13.5692   -3.6458   -6.1876 O   0  0  0  0  0  0  0  0  0  0  0  0
   13.1618   -2.4702   -4.1274 C   0  0  2  0  0  0  0  0  0  0  0  0
   13.7524   -2.1668   -2.8690 O   0  0  0  0  0  0  0  0  0  0  0  0
   10.8849   -1.8284   -3.2855 C   0  0  0  0  0  0  0  0  0  0  0  0
   10.7680   -0.6888   -4.1757 N   0  3  0  0  0  0  0  0  0  0  0  0
    5.4159   -8.9013   -6.5011 C   0  0  1  0  0  0  0  0  0  0  0  0
    6.4980   -8.3566   -5.7172 O   0  0  0  0  0  0  0  0  0  0  0  0
    6.0952   -7.2534   -4.8733 C   0  0  2  0  0  0  0  0  0  0  0  0
    5.1669   -7.6694   -3.8413 O   0  0  0  0  0  0  0  0  0  0  0  0
    5.5103   -6.1137   -5.7162 C   0  0  2  0  0  0  0  0  0  0  0  0
    4.9203   -5.1096   -4.8505 N   0  3  0  0  0  0  0  0  0  0  0  0
    4.4529   -6.6178   -6.6921 C   0  0  1  0  0  0  0  0  0  0  0  0
    4.1135   -5.5851   -7.6046 O   0  0  0  0  0  0  0  0  0  0  0  0
    4.8904   -7.8515   -7.4665 C   0  0  2  0  0  0  0  0  0  0  0  0
    3.8024   -8.3778   -8.2120 O   0  0  0  0  0  0  0  0  0  0  0  0
    5.9135  -10.0833   -7.3280 C   0  0  0  0  0  0  0  0  0  0  0  0
    7.1336   -9.7389   -8.0348 N   0  3  0  0  0  0  0  0  0  0  0  0
    5.8304   -8.7967    0.2070 C   0  0  2  0  0  0  0  0  0  0  0  0
    5.2921   -9.8463   -0.7452 C   0  0  0  0  0  0  0  0  0  0  0  0
    4.7437   -9.1937   -2.0007 C   0  0  1  0  0  0  0  0  0  0  0  0
    5.8090   -8.4156   -2.7743 C   0  0  2  0  0  0  0  0  0  0  0  0
    6.5744   -7.4486   -1.8417 C   0  0  1  0  0  0  0  0  0  0  0  0
    6.9398   -7.9887   -0.4527 C   0  0  1  0  0  0  0  0  0  0  0  0
    6.3425   -9.4450    1.3992 N   0  3  0  0  0  0  0  0  0  0  0  0
    4.1477  -10.2144   -2.8405 N   0  3  0  0  0  0  0  0  0  0  0  0
    7.7521   -6.9069   -2.4886 O   0  0  0  0  0  0  0  0  0  0  0  0
    7.3209   -6.9125    0.3979 O   0  0  0  0  0  0  0  0  0  0  0  0
  1  2  1  0  0  0  0
  3  2  1  1  0  0  0
  3  4  1  0  0  0  0
  3  5  1  0  0  0  0
  4  8  1  0  0  0  0
  5  6  1  0  0  0  0
  5 12  1  6  0  0  0
  6  7  1  6  0  0  0
  6  8  1  0  0  0  0
  8 41  1  1  0  0  0
  9 10  1  0  0  0  0
  9 17  1  0  0  0  0
  9 19  1  1  0  0  0
 10 11  1  0  0  0  0
 11 12  1  1  0  0  0
 11 13  1  0  0  0  0
 13 14  1  1  0  0  0
 13 15  1  0  0  0  0
 15 16  1  6  0  0  0
 15 17  1  0  0  0  0
 17 18  1  1  0  0  0
 19 20  1  0  0  0  0
 21 22  1  0  0  0  0
 21 29  1  0  0  0  0
 21 31  1  6  0  0  0
 22 23  1  0  0  0  0
 23 24  1  1  0  0  0
 23 25  1  0  0  0  0
 25 26  1  1  0  0  0
 25 27  1  0  0  0  0
 27 28  1  6  0  0  0
 27 29  1  0  0  0  0
 29 30  1  1  0  0  0
 31 32  1  0  0  0  0
 33 34  1  0  0  0  0
 33 38  1  0  0  0  0
 33 39  1  1  0  0  0
 34 35  1  0  0  0  0
 35 36  1  0  0  0  0
 35 40  1  6  0  0  0
 36 24  1  6  0  0  0
 36 37  1  0  0  0  0
 37 38  1  0  0  0  0
 37 41  1  6  0  0  0
 38 42  1  1  0  0  0
M  CHG  6  14   1  20   1  26   1  32   1  39   1  40   1
M  END
>  <CHROM.1>
-177.37085698,-72.14604788,-171.70462465,179.34698617,-70.30330414,-172.60218132
49.21865495,-80.39523348,59.98952999,-53.20580821,0.77229339,-48.98349403
74.26104214,-161.46876618,175.18837141,63.05395712,-173.22219674,-53.20051556
54.01602651,68.37002881,-69.46831043,-74.77635810,8.56814591,-6.62637654
-3.59130199,-0.06397385,0.55011366,1.94971682

>  <Name>


>  <RI>
0

>  <Rbt.Current_Directory>
/home/itssahil/PROJECTS/Mol_Feturizer/New_Systems/rnas/1qd3

>  <Rbt.Executable>
rbdock ($Id: //depot/dev/client3/rdock/2013.1/src/exe/rbdock.cxx#4 $)

>  <Rbt.Library>
libRbt.so (2013.1, Build901 2013/11/27)

>  <Rbt.Parameter_File>
/export/apps/rDock/src/rDock_2013.1_src/data/scripts/dock_solv.prm

>  <Rbt.Receptor>
prm/pocket_docking_5.prm

>  <SCORE>
-60.0453

>  <SCORE.INTER>
-36.0815

>  <SCORE.INTER.CONST>
1

>  <SCORE.INTER.POLAR>
-7.74535

>  <SCORE.INTER.ROT>
9

>  <SCORE.INTER.SOLV>
25.916

>  <SCORE.INTER.VDW>
-16.4751

>  <SCORE.INTER.norm>
-0.859083

>  <SCORE.INTRA>
-23.9757

>  <SCORE.INTRA.DIHEDRAL>
-26.8712

>  <SCORE.INTRA.DIHEDRAL.0>
40.6252

>  <SCORE.INTRA.POLAR>
0.61174

>  <SCORE.INTRA.POLAR.0>
-1.20161

>  <SCORE.INTRA.REPUL>
-0.115675

>  <SCORE.INTRA.REPUL.0>
0.115675

>  <SCORE.INTRA.SOLV>
-11.0108

>  <SCORE.INTRA.SOLV.lig_0>
-154.895

>  <SCORE.INTRA.VDW>
-6.53627

>  <SCORE.INTRA.VDW.0>
2.2925

>  <SCORE.INTRA.norm>
-0.570851

>  <SCORE.RESTR>
0.0119029

>  <SCORE.RESTR.CAVITY>
0.0119029

>  <SCORE.RESTR.norm>
0.000283403

>  <SCORE.SYSTEM>
0

>  <SCORE.SYSTEM.CONST>
0

>  <SCORE.SYSTEM.DIHEDRAL>
0

>  <SCORE.SYSTEM.SOLV>
0

>  <SCORE.SYSTEM.norm>
0

>  <SCORE.heavy>
42

>  <SCORE.norm>
-1.42965

>  <RMSD>
9.974

$$$$

 OpenBabel11021811413D
libRbt.so/2013.1/901 2013/11/27
 42 45  0  0  0  0  0  0  0  0999 V2000
    4.3719   -7.7520   -2.7562 O   0  0  0  0  0  0  0  0  0  0  0  0
    5.5341   -6.9368   -2.8036 C   0  0  0  0  0  0  0  0  0  0  0  0
    6.7784   -7.7952   -2.5725 C   0  0  1  0  0  0  0  0  0  0  0  0
    6.8329   -8.9011   -3.4996 O   0  0  0  0  0  0  0  0  0  0  0  0
    8.0801   -7.0339   -2.7605 C   0  0  2  0  0  0  0  0  0  0  0  0
    9.0477   -8.1868   -2.9689 C   0  0  1  0  0  0  0  0  0  0  0  0
    9.3472   -8.7955   -1.7177 O   0  0  0  0  0  0  0  0  0  0  0  0
    8.2199   -9.1554   -3.8380 C   0  0  2  0  0  0  0  0  0  0  0  0
    7.1396   -2.9253   -2.4494 C   0  0  2  0  0  0  0  0  0  0  0  0
    7.1251   -4.3186   -2.1031 O   0  0  0  0  0  0  0  0  0  0  0  0
    8.4516   -4.8328   -1.8869 C   0  0  2  0  0  0  0  0  0  0  0  0
    8.4053   -6.2457   -1.5986 O   0  0  0  0  0  0  0  0  0  0  0  0
    9.1470   -4.0765   -0.7420 C   0  0  2  0  0  0  0  0  0  0  0  0
    8.6407   -4.5137    0.5460 N   0  3  0  0  0  0  0  0  0  0  0  0
    9.0348   -2.5531   -0.8743 C   0  0  1  0  0  0  0  0  0  0  0  0
    9.9604   -2.0955   -1.8473 O   0  0  0  0  0  0  0  0  0  0  0  0
    7.6265   -2.1082   -1.2595 C   0  0  2  0  0  0  0  0  0  0  0  0
    6.7449   -2.2773   -0.1556 O   0  0  0  0  0  0  0  0  0  0  0  0
    5.7532   -2.4667   -2.8925 C   0  0  0  0  0  0  0  0  0  0  0  0
    5.2476   -3.3271   -3.9457 N   0  3  0  0  0  0  0  0  0  0  0  0
   13.4312   -5.7864   -6.4252 C   0  0  1  0  0  0  0  0  0  0  0  0
   12.9464   -6.2062   -5.1326 O   0  0  0  0  0  0  0  0  0  0  0  0
   11.5057   -6.3144   -5.0687 C   0  0  2  0  0  0  0  0  0  0  0  0
   11.0013   -7.3677   -5.9265 O   0  0  0  0  0  0  0  0  0  0  0  0
   10.8475   -4.9694   -5.3993 C   0  0  2  0  0  0  0  0  0  0  0  0
    9.4132   -5.1407   -5.5386 N   0  3  0  0  0  0  0  0  0  0  0  0
   11.4072   -4.3668   -6.6831 C   0  0  1  0  0  0  0  0  0  0  0  0
   10.9494   -3.0307   -6.8231 O   0  0  0  0  0  0  0  0  0  0  0  0
   12.9268   -4.3883   -6.7434 C   0  0  2  0  0  0  0  0  0  0  0  0
   13.3753   -3.9909   -8.0308 O   0  0  0  0  0  0  0  0  0  0  0  0
   14.9564   -5.7385   -6.4207 C   0  0  0  0  0  0  0  0  0  0  0  0
   15.4714   -5.6320   -7.7735 N   0  3  0  0  0  0  0  0  0  0  0  0
   11.1073  -11.6180   -5.7732 C   0  0  2  0  0  0  0  0  0  0  0  0
   12.2167  -10.8527   -5.0792 C   0  0  0  0  0  0  0  0  0  0  0  0
   12.2534   -9.4147   -5.5626 C   0  0  1  0  0  0  0  0  0  0  0  0
   10.9573   -8.6594   -5.2653 C   0  0  2  0  0  0  0  0  0  0  0  0
    9.7267   -9.4590   -5.7522 C   0  0  1  0  0  0  0  0  0  0  0  0
    9.7553  -10.9724   -5.5011 C   0  0  1  0  0  0  0  0  0  0  0  0
   11.0973  -12.9886   -5.2985 N   0  3  0  0  0  0  0  0  0  0  0  0
   13.3858   -8.7424   -4.9559 N   0  3  0  0  0  0  0  0  0  0  0  0
    8.4921   -8.8955   -5.2451 O   0  0  0  0  0  0  0  0  0  0  0  0
    8.7523  -11.6100   -6.2851 O   0  0  0  0  0  0  0  0  0  0  0  0
  1  2  1  0  0  0  0
  3  2  1  6  0  0  0
  3  4  1  0  0  0  0
  3  5  1  0  0  0  0
  4  8  1  0  0  0  0
  5  6  1  0  0  0  0
  5 12  1  1  0  0  0
  6  7  1  1  0  0  0
  6  8  1  0  0  0  0
  8 41  1  6  0  0  0
  9 10  1  0  0  0  0
  9 17  1  0  0  0  0
  9 19  1  1  0  0  0
 10 11  1  0  0  0  0
 11 12  1  1  0  0  0
 11 13  1  0  0  0  0
 13 14  1  1  0  0  0
 13 15  1  0  0  0  0
 15 16  1  6  0  0  0
 15 17  1  0  0  0  0
 17 18  1  1  0  0  0
 19 20  1  0  0  0  0
 21 22  1  0  0  0  0
 21 29  1  0  0  0  0
 21 31  1  1  0  0  0
 22 23  1  0  0  0  0
 23 24  1  6  0  0  0
 23 25  1  0  0  0  0
 25 26  1  6  0  0  0
 25 27  1  0  0  0  0
 27 28  1  1  0  0  0
 27 29  1  0  0  0  0
 29 30  1  6  0  0  0
 31 32  1  0  0  0  0
 33 34  1  0  0  0  0
 33 38  1  0  0  0  0
 33 39  1  1  0  0  0
 34 35  1  0  0  0  0
 35 36  1  0  0  0  0
 35 40  1  1  0  0  0
 36 24  1  6  0  0  0
 36 37  1  0  0  0  0
 37 38  1  0  0  0  0
 37 41  1  1  0  0  0
 38 42  1  6  0  0  0
M  CHG  6  14   1  20   1  26   1  32   1  39   1  40   1
M  END
>  <CHROM.1>
65.27132562,54.40169535,-117.91902542,-45.01420188,-163.81284179,-53.06267063
72.00144852,47.73945641,-179.91789143,47.12040527,36.75171356,166.46259953
88.09045311,-93.48441867,-167.24013332,63.16623510,-173.52954443,-57.98759565
176.49231614,88.73068775,-74.81228979,63.97955776,9.68742825,-6.47577547
-4.11457117,2.40709910,0.59841275,0.18571131

>  <Name>


>  <RI>
0

>  <Rbt.Current_Directory>
/home/itssahil/PROJECTS/Mol_Feturizer/New_Systems/rnas/1qd3

>  <Rbt.Executable>
rbdock ($Id: //depot/dev/client3/rdock/2013.1/src/exe/rbdock.cxx#4 $)

>  <Rbt.Library>
libRbt.so (2013.1, Build901 2013/11/27)

>  <Rbt.Parameter_File>
/export/apps/rDock/src/rDock_2013.1_src/data/scripts/dock_solv.prm

>  <Rbt.Receptor>
prm/pocket_docking_7.prm

>  <SCORE>
-40.4527

>  <SCORE.INTER>
-19.4547

>  <SCORE.INTER.CONST>
1

>  <SCORE.INTER.POLAR>
-4.59089

>  <SCORE.INTER.ROT>
9

>  <SCORE.INTER.SOLV>
23.0186

>  <SCORE.INTER.VDW>
-14.9397

>  <SCORE.INTER.norm>
-0.463208

>  <SCORE.INTRA>
-20.998

>  <SCORE.INTRA.DIHEDRAL>
-15.6063

>  <SCORE.INTRA.DIHEDRAL.0>
40.6252

>  <SCORE.INTRA.POLAR>
-0.707438

>  <SCORE.INTRA.POLAR.0>
-1.20161

>  <SCORE.INTRA.REPUL>
-0.115675

>  <SCORE.INTRA.REPUL.0>
0.115675

>  <SCORE.INTRA.SOLV>
-4.83703

>  <SCORE.INTRA.SOLV.lig_0>
-154.895

>  <SCORE.INTRA.VDW>
-7.79266

>  <SCORE.INTRA.VDW.0>
2.2925

>  <SCORE.INTRA.norm>
-0.499952

>  <SCORE.RESTR>
0

>  <SCORE.RESTR.CAVITY>
0

>  <SCORE.RESTR.norm>
0

>  <SCORE.SYSTEM>
0

>  <SCORE.SYSTEM.CONST>
0

>  <SCORE.SYSTEM.DIHEDRAL>
0

>  <SCORE.SYSTEM.SOLV>
0

>  <SCORE.SYSTEM.norm>
0

>  <SCORE.heavy>
42

>  <SCORE.norm>
-0.963159

>  <RMSD>
10.023

$$$$

 OpenBabel11021811413D
libRbt.so/2013.1/901 2013/11/27
 42 45  0  0  0  0  0  0  0  0999 V2000
    7.6750   -1.7128   -2.0252 O   0  0  0  0  0  0  0  0  0  0  0  0
    6.9259   -2.5574   -2.8873 C   0  0  0  0  0  0  0  0  0  0  0  0
    6.6999   -3.9127   -2.2161 C   0  0  1  0  0  0  0  0  0  0  0  0
    5.4907   -4.5406   -2.6948 O   0  0  0  0  0  0  0  0  0  0  0  0
    7.8157   -4.9102   -2.4799 C   0  0  2  0  0  0  0  0  0  0  0  0
    7.1053   -6.2132   -2.1537 C   0  0  1  0  0  0  0  0  0  0  0  0
    7.0189   -6.3735   -0.7421 O   0  0  0  0  0  0  0  0  0  0  0  0
    5.6992   -5.9749   -2.7410 C   0  0  2  0  0  0  0  0  0  0  0  0
   11.4560   -2.1443   -2.4492 C   0  0  2  0  0  0  0  0  0  0  0  0
   10.3975   -2.8018   -1.7359 O   0  0  0  0  0  0  0  0  0  0  0  0
   10.0546   -4.0673   -2.3291 C   0  0  2  0  0  0  0  0  0  0  0  0
    8.9511   -4.6733   -1.6245 O   0  0  0  0  0  0  0  0  0  0  0  0
   11.2689   -5.0117   -2.3333 C   0  0  2  0  0  0  0  0  0  0  0  0
   11.4984   -5.5612   -1.0098 N   0  3  0  0  0  0  0  0  0  0  0  0
   12.5434   -4.3475   -2.8675 C   0  0  1  0  0  0  0  0  0  0  0  0
   12.4841   -4.2857   -4.2837 O   0  0  0  0  0  0  0  0  0  0  0  0
   12.7444   -2.9439   -2.3027 C   0  0  2  0  0  0  0  0  0  0  0  0
   13.1199   -3.0210   -0.9325 O   0  0  0  0  0  0  0  0  0  0  0  0
   11.6414   -0.7173   -1.9412 C   0  0  0  0  0  0  0  0  0  0  0  0
   12.6503   -0.0281   -2.7237 N   0  3  0  0  0  0  0  0  0  0  0  0
    8.6767   -7.0292   -6.5077 C   0  0  1  0  0  0  0  0  0  0  0  0
    7.4665   -6.3576   -6.0998 O   0  0  0  0  0  0  0  0  0  0  0  0
    6.2996   -6.7779   -6.8435 C   0  0  2  0  0  0  0  0  0  0  0  0
    5.9641   -8.1646   -6.5901 O   0  0  0  0  0  0  0  0  0  0  0  0
    6.4929   -6.5209   -8.3429 C   0  0  2  0  0  0  0  0  0  0  0  0
    5.4137   -7.1350   -9.0940 N   0  3  0  0  0  0  0  0  0  0  0  0
    7.8255   -7.0674   -8.8427 C   0  0  1  0  0  0  0  0  0  0  0  0
    8.0668   -6.6053  -10.1627 O   0  0  0  0  0  0  0  0  0  0  0  0
    9.0004   -6.6900   -7.9536 C   0  0  2  0  0  0  0  0  0  0  0  0
   10.1717   -7.3798   -8.3643 O   0  0  0  0  0  0  0  0  0  0  0  0
    9.8483   -6.5618   -5.6489 C   0  0  0  0  0  0  0  0  0  0  0  0
    9.8866   -5.1127   -5.5763 N   0  3  0  0  0  0  0  0  0  0  0  0
    5.2252  -10.0635   -2.8555 C   0  0  2  0  0  0  0  0  0  0  0  0
    6.3224  -10.6278   -3.7363 C   0  0  0  0  0  0  0  0  0  0  0  0
    6.1832  -10.1103   -5.1560 C   0  0  1  0  0  0  0  0  0  0  0  0
    6.3007   -8.5880   -5.2429 C   0  0  2  0  0  0  0  0  0  0  0  0
    5.3613   -7.9014   -4.2247 C   0  0  1  0  0  0  0  0  0  0  0  0
    5.2814   -8.5420   -2.8327 C   0  0  1  0  0  0  0  0  0  0  0  0
    5.3773  -10.5772   -1.5075 N   0  3  0  0  0  0  0  0  0  0  0  0
    7.1839  -10.7472   -5.9899 N   0  3  0  0  0  0  0  0  0  0  0  0
    5.6511   -6.4871   -4.1037 O   0  0  0  0  0  0  0  0  0  0  0  0
    4.1532   -8.0304   -2.1308 O   0  0  0  0  0  0  0  0  0  0  0  0
  1  2  1  0  0  0  0
  3  2  1  6  0  0  0
  3  4  1  0  0  0  0
  3  5  1  0  0  0  0
  4  8  1  0  0  0  0
  5  6  1  0  0  0  0
  5 12  1  1  0  0  0
  6  7  1  1  0  0  0
  6  8  1  0  0  0  0
  8 41  1  6  0  0  0
  9 10  1  0  0  0  0
  9 17  1  0  0  0  0
  9 19  1  1  0  0  0
 10 11  1  0  0  0  0
 11 12  1  1  0  0  0
 11 13  1  0  0  0  0
 13 14  1  1  0  0  0
 13 15  1  0  0  0  0
 15 16  1  6  0  0  0
 15 17  1  0  0  0  0
 17 18  1  1  0  0  0
 19 20  1  0  0  0  0
 21 22  1  0  0  0  0
 21 29  1  0  0  0  0
 21 31  1  1  0  0  0
 22 23  1  0  0  0  0
 23 24  1  6  0  0  0
 23 25  1  0  0  0  0
 25 26  1  6  0  0  0
 25 27  1  0  0  0  0
 27 28  1  6  0  0  0
 27 29  1  0  0  0  0
 29 30  1  6  0  0  0
 31 32  1  0  0  0  0
 33 34  1  0  0  0  0
 33 38  1  0  0  0  0
 33 39  1  1  0  0  0
 34 35  1  0  0  0  0
 35 36  1  0  0  0  0
 35 40  1  6  0  0  0
 36 24  1  6  0  0  0
 36 37  1  0  0  0  0
 37 38  1  0  0  0  0
 37 41  1  1  0  0  0
 38 42  1  6  0  0  0
M  CHG  6  14   1  20   1  26   1  32   1  39   1  40   1
M  END
>  <CHROM.1>
63.45724174,152.59428823,-105.54153749,60.08996687,-158.42896283,-176.21090448
120.79273589,-78.35087911,167.64754090,-170.21525908,113.73161979,-48.86978340
31.96756961,-168.52253976,-39.70292044,-67.32823627,58.60831185,86.54507902
-66.80260752,-62.66446460,-135.06372921,-55.22462817,8.25285652,-5.90712470
-4.09715057,0.63958155,0.71962175,1.27966214

>  <Name>


>  <RI>
0

>  <Rbt.Current_Directory>
/home/itssahil/PROJECTS/Mol_Feturizer/New_Systems/rnas/1qd3

>  <Rbt.Executable>
rbdock ($Id: //depot/dev/client3/rdock/2013.1/src/exe/rbdock.cxx#4 $)

>  <Rbt.Library>
libRbt.so (2013.1, Build901 2013/11/27)

>  <Rbt.Parameter_File>
/export/apps/rDock/src/rDock_2013.1_src/data/scripts/dock_solv.prm

>  <Rbt.Receptor>
prm/pocket_docking_4.prm

>  <SCORE>
-31.7273

>  <SCORE.INTER>
-17.2897

>  <SCORE.INTER.CONST>
1

>  <SCORE.INTER.POLAR>
-3.52439

>  <SCORE.INTER.ROT>
9

>  <SCORE.INTER.SOLV>
16.8632

>  <SCORE.INTER.VDW>
-14.9995

>  <SCORE.INTER.norm>
-0.411659

>  <SCORE.INTRA>
-15.3689

>  <SCORE.INTRA.DIHEDRAL>
-3.74938

>  <SCORE.INTRA.DIHEDRAL.0>
40.6252

>  <SCORE.INTRA.POLAR>
-1.4379

>  <SCORE.INTRA.POLAR.0>
-1.20161

>  <SCORE.INTRA.REPUL>
-0.0898915

>  <SCORE.INTRA.REPUL.0>
0.115675

>  <SCORE.INTRA.SOLV>
-5.66025

>  <SCORE.INTRA.SOLV.lig_0>
-154.895

>  <SCORE.INTRA.VDW>
-5.32573

>  <SCORE.INTRA.VDW.0>
2.2925

>  <SCORE.INTRA.norm>
-0.365925

>  <SCORE.RESTR>
0.931248

>  <SCORE.RESTR.CAVITY>
0.931248

>  <SCORE.RESTR.norm>
0.0221726

>  <SCORE.SYSTEM>
0

>  <SCORE.SYSTEM.CONST>
0

>  <SCORE.SYSTEM.DIHEDRAL>
0

>  <SCORE.SYSTEM.SOLV>
0

>  <SCORE.SYSTEM.norm>
0

>  <SCORE.heavy>
42

>  <SCORE.norm>
-0.755412

>  <RMSD>
10.038

$$$$

 OpenBabel11021811413D
libRbt.so/2013.1/901 2013/11/27
 42 45  0  0  0  0  0  0  0  0999 V2000
    9.4916   -8.0285   -5.2965 O   0  0  0  0  0  0  0  0  0  0  0  0
    8.7584   -6.9893   -4.6638 C   0  0  0  0  0  0  0  0  0  0  0  0
    7.6655   -6.4801   -5.6045 C   0  0  1  0  0  0  0  0  0  0  0  0
    6.8295   -7.5610   -6.0719 O   0  0  0  0  0  0  0  0  0  0  0  0
    6.7237   -5.4823   -4.9511 C   0  0  2  0  0  0  0  0  0  0  0  0
    5.5362   -5.5626   -5.8956 C   0  0  1  0  0  0  0  0  0  0  0  0
    5.8161   -4.8300   -7.0834 O   0  0  0  0  0  0  0  0  0  0  0  0
    5.4721   -7.0706   -6.2128 C   0  0  2  0  0  0  0  0  0  0  0  0
    8.6260   -2.0477   -2.2345 C   0  0  2  0  0  0  0  0  0  0  0  0
    8.0968   -2.4151   -3.5177 O   0  0  0  0  0  0  0  0  0  0  0  0
    7.7740   -3.8158   -3.5851 C   0  0  2  0  0  0  0  0  0  0  0  0
    7.3006   -4.1625   -4.9032 O   0  0  0  0  0  0  0  0  0  0  0  0
    6.7204   -4.1818   -2.5257 C   0  0  2  0  0  0  0  0  0  0  0  0
    5.4012   -3.7378   -2.9368 N   0  3  0  0  0  0  0  0  0  0  0  0
    7.0589   -3.6411   -1.1315 C   0  0  1  0  0  0  0  0  0  0  0  0
    8.0563   -4.4578   -0.5391 O   0  0  0  0  0  0  0  0  0  0  0  0
    7.5422   -2.1940   -1.1740 C   0  0  2  0  0  0  0  0  0  0  0  0
    6.4525   -1.3264   -1.4644 O   0  0  0  0  0  0  0  0  0  0  0  0
    9.1679   -0.6215   -2.2645 C   0  0  0  0  0  0  0  0  0  0  0  0
   10.0248   -0.4293   -3.4194 N   0  3  0  0  0  0  0  0  0  0  0  0
    7.2717  -10.5319   -1.4771 C   0  0  1  0  0  0  0  0  0  0  0  0
    5.9042  -10.9874   -1.4090 O   0  0  0  0  0  0  0  0  0  0  0  0
    4.9745  -10.1121   -2.0879 C   0  0  2  0  0  0  0  0  0  0  0  0
    5.2019  -10.0822   -3.5187 O   0  0  0  0  0  0  0  0  0  0  0  0
    5.0262   -8.7007   -1.4903 C   0  0  2  0  0  0  0  0  0  0  0  0
    4.2518   -7.7871   -2.3097 N   0  3  0  0  0  0  0  0  0  0  0  0
    6.4570   -8.1856   -1.3808 C   0  0  1  0  0  0  0  0  0  0  0  0
    6.4777   -6.9913   -0.6144 O   0  0  0  0  0  0  0  0  0  0  0  0
    7.4133   -9.1960   -0.7661 C   0  0  2  0  0  0  0  0  0  0  0  0
    8.7518   -8.7321   -0.8648 O   0  0  0  0  0  0  0  0  0  0  0  0
    8.1898  -11.5292   -0.7763 C   0  0  0  0  0  0  0  0  0  0  0  0
    9.5758  -11.2936   -1.1374 N   0  3  0  0  0  0  0  0  0  0  0  0
    2.6594  -10.6099   -6.8887 C   0  0  2  0  0  0  0  0  0  0  0  0
    2.2260  -11.2153   -5.5682 C   0  0  0  0  0  0  0  0  0  0  0  0
    3.3976  -11.2872   -4.6064 C   0  0  1  0  0  0  0  0  0  0  0  0
    3.9777   -9.9103   -4.2797 C   0  0  2  0  0  0  0  0  0  0  0  0
    4.2680   -9.1115   -5.5714 C   0  0  1  0  0  0  0  0  0  0  0  0
    3.2137   -9.2067   -6.6822 C   0  0  1  0  0  0  0  0  0  0  0  0
    1.5246  -10.5579   -7.7905 N   0  3  0  0  0  0  0  0  0  0  0  0
    2.9724  -11.9615   -3.3952 N   0  3  0  0  0  0  0  0  0  0  0  0
    4.5599   -7.7221   -5.2828 O   0  0  0  0  0  0  0  0  0  0  0  0
    3.7569   -8.7204   -7.9051 O   0  0  0  0  0  0  0  0  0  0  0  0
  1  2  1  0  0  0  0
  3  2  1  1  0  0  0
  3  4  1  0  0  0  0
  3  5  1  0  0  0  0
  4  8  1  0  0  0  0
  5  6  1  0  0  0  0
  5 12  1  6  0  0  0
  6  7  1  6  0  0  0
  6  8  1  0  0  0  0
  8 41  1  1  0  0  0
  9 10  1  0  0  0  0
  9 17  1  0  0  0  0
  9 19  1  6  0  0  0
 10 11  1  0  0  0  0
 11 12  1  6  0  0  0
 11 13  1  0  0  0  0
 13 14  1  6  0  0  0
 13 15  1  0  0  0  0
 15 16  1  6  0  0  0
 15 17  1  0  0  0  0
 17 18  1  6  0  0  0
 19 20  1  0  0  0  0
 21 22  1  0  0  0  0
 21 29  1  0  0  0  0
 21 31  1  1  0  0  0
 22 23  1  0  0  0  0
 23 24  1  6  0  0  0
 23 25  1  0  0  0  0
 25 26  1  6  0  0  0
 25 27  1  0  0  0  0
 27 28  1  1  0  0  0
 27 29  1  0  0  0  0
 29 30  1  6  0  0  0
 31 32  1  0  0  0  0
 33 34  1  0  0  0  0
 33 38  1  0  0  0  0
 33 39  1  6  0  0  0
 34 35  1  0  0  0  0
 35 36  1  0  0  0  0
 35 40  1  1  0  0  0
 36 24  1  6  0  0  0
 36 37  1  0  0  0  0
 37 38  1  0  0  0  0
 37 41  1  1  0  0  0
 38 42  1  6  0  0  0
M  CHG  6  14   1  20   1  26   1  32   1  39   1  40   1
M  END
>  <CHROM.1>
-65.86766165,53.94145021,-103.92788533,61.28371406,-70.79276443,-48.34494221
-168.73983486,-82.15279948,-176.16864657,-50.43047094,-171.46759280,164.48292790
146.73783267,-90.44276948,-173.23053950,-64.22964745,-173.92154924,179.84404120
-53.12411206,54.69053710,149.58391485,175.89137991,6.22457471,-7.10336493
-3.60440840,-0.73782929,0.92669858,2.68770672

>  <Name>


>  <RI>
0

>  <Rbt.Current_Directory>
/home/itssahil/PROJECTS/Mol_Feturizer/New_Systems/rnas/1qd3

>  <Rbt.Executable>
rbdock ($Id: //depot/dev/client3/rdock/2013.1/src/exe/rbdock.cxx#4 $)

>  <Rbt.Library>
libRbt.so (2013.1, Build901 2013/11/27)

>  <Rbt.Parameter_File>
/export/apps/rDock/src/rDock_2013.1_src/data/scripts/dock_solv.prm

>  <Rbt.Receptor>
prm/pocket_docking_8.prm

>  <SCORE>
-52.5373

>  <SCORE.INTER>
-30.9088

>  <SCORE.INTER.CONST>
1

>  <SCORE.INTER.POLAR>
-5.85262

>  <SCORE.INTER.ROT>
9

>  <SCORE.INTER.SOLV>
35.8723

>  <SCORE.INTER.VDW>
-22.6545

>  <SCORE.INTER.norm>
-0.735924

>  <SCORE.INTRA>
-21.6285

>  <SCORE.INTRA.DIHEDRAL>
-15.3801

>  <SCORE.INTRA.DIHEDRAL.0>
40.6252

>  <SCORE.INTRA.POLAR>
-0.989456

>  <SCORE.INTRA.POLAR.0>
-1.20161

>  <SCORE.INTRA.REPUL>
-0.115675

>  <SCORE.INTRA.REPUL.0>
0.115675

>  <SCORE.INTRA.SOLV>
-5.89732

>  <SCORE.INTRA.SOLV.lig_0>
-154.895

>  <SCORE.INTRA.VDW>
-7.04728

>  <SCORE.INTRA.VDW.0>
2.2925

>  <SCORE.INTRA.norm>
-0.514964

>  <SCORE.RESTR>
0

>  <SCORE.RESTR.CAVITY>
0

>  <SCORE.RESTR.norm>
0

>  <SCORE.SYSTEM>
0

>  <SCORE.SYSTEM.CONST>
0

>  <SCORE.SYSTEM.DIHEDRAL>
0

>  <SCORE.SYSTEM.SOLV>
0

>  <SCORE.SYSTEM.norm>
0

>  <SCORE.heavy>
42

>  <SCORE.norm>
-1.25089

>  <RMSD>
10.108

$$$$

 OpenBabel11021811413D
libRbt.so/2013.1/901 2013/11/27
 42 45  0  0  0  0  0  0  0  0999 V2000
   14.0745   -2.0327   -3.5558 O   0  0  0  0  0  0  0  0  0  0  0  0
   13.5253   -3.3233   -3.7805 C   0  0  0  0  0  0  0  0  0  0  0  0
   12.0203   -3.2097   -4.0267 C   0  0  1  0  0  0  0  0  0  0  0  0
   11.4346   -4.5006   -4.3029 O   0  0  0  0  0  0  0  0  0  0  0  0
   11.2546   -2.6546   -2.8373 C   0  0  2  0  0  0  0  0  0  0  0  0
    9.8480   -3.1236   -3.1699 C   0  0  1  0  0  0  0  0  0  0  0  0
    9.2890   -2.2895   -4.1787 O   0  0  0  0  0  0  0  0  0  0  0  0
   10.0998   -4.5354   -3.7374 C   0  0  2  0  0  0  0  0  0  0  0  0
   10.9415    1.0847    0.0394 C   0  0  2  0  0  0  0  0  0  0  0  0
   11.4329    0.5569   -1.2021 O   0  0  0  0  0  0  0  0  0  0  0  0
   10.7968   -0.6871   -1.5467 C   0  0  2  0  0  0  0  0  0  0  0  0
   11.3537   -1.2186   -2.7669 O   0  0  0  0  0  0  0  0  0  0  0  0
    9.2770   -0.4980   -1.6911 C   0  0  2  0  0  0  0  0  0  0  0  0
    8.9561    0.1501   -2.9495 N   0  3  0  0  0  0  0  0  0  0  0  0
    8.6538    0.2680   -0.5182 C   0  0  1  0  0  0  0  0  0  0  0  0
    8.5216   -0.6015    0.5950 O   0  0  0  0  0  0  0  0  0  0  0  0
    9.4808    1.4872   -0.1190 C   0  0  2  0  0  0  0  0  0  0  0  0
    9.3570    2.5028   -1.1078 O   0  0  0  0  0  0  0  0  0  0  0  0
   11.7864    2.2726    0.4908 C   0  0  0  0  0  0  0  0  0  0  0  0
   11.3379    2.7507    1.7851 N   0  3  0  0  0  0  0  0  0  0  0  0
    7.7764   -6.6609   -6.5704 C   0  0  1  0  0  0  0  0  0  0  0  0
    7.5764   -7.8494   -5.7770 O   0  0  0  0  0  0  0  0  0  0  0  0
    8.8041   -8.5547   -5.4823 C   0  0  2  0  0  0  0  0  0  0  0  0
    9.6851   -7.7800   -4.6317 O   0  0  0  0  0  0  0  0  0  0  0  0
    9.5118   -8.9720   -6.7771 C   0  0  2  0  0  0  0  0  0  0  0  0
   10.8344   -9.4869   -6.4750 N   0  3  0  0  0  0  0  0  0  0  0  0
    9.6384   -7.8071   -7.7526 C   0  0  1  0  0  0  0  0  0  0  0  0
   10.0783   -8.2858   -9.0142 O   0  0  0  0  0  0  0  0  0  0  0  0
    8.3428   -7.0307   -7.9315 C   0  0  2  0  0  0  0  0  0  0  0  0
    8.5724   -5.8573   -8.6978 O   0  0  0  0  0  0  0  0  0  0  0  0
    6.4428   -5.9555   -6.7998 C   0  0  0  0  0  0  0  0  0  0  0  0
    6.3004   -4.8216   -5.9050 N   0  3  0  0  0  0  0  0  0  0  0  0
    6.9647   -7.4442   -1.3781 C   0  0  2  0  0  0  0  0  0  0  0  0
    7.5608   -8.8072   -1.6699 C   0  0  0  0  0  0  0  0  0  0  0  0
    8.1654   -8.8360   -3.0615 C   0  0  1  0  0  0  0  0  0  0  0  0
    9.2990   -7.8239   -3.2330 C   0  0  2  0  0  0  0  0  0  0  0  0
    8.8611   -6.4175   -2.7628 C   0  0  1  0  0  0  0  0  0  0  0  0
    8.0281   -6.3588   -1.4755 C   0  0  1  0  0  0  0  0  0  0  0  0
    6.3894   -7.4450   -0.0466 N   0  3  0  0  0  0  0  0  0  0  0  0
    8.6339  -10.1788   -3.3440 N   0  3  0  0  0  0  0  0  0  0  0  0
    9.9897   -5.5145   -2.6647 O   0  0  0  0  0  0  0  0  0  0  0  0
    7.4191   -5.0776   -1.3536 O   0  0  0  0  0  0  0  0  0  0  0  0
  1  2  1  0  0  0  0
  3  2  1  1  0  0  0
  3  4  1  0  0  0  0
  3  5  1  0  0  0  0
  4  8  1  0  0  0  0
  5  6  1  0  0  0  0
  5 12  1  6  0  0  0
  6  7  1  6  0  0  0
  6  8  1  0  0  0  0
  8 41  1  1  0  0  0
  9 10  1  0  0  0  0
  9 17  1  0  0  0  0
  9 19  1  6  0  0  0
 10 11  1  0  0  0  0
 11 12  1  6  0  0  0
 11 13  1  0  0  0  0
 13 14  1  6  0  0  0
 13 15  1  0  0  0  0
 15 16  1  1  0  0  0
 15 17  1  0  0  0  0
 17 18  1  6  0  0  0
 19 20  1  0  0  0  0
 21 22  1  0  0  0  0
 21 29  1  0  0  0  0
 21 31  1  6  0  0  0
 22 23  1  0  0  0  0
 23 24  1  6  0  0  0
 23 25  1  0  0  0  0
 25 26  1  1  0  0  0
 25 27  1  0  0  0  0
 27 28  1  6  0  0  0
 27 29  1  0  0  0  0
 29 30  1  6  0  0  0
 31 32  1  0  0  0  0
 33 34  1  0  0  0  0
 33 38  1  0  0  0  0
 33 39  1  1  0  0  0
 34 35  1  0  0  0  0
 35 36  1  0  0  0  0
 35 40  1  1  0  0  0
 36 24  1  6  0  0  0
 36 37  1  0  0  0  0
 37 38  1  0  0  0  0
 37 41  1  1  0  0  0
 38 42  1  6  0  0  0
M  CHG  6  14   1  20   1  26   1  32   1  39   1  40   1
M  END
>  <CHROM.1>
50.90030377,178.11197366,-171.78140938,66.04444025,-130.63082548,-176.48989474
152.76479781,-160.40014413,-171.58358712,-61.06465726,-176.10857039,101.13229941
79.20585885,7.24189385,-173.84320654,60.12709238,32.61918213,63.94969043
165.25609158,87.20554688,104.39710866,63.89319487,9.48427685,-4.26087694
-3.36630562,-1.25860644,-0.95410236,-2.36579532

>  <Name>


>  <RI>
0

>  <Rbt.Current_Directory>
/home/itssahil/PROJECTS/Mol_Feturizer/New_Systems/rnas/1qd3

>  <Rbt.Executable>
rbdock ($Id: //depot/dev/client3/rdock/2013.1/src/exe/rbdock.cxx#4 $)

>  <Rbt.Library>
libRbt.so (2013.1, Build901 2013/11/27)

>  <Rbt.Parameter_File>
/export/apps/rDock/src/rDock_2013.1_src/data/scripts/dock_solv.prm

>  <Rbt.Receptor>
prm/pocket_docking_4.prm

>  <SCORE>
-39.3393

>  <SCORE.INTER>
-32.2837

>  <SCORE.INTER.CONST>
1

>  <SCORE.INTER.POLAR>
-6.81249

>  <SCORE.INTER.ROT>
9

>  <SCORE.INTER.SOLV>
33.3768

>  <SCORE.INTER.VDW>
-19.5398

>  <SCORE.INTER.norm>
-0.768659

>  <SCORE.INTRA>
-7.16854

>  <SCORE.INTRA.DIHEDRAL>
-4.35281

>  <SCORE.INTRA.DIHEDRAL.0>
40.6252

>  <SCORE.INTRA.POLAR>
0.136864

>  <SCORE.INTRA.POLAR.0>
-1.20161

>  <SCORE.INTRA.REPUL>
-0.115675

>  <SCORE.INTRA.REPUL.0>
0.115675

>  <SCORE.INTRA.SOLV>
-8.52008

>  <SCORE.INTRA.SOLV.lig_0>
-154.895

>  <SCORE.INTRA.VDW>
-0.619064

>  <SCORE.INTRA.VDW.0>
2.2925

>  <SCORE.INTRA.norm>
-0.17068

>  <SCORE.RESTR>
0.112931

>  <SCORE.RESTR.CAVITY>
0.112931

>  <SCORE.RESTR.norm>
0.00268883

>  <SCORE.SYSTEM>
0

>  <SCORE.SYSTEM.CONST>
0

>  <SCORE.SYSTEM.DIHEDRAL>
0

>  <SCORE.SYSTEM.SOLV>
0

>  <SCORE.SYSTEM.norm>
0

>  <SCORE.heavy>
42

>  <SCORE.norm>
-0.93665

>  <RMSD>
10.112

$$$$

 OpenBabel11021811413D
libRbt.so/2013.1/901 2013/11/27
 42 45  0  0  0  0  0  0  0  0999 V2000
   11.9938   -8.0205   -1.5888 O   0  0  0  0  0  0  0  0  0  0  0  0
   10.6723   -7.7117   -2.0083 C   0  0  0  0  0  0  0  0  0  0  0  0
   10.4744   -6.1954   -2.0213 C   0  0  1  0  0  0  0  0  0  0  0  0
   11.3030   -5.5663   -3.0230 O   0  0  0  0  0  0  0  0  0  0  0  0
    9.0493   -5.7756   -2.3411 C   0  0  2  0  0  0  0  0  0  0  0  0
    9.2741   -4.3350   -2.7689 C   0  0  1  0  0  0  0  0  0  0  0  0
    9.4738   -3.5180   -1.6207 O   0  0  0  0  0  0  0  0  0  0  0  0
   10.5847   -4.4344   -3.5758 C   0  0  2  0  0  0  0  0  0  0  0  0
    7.0132   -8.6524    0.8801 C   0  0  2  0  0  0  0  0  0  0  0  0
    7.2194   -7.3024    0.4368 O   0  0  0  0  0  0  0  0  0  0  0  0
    7.9546   -7.2487   -0.7990 C   0  0  2  0  0  0  0  0  0  0  0  0
    8.1946   -5.8795   -1.1854 O   0  0  0  0  0  0  0  0  0  0  0  0
    7.1990   -7.9934   -1.9130 C   0  0  2  0  0  0  0  0  0  0  0  0
    6.0885   -7.1976   -2.4028 N   0  3  0  0  0  0  0  0  0  0  0  0
    6.7154   -9.3836   -1.4837 C   0  0  1  0  0  0  0  0  0  0  0  0
    7.8068  -10.2897   -1.5066 O   0  0  0  0  0  0  0  0  0  0  0  0
    6.0886   -9.3737   -0.0921 C   0  0  2  0  0  0  0  0  0  0  0  0
    4.8219   -8.7271   -0.1347 O   0  0  0  0  0  0  0  0  0  0  0  0
    6.4378   -8.6724    2.2934 C   0  0  0  0  0  0  0  0  0  0  0  0
    6.6335   -9.9750    2.9016 N   0  3  0  0  0  0  0  0  0  0  0  0
   10.9671   -8.8144   -8.4726 C   0  0  1  0  0  0  0  0  0  0  0  0
   10.6551   -7.6464   -9.2602 O   0  0  0  0  0  0  0  0  0  0  0  0
   10.1034   -6.5604   -8.4806 C   0  0  2  0  0  0  0  0  0  0  0  0
   11.0636   -6.0277   -7.5351 O   0  0  0  0  0  0  0  0  0  0  0  0
    8.8171   -7.0026   -7.7724 C   0  0  2  0  0  0  0  0  0  0  0  0
    8.3918   -5.9807   -6.8340 N   0  3  0  0  0  0  0  0  0  0  0  0
    9.0061   -8.3194   -7.0276 C   0  0  1  0  0  0  0  0  0  0  0  0
    7.7467   -8.8068   -6.5911 O   0  0  0  0  0  0  0  0  0  0  0  0
    9.6984   -9.3865   -7.8615 C   0  0  2  0  0  0  0  0  0  0  0  0
   10.0117  -10.5147   -7.0580 O   0  0  0  0  0  0  0  0  0  0  0  0
   11.5814   -9.8936   -9.3595 C   0  0  0  0  0  0  0  0  0  0  0  0
   10.6981  -10.2143  -10.4657 N   0  3  0  0  0  0  0  0  0  0  0  0
   12.5398   -2.1170   -6.7436 C   0  0  2  0  0  0  0  0  0  0  0  0
   11.9834   -2.4019   -8.1247 C   0  0  0  0  0  0  0  0  0  0  0  0
   11.8846   -3.8978   -8.3598 C   0  0  1  0  0  0  0  0  0  0  0  0
   10.9498   -4.5902   -7.3670 C   0  0  2  0  0  0  0  0  0  0  0  0
   11.3005   -4.2005   -5.9124 C   0  0  1  0  0  0  0  0  0  0  0  0
   11.6510   -2.7267   -5.6681 C   0  0  1  0  0  0  0  0  0  0  0  0
   12.6294   -0.6827   -6.5467 N   0  3  0  0  0  0  0  0  0  0  0  0
   11.4462   -4.1329   -9.7217 N   0  3  0  0  0  0  0  0  0  0  0  0
   10.2715   -4.6257   -4.9854 O   0  0  0  0  0  0  0  0  0  0  0  0
   12.2713   -2.5836   -4.3946 O   0  0  0  0  0  0  0  0  0  0  0  0
  1  2  1  0  0  0  0
  3  2  1  6  0  0  0
  3  4  1  0  0  0  0
  3  5  1  0  0  0  0
  4  8  1  0  0  0  0
  5  6  1  0  0  0  0
  5 12  1  1  0  0  0
  6  7  1  1  0  0  0
  6  8  1  0  0  0  0
  8 41  1  6  0  0  0
  9 10  1  0  0  0  0
  9 17  1  0  0  0  0
  9 19  1  1  0  0  0
 10 11  1  0  0  0  0
 11 12  1  6  0  0  0
 11 13  1  0  0  0  0
 13 14  1  1  0  0  0
 13 15  1  0  0  0  0
 15 16  1  1  0  0  0
 15 17  1  0  0  0  0
 17 18  1  6  0  0  0
 19 20  1  0  0  0  0
 21 22  1  0  0  0  0
 21 29  1  0  0  0  0
 21 31  1  6  0  0  0
 22 23  1  0  0  0  0
 23 24  1  1  0  0  0
 23 25  1  0  0  0  0
 25 26  1  1  0  0  0
 25 27  1  0  0  0  0
 27 28  1  6  0  0  0
 27 29  1  0  0  0  0
 29 30  1  1  0  0  0
 31 32  1  0  0  0  0
 33 34  1  0  0  0  0
 33 38  1  0  0  0  0
 33 39  1  1  0  0  0
 34 35  1  0  0  0  0
 35 36  1  0  0  0  0
 35 40  1  6  0  0  0
 36 24  1  1  0  0  0
 36 37  1  0  0  0  0
 37 38  1  0  0  0  0
 37 41  1  1  0  0  0
 38 42  1  1  0  0  0
M  CHG  6  14   1  20   1  26   1  32   1  39   1  40   1
M  END
>  <CHROM.1>
-178.23492417,65.94519600,-69.37400727,-174.76800822,-87.37708526,-161.40620036
173.82294079,-73.96537674,63.27373186,-69.99190536,58.92870930,-56.10676265
143.90425317,-91.43714580,57.94718807,-71.85546220,58.57559725,-174.54278467
-170.12295224,-102.10326686,173.43809309,65.65473860,9.52250077,-6.62166361
-4.41961153,-2.65601275,-1.06026706,-2.22996981

>  <Name>


>  <RI>
0

>  <Rbt.Current_Directory>
/home/itssahil/PROJECTS/Mol_Feturizer/New_Systems/rnas/1qd3

>  <Rbt.Executable>
rbdock ($Id: //depot/dev/client3/rdock/2013.1/src/exe/rbdock.cxx#4 $)

>  <Rbt.Library>
libRbt.so (2013.1, Build901 2013/11/27)

>  <Rbt.Parameter_File>
/export/apps/rDock/src/rDock_2013.1_src/data/scripts/dock_solv.prm

>  <Rbt.Receptor>
prm/pocket_docking_7.prm

>  <SCORE>
-35.1206

>  <SCORE.INTER>
-13.5182

>  <SCORE.INTER.CONST>
1

>  <SCORE.INTER.POLAR>
-2.76089

>  <SCORE.INTER.ROT>
9

>  <SCORE.INTER.SOLV>
17.0956

>  <SCORE.INTER.VDW>
-15.1077

>  <SCORE.INTER.norm>
-0.321861

>  <SCORE.INTRA>
-21.6024

>  <SCORE.INTRA.DIHEDRAL>
-18.7315

>  <SCORE.INTRA.DIHEDRAL.0>
40.6252

>  <SCORE.INTRA.POLAR>
-0.447993

>  <SCORE.INTRA.POLAR.0>
-1.20161

>  <SCORE.INTRA.REPUL>
-0.115675

>  <SCORE.INTRA.REPUL.0>
0.115675

>  <SCORE.INTRA.SOLV>
-7.70164

>  <SCORE.INTRA.SOLV.lig_0>
-154.895

>  <SCORE.INTRA.VDW>
-6.28431

>  <SCORE.INTRA.VDW.0>
2.2925

>  <SCORE.INTRA.norm>
-0.514343

>  <SCORE.RESTR>
0

>  <SCORE.RESTR.CAVITY>
0

>  <SCORE.RESTR.norm>
0

>  <SCORE.SYSTEM>
0

>  <SCORE.SYSTEM.CONST>
0

>  <SCORE.SYSTEM.DIHEDRAL>
0

>  <SCORE.SYSTEM.SOLV>
0

>  <SCORE.SYSTEM.norm>
0

>  <SCORE.heavy>
42

>  <SCORE.norm>
-0.836204

>  <RMSD>
10.167

$$$$

 OpenBabel11021811413D
libRbt.so/2013.1/901 2013/11/27
 42 45  0  0  0  0  0  0  0  0999 V2000
   12.4055   -4.5987   -4.0391 O   0  0  0  0  0  0  0  0  0  0  0  0
   12.7192   -5.9832   -3.9890 C   0  0  0  0  0  0  0  0  0  0  0  0
   12.3009   -6.6563   -5.2968 C   0  0  1  0  0  0  0  0  0  0  0  0
   13.0304   -7.8840   -5.5122 O   0  0  0  0  0  0  0  0  0  0  0  0
   10.8303   -7.0373   -5.3359 C   0  0  2  0  0  0  0  0  0  0  0  0
   10.8422   -8.0745   -6.4463 C   0  0  1  0  0  0  0  0  0  0  0  0
   10.9174   -7.4247   -7.7105 O   0  0  0  0  0  0  0  0  0  0  0  0
   12.1549   -8.8352   -6.1692 C   0  0  2  0  0  0  0  0  0  0  0  0
    6.4416   -5.3251   -5.0418 C   0  0  2  0  0  0  0  0  0  0  0  0
    7.8403   -5.0399   -5.1958 O   0  0  0  0  0  0  0  0  0  0  0  0
    8.5910   -6.2120   -5.5610 C   0  0  2  0  0  0  0  0  0  0  0  0
    9.9976   -5.9039   -5.6504 O   0  0  0  0  0  0  0  0  0  0  0  0
    8.0844   -6.7875   -6.8946 C   0  0  2  0  0  0  0  0  0  0  0  0
    8.5588   -5.9920   -8.0120 N   0  3  0  0  0  0  0  0  0  0  0  0
    6.5586   -6.9292   -6.9456 C   0  0  1  0  0  0  0  0  0  0  0  0
    6.1673   -8.0766   -6.2086 O   0  0  0  0  0  0  0  0  0  0  0  0
    5.8447   -5.6987   -6.3926 C   0  0  2  0  0  0  0  0  0  0  0  0
    5.9739   -4.6125   -7.3026 O   0  0  0  0  0  0  0  0  0  0  0  0
    5.7121   -4.1286   -4.4377 C   0  0  0  0  0  0  0  0  0  0  0  0
    4.4663   -4.5511   -3.8258 N   0  3  0  0  0  0  0  0  0  0  0  0
    6.5870   -9.7818   -3.1908 C   0  0  1  0  0  0  0  0  0  0  0  0
    7.6426   -8.9559   -3.7253 O   0  0  0  0  0  0  0  0  0  0  0  0
    8.9655   -9.4826   -3.4726 C   0  0  2  0  0  0  0  0  0  0  0  0
    9.1938  -10.7342   -4.1661 O   0  0  0  0  0  0  0  0  0  0  0  0
    9.2086   -9.6330   -1.9660 C   0  0  2  0  0  0  0  0  0  0  0  0
   10.4465  -10.3538   -1.7334 N   0  3  0  0  0  0  0  0  0  0  0  0
    8.0636  -10.3693   -1.2796 C   0  0  1  0  0  0  0  0  0  0  0  0
    8.2130  -10.2786    0.1288 O   0  0  0  0  0  0  0  0  0  0  0  0
    6.6911   -9.8471   -1.6758 C   0  0  2  0  0  0  0  0  0  0  0  0
    5.6733  -10.6888   -1.1543 O   0  0  0  0  0  0  0  0  0  0  0  0
    5.2277   -9.1804   -3.5361 C   0  0  0  0  0  0  0  0  0  0  0  0
    5.1636   -7.7882   -3.1308 N   0  3  0  0  0  0  0  0  0  0  0  0
   10.2218  -12.0346   -8.0843 C   0  0  2  0  0  0  0  0  0  0  0  0
    8.8480  -11.4297   -7.8725 C   0  0  0  0  0  0  0  0  0  0  0  0
    8.5022  -11.4002   -6.3952 C   0  0  1  0  0  0  0  0  0  0  0  0
    9.4775  -10.5517   -5.5781 C   0  0  2  0  0  0  0  0  0  0  0  0
   10.9416  -10.9492   -5.8771 C   0  0  1  0  0  0  0  0  0  0  0  0
   11.2841  -11.2313   -7.3459 C   0  0  1  0  0  0  0  0  0  0  0  0
   10.5253  -12.0563   -9.5025 N   0  3  0  0  0  0  0  0  0  0  0  0
    7.1462  -10.9112   -6.2383 N   0  3  0  0  0  0  0  0  0  0  0  0
   11.8762   -9.9894   -5.3256 O   0  0  0  0  0  0  0  0  0  0  0  0
   12.5370  -11.9025   -7.4283 O   0  0  0  0  0  0  0  0  0  0  0  0
  1  2  1  0  0  0  0
  3  2  1  1  0  0  0
  3  4  1  0  0  0  0
  3  5  1  0  0  0  0
  4  8  1  0  0  0  0
  5  6  1  0  0  0  0
  5 12  1  6  0  0  0
  6  7  1  6  0  0  0
  6  8  1  0  0  0  0
  8 41  1  1  0  0  0
  9 10  1  0  0  0  0
  9 17  1  0  0  0  0
  9 19  1  6  0  0  0
 10 11  1  0  0  0  0
 11 12  1  6  0  0  0
 11 13  1  0  0  0  0
 13 14  1  6  0  0  0
 13 15  1  0  0  0  0
 15 16  1  1  0  0  0
 15 17  1  0  0  0  0
 17 18  1  6  0  0  0
 19 20  1  0  0  0  0
 21 22  1  0  0  0  0
 21 29  1  0  0  0  0
 21 31  1  1  0  0  0
 22 23  1  0  0  0  0
 23 24  1  6  0  0  0
 23 25  1  0  0  0  0
 25 26  1  6  0  0  0
 25 27  1  0  0  0  0
 27 28  1  1  0  0  0
 27 29  1  0  0  0  0
 29 30  1  6  0  0  0
 31 32  1  0  0  0  0
 33 34  1  0  0  0  0
 33 38  1  0  0  0  0
 33 39  1  6  0  0  0
 34 35  1  0  0  0  0
 35 36  1  0  0  0  0
 35 40  1  6  0  0  0
 36 24  1  1  0  0  0
 36 37  1  0  0  0  0
 37 38  1  0  0  0  0
 37 41  1  6  0  0  0
 38 42  1  1  0  0  0
M  CHG  6  14   1  20   1  26   1  32   1  39   1  40   1
M  END
>  <CHROM.1>
62.47517937,157.83268696,-174.17073288,177.74843377,176.35673276,-158.61084406
150.42629444,73.92445194,54.39061967,-67.62566761,-162.97729838,-52.53387717
77.67898934,-125.67865086,58.09753624,59.36392328,-172.48600868,-77.11107657
178.05569046,-74.44385015,-85.38820293,64.66579435,8.83487740,-8.43396210
-5.10003721,-0.27702418,0.66692150,-0.51729964

>  <Name>


>  <RI>
0

>  <Rbt.Current_Directory>
/home/itssahil/PROJECTS/Mol_Feturizer/New_Systems/rnas/1qd3

>  <Rbt.Executable>
rbdock ($Id: //depot/dev/client3/rdock/2013.1/src/exe/rbdock.cxx#4 $)

>  <Rbt.Library>
libRbt.so (2013.1, Build901 2013/11/27)

>  <Rbt.Parameter_File>
/export/apps/rDock/src/rDock_2013.1_src/data/scripts/dock_solv.prm

>  <Rbt.Receptor>
prm/pocket_docking_6.prm

>  <SCORE>
-54.3365

>  <SCORE.INTER>
-28.8235

>  <SCORE.INTER.CONST>
1

>  <SCORE.INTER.POLAR>
-7.00177

>  <SCORE.INTER.ROT>
9

>  <SCORE.INTER.SOLV>
22.2022

>  <SCORE.INTER.VDW>
-12.8771

>  <SCORE.INTER.norm>
-0.686273

>  <SCORE.INTRA>
-25.513

>  <SCORE.INTRA.DIHEDRAL>
-16.4816

>  <SCORE.INTRA.DIHEDRAL.0>
40.6252

>  <SCORE.INTRA.POLAR>
-1.92821

>  <SCORE.INTRA.POLAR.0>
-1.20161

>  <SCORE.INTRA.REPUL>
-0.115675

>  <SCORE.INTRA.REPUL.0>
0.115675

>  <SCORE.INTRA.SOLV>
3.87541

>  <SCORE.INTRA.SOLV.lig_0>
-154.895

>  <SCORE.INTRA.VDW>
-12.0756

>  <SCORE.INTRA.VDW.0>
2.2925

>  <SCORE.INTRA.norm>
-0.607453

>  <SCORE.RESTR>
0

>  <SCORE.RESTR.CAVITY>
0

>  <SCORE.RESTR.norm>
0

>  <SCORE.SYSTEM>
0

>  <SCORE.SYSTEM.CONST>
0

>  <SCORE.SYSTEM.DIHEDRAL>
0

>  <SCORE.SYSTEM.SOLV>
0

>  <SCORE.SYSTEM.norm>
0

>  <SCORE.heavy>
42

>  <SCORE.norm>
-1.29373

>  <RMSD>
10.243

$$$$

 OpenBabel11021811413D
libRbt.so/2013.1/901 2013/11/27
 42 45  0  0  0  0  0  0  0  0999 V2000
   12.0072   -7.0612   -4.2300 O   0  0  0  0  0  0  0  0  0  0  0  0
   11.6414   -6.3520   -5.4052 C   0  0  0  0  0  0  0  0  0  0  0  0
   10.1203   -6.2105   -5.4720 C   0  0  1  0  0  0  0  0  0  0  0  0
    9.4608   -7.4154   -5.0258 O   0  0  0  0  0  0  0  0  0  0  0  0
    9.5789   -5.0941   -4.5945 C   0  0  2  0  0  0  0  0  0  0  0  0
    8.1241   -5.5161   -4.4753 C   0  0  1  0  0  0  0  0  0  0  0  0
    7.4286   -5.1884   -5.6731 O   0  0  0  0  0  0  0  0  0  0  0  0
    8.2382   -7.0480   -4.3379 C   0  0  2  0  0  0  0  0  0  0  0  0
    8.4117   -1.9886   -2.3403 C   0  0  2  0  0  0  0  0  0  0  0  0
    8.6382   -3.0731   -3.2536 O   0  0  0  0  0  0  0  0  0  0  0  0
    9.5684   -2.7162   -4.2919 C   0  0  2  0  0  0  0  0  0  0  0  0
    9.7286   -3.8061   -5.2235 O   0  0  0  0  0  0  0  0  0  0  0  0
   10.9287   -2.3233   -3.6904 C   0  0  2  0  0  0  0  0  0  0  0  0
   11.6663   -3.5012   -3.2723 N   0  3  0  0  0  0  0  0  0  0  0  0
   10.8068   -1.3266   -2.5318 C   0  0  1  0  0  0  0  0  0  0  0  0
   10.5697   -0.0277   -3.0511 O   0  0  0  0  0  0  0  0  0  0  0  0
    9.6893   -1.7010   -1.5620 C   0  0  2  0  0  0  0  0  0  0  0  0
   10.0679   -2.8431   -0.8025 O   0  0  0  0  0  0  0  0  0  0  0  0
    7.2604   -2.3146   -1.3932 C   0  0  0  0  0  0  0  0  0  0  0  0
    6.0165   -1.7665   -1.9005 N   0  3  0  0  0  0  0  0  0  0  0  0
    3.7901   -8.3213   -6.4339 C   0  0  1  0  0  0  0  0  0  0  0  0
    3.9521   -9.3898   -5.4778 O   0  0  0  0  0  0  0  0  0  0  0  0
    5.3130   -9.5401   -5.0121 C   0  0  2  0  0  0  0  0  0  0  0  0
    5.7550   -8.3924   -4.2459 O   0  0  0  0  0  0  0  0  0  0  0  0
    6.2587   -9.8181   -6.1868 C   0  0  2  0  0  0  0  0  0  0  0  0
    7.6373   -9.7570   -5.7382 N   0  3  0  0  0  0  0  0  0  0  0  0
    6.0568   -8.8215   -7.3228 C   0  0  1  0  0  0  0  0  0  0  0  0
    6.7734   -9.2522   -8.4696 O   0  0  0  0  0  0  0  0  0  0  0  0
    4.5948   -8.6169   -7.6890 C   0  0  2  0  0  0  0  0  0  0  0  0
    4.4627   -7.5479   -8.6144 O   0  0  0  0  0  0  0  0  0  0  0  0
    2.3242   -8.2025   -6.8410 C   0  0  0  0  0  0  0  0  0  0  0  0
    1.8835   -9.4010   -7.5311 N   0  3  0  0  0  0  0  0  0  0  0  0
    5.8982   -8.0034   -0.0117 C   0  0  2  0  0  0  0  0  0  0  0  0
    5.3217   -9.2805   -0.5902 C   0  0  0  0  0  0  0  0  0  0  0  0
    4.9769   -9.0919   -2.0559 C   0  0  1  0  0  0  0  0  0  0  0  0
    6.1979   -8.7449   -2.9090 C   0  0  2  0  0  0  0  0  0  0  0  0
    6.9901   -7.5704   -2.2895 C   0  0  1  0  0  0  0  0  0  0  0  0
    7.1560   -7.5906   -0.7642 C   0  0  1  0  0  0  0  0  0  0  0  0
    6.2135   -8.2082    1.3892 N   0  3  0  0  0  0  0  0  0  0  0  0
    4.3368  -10.2962   -2.5482 N   0  3  0  0  0  0  0  0  0  0  0  0
    8.2808   -7.4052   -2.9265 O   0  0  0  0  0  0  0  0  0  0  0  0
    7.5898   -6.3129   -0.3098 O   0  0  0  0  0  0  0  0  0  0  0  0
  1  2  1  0  0  0  0
  3  2  1  1  0  0  0
  3  4  1  0  0  0  0
  3  5  1  0  0  0  0
  4  8  1  0  0  0  0
  5  6  1  0  0  0  0
  5 12  1  6  0  0  0
  6  7  1  6  0  0  0
  6  8  1  0  0  0  0
  8 41  1  1  0  0  0
  9 10  1  0  0  0  0
  9 17  1  0  0  0  0
  9 19  1  1  0  0  0
 10 11  1  0  0  0  0
 11 12  1  6  0  0  0
 11 13  1  0  0  0  0
 13 14  1  1  0  0  0
 13 15  1  0  0  0  0
 15 16  1  6  0  0  0
 15 17  1  0  0  0  0
 17 18  1  6  0  0  0
 19 20  1  0  0  0  0
 21 22  1  0  0  0  0
 21 29  1  0  0  0  0
 21 31  1  6  0  0  0
 22 23  1  0  0  0  0
 23 24  1  6  0  0  0
 23 25  1  0  0  0  0
 25 26  1  1  0  0  0
 25 27  1  0  0  0  0
 27 28  1  6  0  0  0
 27 29  1  0  0  0  0
 29 30  1  6  0  0  0
 31 32  1  0  0  0  0
 33 34  1  0  0  0  0
 33 38  1  0  0  0  0
 33 39  1  1  0  0  0
 34 35  1  0  0  0  0
 35 36  1  0  0  0  0
 35 40  1  6  0  0  0
 36 24  1  6  0  0  0
 36 37  1  0  0  0  0
 37 38  1  0  0  0  0
 37 41  1  6  0  0  0
 38 42  1  1  0  0  0
M  CHG  6  14   1  20   1  26   1  32   1  39   1  40   1
M  END
>  <CHROM.1>
-59.86261520,-39.37248554,-164.19767597,-42.28058566,-156.86943441,-94.90850177
-31.58465653,-177.11008237,-178.12600709,-165.05528389,-61.01384461,-64.12227818
122.84595829,-73.03053574,163.71049541,-66.93987774,-177.42118163,-179.72260322
141.86443363,61.49558189,63.59093536,-34.63556910,7.42615784,-6.35086357
-3.93539959,-0.48533973,-0.83941966,-1.74285871

>  <Name>


>  <RI>
0

>  <Rbt.Current_Directory>
/home/itssahil/PROJECTS/Mol_Feturizer/New_Systems/rnas/1qd3

>  <Rbt.Executable>
rbdock ($Id: //depot/dev/client3/rdock/2013.1/src/exe/rbdock.cxx#4 $)

>  <Rbt.Library>
libRbt.so (2013.1, Build901 2013/11/27)

>  <Rbt.Parameter_File>
/export/apps/rDock/src/rDock_2013.1_src/data/scripts/dock_solv.prm

>  <Rbt.Receptor>
prm/pocket_docking_6.prm

>  <SCORE>
-46.3231

>  <SCORE.INTER>
-30.1658

>  <SCORE.INTER.CONST>
1

>  <SCORE.INTER.POLAR>
-5.26099

>  <SCORE.INTER.ROT>
9

>  <SCORE.INTER.SOLV>
25.1399

>  <SCORE.INTER.VDW>
-20.5539

>  <SCORE.INTER.norm>
-0.718234

>  <SCORE.INTRA>
-16.1573

>  <SCORE.INTRA.DIHEDRAL>
-10.6647

>  <SCORE.INTRA.DIHEDRAL.0>
40.6252

>  <SCORE.INTRA.POLAR>
-0.744391

>  <SCORE.INTRA.POLAR.0>
-1.20161

>  <SCORE.INTRA.REPUL>
0.0110967

>  <SCORE.INTRA.REPUL.0>
0.115675

>  <SCORE.INTRA.SOLV>
-4.67085

>  <SCORE.INTRA.SOLV.lig_0>
-154.895

>  <SCORE.INTRA.VDW>
-6.01412

>  <SCORE.INTRA.VDW.0>
2.2925

>  <SCORE.INTRA.norm>
-0.384698

>  <SCORE.RESTR>
0

>  <SCORE.RESTR.CAVITY>
0

>  <SCORE.RESTR.norm>
0

>  <SCORE.SYSTEM>
0

>  <SCORE.SYSTEM.CONST>
0

>  <SCORE.SYSTEM.DIHEDRAL>
0

>  <SCORE.SYSTEM.SOLV>
0

>  <SCORE.SYSTEM.norm>
0

>  <SCORE.heavy>
42

>  <SCORE.norm>
-1.10293

>  <RMSD>
10.282

$$$$

 OpenBabel11021811413D
libRbt.so/2013.1/901 2013/11/27
 42 45  0  0  0  0  0  0  0  0999 V2000
   13.2237   -9.5911   -3.9172 O   0  0  0  0  0  0  0  0  0  0  0  0
   12.8458   -8.9022   -2.7338 C   0  0  0  0  0  0  0  0  0  0  0  0
   12.6395   -7.4187   -3.0420 C   0  0  1  0  0  0  0  0  0  0  0  0
   11.6456   -7.2298   -4.0726 O   0  0  0  0  0  0  0  0  0  0  0  0
   12.1529   -6.6161   -1.8468 C   0  0  2  0  0  0  0  0  0  0  0  0
   11.5809   -5.3951   -2.5472 C   0  0  1  0  0  0  0  0  0  0  0  0
   12.6390   -4.5339   -2.9531 O   0  0  0  0  0  0  0  0  0  0  0  0
   10.9056   -6.0158   -3.7871 C   0  0  2  0  0  0  0  0  0  0  0  0
   11.3466   -5.8400    2.1398 C   0  0  2  0  0  0  0  0  0  0  0  0
   11.8658   -6.4814    0.9649 O   0  0  0  0  0  0  0  0  0  0  0  0
   12.7787   -5.6315    0.2473 C   0  0  2  0  0  0  0  0  0  0  0  0
   13.2359   -6.2828   -0.9562 O   0  0  0  0  0  0  0  0  0  0  0  0
   13.9754   -5.2484    1.1348 C   0  0  2  0  0  0  0  0  0  0  0  0
   14.9084   -6.3544    1.2466 N   0  3  0  0  0  0  0  0  0  0  0  0
   13.5573   -4.7557    2.5252 C   0  0  1  0  0  0  0  0  0  0  0  0
   13.0946   -3.4178    2.4313 O   0  0  0  0  0  0  0  0  0  0  0  0
   12.4709   -5.6297    3.1460 C   0  0  2  0  0  0  0  0  0  0  0  0
   13.0199   -6.8831    3.5361 O   0  0  0  0  0  0  0  0  0  0  0  0
   10.2188   -6.6671    2.7503 C   0  0  0  0  0  0  0  0  0  0  0  0
    9.2255   -5.8003    3.3560 N   0  3  0  0  0  0  0  0  0  0  0  0
    6.3029   -8.3263   -6.5454 C   0  0  1  0  0  0  0  0  0  0  0  0
    7.4549   -8.2035   -5.6852 O   0  0  0  0  0  0  0  0  0  0  0  0
    8.3096   -7.0884   -6.0282 C   0  0  2  0  0  0  0  0  0  0  0  0
    7.6512   -5.8146   -5.8190 O   0  0  0  0  0  0  0  0  0  0  0  0
    8.8158   -7.2189   -7.4699 C   0  0  2  0  0  0  0  0  0  0  0  0
    9.4936   -5.9996   -7.8692 N   0  3  0  0  0  0  0  0  0  0  0  0
    7.6783   -7.5022   -8.4447 C   0  0  1  0  0  0  0  0  0  0  0  0
    8.2113   -7.8474   -9.7139 O   0  0  0  0  0  0  0  0  0  0  0  0
    6.7442   -8.6058   -7.9727 C   0  0  2  0  0  0  0  0  0  0  0  0
    5.6109   -8.6909   -8.8242 O   0  0  0  0  0  0  0  0  0  0  0  0
    5.4345   -9.4962   -6.0915 C   0  0  0  0  0  0  0  0  0  0  0  0
    6.2097  -10.7222   -6.0404 N   0  3  0  0  0  0  0  0  0  0  0  0
    7.2787   -3.4275   -2.3172 C   0  0  2  0  0  0  0  0  0  0  0  0
    6.0147   -4.0056   -2.9225 C   0  0  0  0  0  0  0  0  0  0  0  0
    6.2703   -4.4693   -4.3447 C   0  0  1  0  0  0  0  0  0  0  0  0
    7.3292   -5.5698   -4.4248 C   0  0  2  0  0  0  0  0  0  0  0  0
    8.6063   -5.1664   -3.6520 C   0  0  1  0  0  0  0  0  0  0  0  0
    8.3933   -4.4649   -2.3041 C   0  0  1  0  0  0  0  0  0  0  0  0
    7.0064   -2.9873   -0.9622 N   0  3  0  0  0  0  0  0  0  0  0  0
    5.0207   -4.9211   -4.9248 N   0  3  0  0  0  0  0  0  0  0  0  0
    9.5064   -6.2899   -3.4894 O   0  0  0  0  0  0  0  0  0  0  0  0
    9.6091   -3.8578   -1.8793 O   0  0  0  0  0  0  0  0  0  0  0  0
  1  2  1  0  0  0  0
  3  2  1  1  0  0  0
  3  4  1  0  0  0  0
  3  5  1  0  0  0  0
  4  8  1  0  0  0  0
  5  6  1  0  0  0  0
  5 12  1  1  0  0  0
  6  7  1  6  0  0  0
  6  8  1  0  0  0  0
  8 41  1  1  0  0  0
  9 10  1  0  0  0  0
  9 17  1  0  0  0  0
  9 19  1  1  0  0  0
 10 11  1  0  0  0  0
 11 12  1  6  0  0  0
 11 13  1  0  0  0  0
 13 14  1  1  0  0  0
 13 15  1  0  0  0  0
 15 16  1  6  0  0  0
 15 17  1  0  0  0  0
 17 18  1  6  0  0  0
 19 20  1  0  0  0  0
 21 22  1  0  0  0  0
 21 29  1  0  0  0  0
 21 31  1  1  0  0  0
 22 23  1  0  0  0  0
 23 24  1  6  0  0  0
 23 25  1  0  0  0  0
 25 26  1  6  0  0  0
 25 27  1  0  0  0  0
 27 28  1  6  0  0  0
 27 29  1  0  0  0  0
 29 30  1  6  0  0  0
 31 32  1  0  0  0  0
 33 34  1  0  0  0  0
 33 38  1  0  0  0  0
 33 39  1  1  0  0  0
 34 35  1  0  0  0  0
 35 36  1  0  0  0  0
 35 40  1  1  0  0  0
 36 24  1  6  0  0  0
 36 37  1  0  0  0  0
 37 38  1  0  0  0  0
 37 41  1  1  0  0  0
 38 42  1  6  0  0  0
M  CHG  6  14   1  20   1  26   1  32   1  39   1  40   1
M  END
>  <CHROM.1>
-56.87991490,57.49259095,-174.49762567,-67.80843135,-159.32337909,-146.71286610
59.53291866,-66.60418233,-61.40704136,-173.51104430,173.71677061,-55.57579600
64.02714663,-161.92046955,-169.40846499,-66.99005005,-173.66791224,-173.47343450
174.32863327,80.71319385,133.93273648,-60.43801101,9.77803980,-6.32989598
-2.86143968,-0.95337932,0.41572988,-2.07078932

>  <Name>


>  <RI>
0

>  <Rbt.Current_Directory>
/home/itssahil/PROJECTS/Mol_Feturizer/New_Systems/rnas/1qd3

>  <Rbt.Executable>
rbdock ($Id: //depot/dev/client3/rdock/2013.1/src/exe/rbdock.cxx#4 $)

>  <Rbt.Library>
libRbt.so (2013.1, Build901 2013/11/27)

>  <Rbt.Parameter_File>
/export/apps/rDock/src/rDock_2013.1_src/data/scripts/dock_solv.prm

>  <Rbt.Receptor>
prm/pocket_docking_8.prm

>  <SCORE>
-50.262

>  <SCORE.INTER>
-26.6781

>  <SCORE.INTER.CONST>
1

>  <SCORE.INTER.POLAR>
-6.29444

>  <SCORE.INTER.ROT>
9

>  <SCORE.INTER.SOLV>
26.6814

>  <SCORE.INTER.VDW>
-15.2977

>  <SCORE.INTER.norm>
-0.635192

>  <SCORE.INTRA>
-23.5839

>  <SCORE.INTRA.DIHEDRAL>
-23.9433

>  <SCORE.INTRA.DIHEDRAL.0>
40.6252

>  <SCORE.INTRA.POLAR>
0.999525

>  <SCORE.INTRA.POLAR.0>
-1.20161

>  <SCORE.INTRA.REPUL>
-0.115675

>  <SCORE.INTRA.REPUL.0>
0.115675

>  <SCORE.INTRA.SOLV>
-13.5487

>  <SCORE.INTRA.SOLV.lig_0>
-154.895

>  <SCORE.INTRA.VDW>
-7.65794

>  <SCORE.INTRA.VDW.0>
2.2925

>  <SCORE.INTRA.norm>
-0.561522

>  <SCORE.RESTR>
0

>  <SCORE.RESTR.CAVITY>
0

>  <SCORE.RESTR.norm>
0

>  <SCORE.SYSTEM>
0

>  <SCORE.SYSTEM.CONST>
0

>  <SCORE.SYSTEM.DIHEDRAL>
0

>  <SCORE.SYSTEM.SOLV>
0

>  <SCORE.SYSTEM.norm>
0

>  <SCORE.heavy>
42

>  <SCORE.norm>
-1.19671

>  <RMSD>
10.293

$$$$

 OpenBabel11021811413D
libRbt.so/2013.1/901 2013/11/27
 42 45  0  0  0  0  0  0  0  0999 V2000
    7.5265   -0.1151    0.3011 O   0  0  0  0  0  0  0  0  0  0  0  0
    7.6458   -0.5956   -1.0303 C   0  0  0  0  0  0  0  0  0  0  0  0
    8.5839   -1.8028   -1.0629 C   0  0  1  0  0  0  0  0  0  0  0  0
    8.0189   -2.8861   -1.8329 O   0  0  0  0  0  0  0  0  0  0  0  0
    9.9313   -1.5030   -1.6985 C   0  0  2  0  0  0  0  0  0  0  0  0
   10.3969   -2.9092   -2.0372 C   0  0  1  0  0  0  0  0  0  0  0  0
   10.8671   -3.5567   -0.8600 O   0  0  0  0  0  0  0  0  0  0  0  0
    9.0932   -3.5783   -2.5182 C   0  0  2  0  0  0  0  0  0  0  0  0
    9.6887    2.5180    0.1297 C   0  0  2  0  0  0  0  0  0  0  0  0
    9.8640    1.0950    0.2070 O   0  0  0  0  0  0  0  0  0  0  0  0
   10.7080    0.5993   -0.8478 C   0  0  2  0  0  0  0  0  0  0  0  0
   10.8160   -0.8377   -0.7756 O   0  0  0  0  0  0  0  0  0  0  0  0
   12.1028    1.2441   -0.7756 C   0  0  2  0  0  0  0  0  0  0  0  0
   12.8889    0.6522    0.2912 N   0  3  0  0  0  0  0  0  0  0  0  0
   12.0514    2.7688   -0.6226 C   0  0  1  0  0  0  0  0  0  0  0  0
   11.7547    3.3583   -1.8785 O   0  0  0  0  0  0  0  0  0  0  0  0
   11.0160    3.2121    0.4074 C   0  0  2  0  0  0  0  0  0  0  0  0
   11.4691    2.8960    1.7186 O   0  0  0  0  0  0  0  0  0  0  0  0
    8.6170    2.9820    1.1120 C   0  0  0  0  0  0  0  0  0  0  0  0
    8.3480    4.3969    0.9372 N   0  3  0  0  0  0  0  0  0  0  0  0
   11.7394   -7.5950   -6.5415 C   0  0  1  0  0  0  0  0  0  0  0  0
   11.4490   -7.2241   -5.1776 O   0  0  0  0  0  0  0  0  0  0  0  0
   10.8316   -5.9219   -5.0572 C   0  0  2  0  0  0  0  0  0  0  0  0
    9.5128   -5.8882   -5.6567 O   0  0  0  0  0  0  0  0  0  0  0  0
   11.7374   -4.8372   -5.6527 C   0  0  2  0  0  0  0  0  0  0  0  0
   11.0230   -3.5757   -5.7174 N   0  3  0  0  0  0  0  0  0  0  0  0
   12.2229   -5.2102   -7.0490 C   0  0  1  0  0  0  0  0  0  0  0  0
   13.2343   -4.3041   -7.4614 O   0  0  0  0  0  0  0  0  0  0  0  0
   12.7528   -6.6330   -7.1399 C   0  0  2  0  0  0  0  0  0  0  0  0
   13.0106   -6.9781   -8.4931 O   0  0  0  0  0  0  0  0  0  0  0  0
   12.3476   -8.9939   -6.5841 C   0  0  0  0  0  0  0  0  0  0  0  0
   13.4237   -9.1163   -5.6177 N   0  3  0  0  0  0  0  0  0  0  0  0
    5.5489   -5.0430   -4.3634 C   0  0  2  0  0  0  0  0  0  0  0  0
    6.0590   -6.4627   -4.2140 C   0  0  0  0  0  0  0  0  0  0  0  0
    7.2937   -6.6767   -5.0698 C   0  0  1  0  0  0  0  0  0  0  0  0
    8.4514   -5.7588   -4.6748 C   0  0  2  0  0  0  0  0  0  0  0  0
    7.9867   -4.2864   -4.5920 C   0  0  1  0  0  0  0  0  0  0  0  0
    6.6164   -4.0401   -3.9471 C   0  0  1  0  0  0  0  0  0  0  0  0
    4.3671   -4.8666   -3.5410 N   0  3  0  0  0  0  0  0  0  0  0  0
    7.6931   -8.0678   -4.9813 N   0  3  0  0  0  0  0  0  0  0  0  0
    8.9878   -3.4476   -3.9650 O   0  0  0  0  0  0  0  0  0  0  0  0
    6.1753   -2.7190   -4.2423 O   0  0  0  0  0  0  0  0  0  0  0  0
  1  2  1  0  0  0  0
  3  2  1  6  0  0  0
  3  4  1  0  0  0  0
  3  5  1  0  0  0  0
  4  8  1  0  0  0  0
  5  6  1  0  0  0  0
  5 12  1  1  0  0  0
  6  7  1  1  0  0  0
  6  8  1  0  0  0  0
  8 41  1  6  0  0  0
  9 10  1  0  0  0  0
  9 17  1  0  0  0  0
  9 19  1  1  0  0  0
 10 11  1  0  0  0  0
 11 12  1  1  0  0  0
 11 13  1  0  0  0  0
 13 14  1  1  0  0  0
 13 15  1  0  0  0  0
 15 16  1  6  0  0  0
 15 17  1  0  0  0  0
 17 18  1  1  0  0  0
 19 20  1  0  0  0  0
 21 22  1  0  0  0  0
 21 29  1  0  0  0  0
 21 31  1  1  0  0  0
 22 23  1  0  0  0  0
 23 24  1  6  0  0  0
 23 25  1  0  0  0  0
 25 26  1  6  0  0  0
 25 27  1  0  0  0  0
 27 28  1  1  0  0  0
 27 29  1  0  0  0  0
 29 30  1  6  0  0  0
 31 32  1  0  0  0  0
 33 34  1  0  0  0  0
 33 38  1  0  0  0  0
 33 39  1  1  0  0  0
 34 35  1  0  0  0  0
 35 36  1  0  0  0  0
 35 40  1  1  0  0  0
 36 24  1  6  0  0  0
 36 37  1  0  0  0  0
 37 38  1  0  0  0  0
 37 41  1  1  0  0  0
 38 42  1  6  0  0  0
M  CHG  6  14   1  20   1  26   1  32   1  39   1  40   1
M  END
>  <CHROM.1>
66.57907911,132.97895523,-90.71558752,60.70466746,-76.86389225,-174.29934412
98.95292527,131.06497951,65.19476292,-172.19694908,67.49590076,-48.72416878
110.79095736,-138.79300509,-171.54506650,65.32583163,64.23738994,68.28386092
68.38488566,-43.63320852,-75.45797744,66.45282125,9.86675300,-2.82827688
-3.08730861,1.61072298,0.20843250,0.60138815

>  <Name>


>  <RI>
0

>  <Rbt.Current_Directory>
/home/itssahil/PROJECTS/Mol_Feturizer/New_Systems/rnas/1qd3

>  <Rbt.Executable>
rbdock ($Id: //depot/dev/client3/rdock/2013.1/src/exe/rbdock.cxx#4 $)

>  <Rbt.Library>
libRbt.so (2013.1, Build901 2013/11/27)

>  <Rbt.Parameter_File>
/export/apps/rDock/src/rDock_2013.1_src/data/scripts/dock_solv.prm

>  <Rbt.Receptor>
prm/pocket_docking_4.prm

>  <SCORE>
-51.5626

>  <SCORE.INTER>
-35.4113

>  <SCORE.INTER.CONST>
1

>  <SCORE.INTER.POLAR>
-8.28617

>  <SCORE.INTER.ROT>
9

>  <SCORE.INTER.SOLV>
34.6332

>  <SCORE.INTER.VDW>
-17.1314

>  <SCORE.INTER.norm>
-0.843126

>  <SCORE.INTRA>
-16.4683

>  <SCORE.INTRA.DIHEDRAL>
-4.64726

>  <SCORE.INTRA.DIHEDRAL.0>
40.6252

>  <SCORE.INTRA.POLAR>
-0.280392

>  <SCORE.INTRA.POLAR.0>
-1.20161

>  <SCORE.INTRA.REPUL>
-0.115675

>  <SCORE.INTRA.REPUL.0>
0.115675

>  <SCORE.INTRA.SOLV>
-8.428

>  <SCORE.INTRA.SOLV.lig_0>
-154.895

>  <SCORE.INTRA.VDW>
-8.39898

>  <SCORE.INTRA.VDW.0>
2.2925

>  <SCORE.INTRA.norm>
-0.392103

>  <SCORE.RESTR>
0.316999

>  <SCORE.RESTR.CAVITY>
0.316999

>  <SCORE.RESTR.norm>
0.0075476

>  <SCORE.SYSTEM>
0

>  <SCORE.SYSTEM.CONST>
0

>  <SCORE.SYSTEM.DIHEDRAL>
0

>  <SCORE.SYSTEM.SOLV>
0

>  <SCORE.SYSTEM.norm>
0

>  <SCORE.heavy>
42

>  <SCORE.norm>
-1.22768

>  <RMSD>
10.327

$$$$

 OpenBabel11021811413D
libRbt.so/2013.1/901 2013/11/27
 42 45  0  0  0  0  0  0  0  0999 V2000
   12.7103   -2.0614   -5.0477 O   0  0  0  0  0  0  0  0  0  0  0  0
   12.4685   -2.8899   -6.1759 C   0  0  0  0  0  0  0  0  0  0  0  0
   11.0567   -3.4723   -6.0973 C   0  0  1  0  0  0  0  0  0  0  0  0
   10.6995   -4.1501   -7.3215 O   0  0  0  0  0  0  0  0  0  0  0  0
   10.8891   -4.5011   -4.9915 C   0  0  2  0  0  0  0  0  0  0  0  0
    9.6401   -5.2217   -5.4705 C   0  0  1  0  0  0  0  0  0  0  0  0
    8.4907   -4.4311   -5.1883 O   0  0  0  0  0  0  0  0  0  0  0  0
    9.8670   -5.2915   -6.9944 C   0  0  2  0  0  0  0  0  0  0  0  0
   12.5243   -6.0296   -1.3865 C   0  0  2  0  0  0  0  0  0  0  0  0
   12.2989   -5.0730   -2.4332 O   0  0  0  0  0  0  0  0  0  0  0  0
   10.8990   -4.7917   -2.6120 C   0  0  2  0  0  0  0  0  0  0  0  0
   10.7040   -3.8732   -3.7075 O   0  0  0  0  0  0  0  0  0  0  0  0
   10.2911   -4.2190   -1.3202 C   0  0  2  0  0  0  0  0  0  0  0  0
   10.6686   -2.8285   -1.1458 N   0  3  0  0  0  0  0  0  0  0  0  0
   10.6542   -5.0345   -0.0736 C   0  0  1  0  0  0  0  0  0  0  0  0
    9.8542   -6.2053   -0.0274 O   0  0  0  0  0  0  0  0  0  0  0  0
   12.1301   -5.4226   -0.0461 C   0  0  2  0  0  0  0  0  0  0  0  0
   12.9284   -4.2768    0.2265 O   0  0  0  0  0  0  0  0  0  0  0  0
   13.9832   -6.4773   -1.3721 C   0  0  0  0  0  0  0  0  0  0  0  0
   14.8579   -5.3460   -1.1278 N   0  3  0  0  0  0  0  0  0  0  0  0
    6.3320   -7.2279   -6.4542 C   0  0  1  0  0  0  0  0  0  0  0  0
    7.7507   -7.1524   -6.2015 O   0  0  0  0  0  0  0  0  0  0  0  0
    8.4585   -8.3668   -6.5416 C   0  0  2  0  0  0  0  0  0  0  0  0
    8.4288   -8.6324   -7.9658 O   0  0  0  0  0  0  0  0  0  0  0  0
    7.9056   -9.5555   -5.7459 C   0  0  2  0  0  0  0  0  0  0  0  0
    8.4744  -10.7935   -6.2454 N   0  3  0  0  0  0  0  0  0  0  0  0
    6.3852   -9.6331   -5.8291 C   0  0  1  0  0  0  0  0  0  0  0  0
    5.9039  -10.5907   -4.8988 O   0  0  0  0  0  0  0  0  0  0  0  0
    5.7016   -8.2978   -5.5778 C   0  0  2  0  0  0  0  0  0  0  0  0
    4.3119   -8.3954   -5.8534 O   0  0  0  0  0  0  0  0  0  0  0  0
    5.6687   -5.8974   -6.1102 C   0  0  0  0  0  0  0  0  0  0  0  0
    6.1433   -4.8440   -6.9888 N   0  3  0  0  0  0  0  0  0  0  0  0
   10.2848   -6.4831  -11.1337 C   0  0  2  0  0  0  0  0  0  0  0  0
    8.7766   -6.6334  -11.1631 C   0  0  0  0  0  0  0  0  0  0  0  0
    8.3337   -7.7359  -10.2191 C   0  0  1  0  0  0  0  0  0  0  0  0
    8.7105   -7.4531   -8.7642 C   0  0  2  0  0  0  0  0  0  0  0  0
   10.2058   -7.0792   -8.6424 C   0  0  1  0  0  0  0  0  0  0  0  0
   10.7659   -6.1504   -9.7278 C   0  0  1  0  0  0  0  0  0  0  0  0
   10.6819   -5.4287  -12.0471 N   0  3  0  0  0  0  0  0  0  0  0  0
    6.9012   -7.9195  -10.3482 N   0  3  0  0  0  0  0  0  0  0  0  0
   10.5166   -6.5513   -7.3295 O   0  0  0  0  0  0  0  0  0  0  0  0
   12.1891   -6.1689   -9.6905 O   0  0  0  0  0  0  0  0  0  0  0  0
  1  2  1  0  0  0  0
  3  2  1  6  0  0  0
  3  4  1  0  0  0  0
  3  5  1  0  0  0  0
  4  8  1  0  0  0  0
  5  6  1  0  0  0  0
  5 12  1  1  0  0  0
  6  7  1  6  0  0  0
  6  8  1  0  0  0  0
  8 41  1  1  0  0  0
  9 10  1  0  0  0  0
  9 17  1  0  0  0  0
  9 19  1  1  0  0  0
 10 11  1  0  0  0  0
 11 12  1  6  0  0  0
 11 13  1  0  0  0  0
 13 14  1  1  0  0  0
 13 15  1  0  0  0  0
 15 16  1  6  0  0  0
 15 17  1  0  0  0  0
 17 18  1  6  0  0  0
 19 20  1  0  0  0  0
 21 22  1  0  0  0  0
 21 29  1  0  0  0  0
 21 31  1  1  0  0  0
 22 23  1  0  0  0  0
 23 24  1  6  0  0  0
 23 25  1  0  0  0  0
 25 26  1  6  0  0  0
 25 27  1  0  0  0  0
 27 28  1  1  0  0  0
 27 29  1  0  0  0  0
 29 30  1  6  0  0  0
 31 32  1  0  0  0  0
 33 34  1  0  0  0  0
 33 38  1  0  0  0  0
 33 39  1  6  0  0  0
 34 35  1  0  0  0  0
 35 36  1  0  0  0  0
 35 40  1  1  0  0  0
 36 24  1  1  0  0  0
 36 37  1  0  0  0  0
 37 38  1  0  0  0  0
 37 41  1  1  0  0  0
 38 42  1  6  0  0  0
M  CHG  6  14   1  20   1  26   1  32   1  39   1  40   1
M  END
>  <CHROM.1>
-178.15274819,171.10750417,-164.48275482,-56.57960141,-93.13629222,60.99708039
74.37266656,104.23633020,64.15185882,69.91695242,49.26904118,64.76418344
45.09567254,-166.58647853,-173.53436818,59.63114539,-70.75607068,-178.48430847
26.49074606,-170.58776925,-64.56892672,-179.79963134,9.68231469,-6.13172953
-5.59353393,-0.94093732,-0.65876402,-1.54195912

>  <Name>


>  <RI>
0

>  <Rbt.Current_Directory>
/home/itssahil/PROJECTS/Mol_Feturizer/New_Systems/rnas/1qd3

>  <Rbt.Executable>
rbdock ($Id: //depot/dev/client3/rdock/2013.1/src/exe/rbdock.cxx#4 $)

>  <Rbt.Library>
libRbt.so (2013.1, Build901 2013/11/27)

>  <Rbt.Parameter_File>
/export/apps/rDock/src/rDock_2013.1_src/data/scripts/dock_solv.prm

>  <Rbt.Receptor>
prm/pocket_docking_5.prm

>  <SCORE>
-46.0445

>  <SCORE.INTER>
-21.9533

>  <SCORE.INTER.CONST>
1

>  <SCORE.INTER.POLAR>
-5.90018

>  <SCORE.INTER.ROT>
9

>  <SCORE.INTER.SOLV>
20.3775

>  <SCORE.INTER.VDW>
-11.3607

>  <SCORE.INTER.norm>
-0.522697

>  <SCORE.INTRA>
-25.194

>  <SCORE.INTRA.DIHEDRAL>
-24.9667

>  <SCORE.INTRA.DIHEDRAL.0>
40.6252

>  <SCORE.INTRA.POLAR>
-0.117786

>  <SCORE.INTRA.POLAR.0>
-1.20161

>  <SCORE.INTRA.REPUL>
-0.115675

>  <SCORE.INTRA.REPUL.0>
0.115675

>  <SCORE.INTRA.SOLV>
-7.67721

>  <SCORE.INTRA.SOLV.lig_0>
-154.895

>  <SCORE.INTRA.VDW>
-7.89318

>  <SCORE.INTRA.VDW.0>
2.2925

>  <SCORE.INTRA.norm>
-0.599857

>  <SCORE.RESTR>
1.10277

>  <SCORE.RESTR.CAVITY>
1.10277

>  <SCORE.RESTR.norm>
0.0262565

>  <SCORE.SYSTEM>
0

>  <SCORE.SYSTEM.CONST>
0

>  <SCORE.SYSTEM.DIHEDRAL>
0

>  <SCORE.SYSTEM.SOLV>
0

>  <SCORE.SYSTEM.norm>
0

>  <SCORE.heavy>
42

>  <SCORE.norm>
-1.0963

>  <RMSD>
10.334

$$$$

 OpenBabel11021811413D
libRbt.so/2013.1/901 2013/11/27
 42 45  0  0  0  0  0  0  0  0999 V2000
   12.8978   -3.8074   -4.7895 O   0  0  0  0  0  0  0  0  0  0  0  0
   12.1589   -4.7996   -4.0915 C   0  0  0  0  0  0  0  0  0  0  0  0
   10.6910   -4.7468   -4.5168 C   0  0  1  0  0  0  0  0  0  0  0  0
   10.1313   -6.0726   -4.6376 O   0  0  0  0  0  0  0  0  0  0  0  0
    9.8022   -4.0117   -3.5273 C   0  0  2  0  0  0  0  0  0  0  0  0
    8.4380   -4.5465   -3.9299 C   0  0  1  0  0  0  0  0  0  0  0  0
    7.9988   -3.8978   -5.1183 O   0  0  0  0  0  0  0  0  0  0  0  0
    8.7420   -6.0296   -4.2241 C   0  0  2  0  0  0  0  0  0  0  0  0
   11.8514   -0.8240   -1.1449 C   0  0  2  0  0  0  0  0  0  0  0  0
   11.5342   -1.4506   -2.3972 O   0  0  0  0  0  0  0  0  0  0  0  0
   10.1703   -1.9077   -2.4393 C   0  0  2  0  0  0  0  0  0  0  0  0
    9.9018   -2.5828   -3.6859 O   0  0  0  0  0  0  0  0  0  0  0  0
    9.1974   -0.7315   -2.2486 C   0  0  2  0  0  0  0  0  0  0  0  0
    9.0951    0.0545   -3.4644 N   0  3  0  0  0  0  0  0  0  0  0  0
    9.5649    0.1639   -1.0595 C   0  0  1  0  0  0  0  0  0  0  0  0
    9.1658   -0.4676    0.1467 O   0  0  0  0  0  0  0  0  0  0  0  0
   11.0593    0.4698   -1.0059 C   0  0  2  0  0  0  0  0  0  0  0  0
   11.4080    1.3721   -2.0493 O   0  0  0  0  0  0  0  0  0  0  0  0
   13.3503   -0.5571   -1.0415 C   0  0  0  0  0  0  0  0  0  0  0  0
   14.0933   -1.8004   -1.1259 N   0  3  0  0  0  0  0  0  0  0  0  0
    6.2670   -9.3462   -6.5310 C   0  0  1  0  0  0  0  0  0  0  0  0
    7.4043   -8.5778   -6.0859 O   0  0  0  0  0  0  0  0  0  0  0  0
    7.1267   -7.1641   -5.9605 C   0  0  2  0  0  0  0  0  0  0  0  0
    6.1615   -6.8904   -4.9150 O   0  0  0  0  0  0  0  0  0  0  0  0
    6.6674   -6.5823   -7.3031 C   0  0  2  0  0  0  0  0  0  0  0  0
    6.1931   -5.2235   -7.1179 N   0  3  0  0  0  0  0  0  0  0  0  0
    5.5585   -7.4189   -7.9316 C   0  0  1  0  0  0  0  0  0  0  0  0
    5.3314   -6.9875   -9.2645 O   0  0  0  0  0  0  0  0  0  0  0  0
    5.8565   -8.9104   -7.9281 C   0  0  2  0  0  0  0  0  0  0  0  0
    4.7154   -9.6426   -8.3503 O   0  0  0  0  0  0  0  0  0  0  0  0
    6.6301  -10.8270   -6.5958 C   0  0  0  0  0  0  0  0  0  0  0  0
    7.9095  -11.0141   -7.2554 N   0  3  0  0  0  0  0  0  0  0  0  0
    5.6137   -8.0114   -0.8477 C   0  0  2  0  0  0  0  0  0  0  0  0
    5.0218   -8.9062   -1.9188 C   0  0  0  0  0  0  0  0  0  0  0  0
    4.9539   -8.1735   -3.2459 C   0  0  1  0  0  0  0  0  0  0  0  0
    6.3314   -7.7456   -3.7543 C   0  0  2  0  0  0  0  0  0  0  0  0
    7.1175   -6.9931   -2.6559 C   0  0  1  0  0  0  0  0  0  0  0  0
    7.0164   -7.5629   -1.2348 C   0  0  1  0  0  0  0  0  0  0  0  0
    5.6621   -8.7324    0.4099 N   0  3  0  0  0  0  0  0  0  0  0  0
    4.2921   -9.0207   -4.2187 N   0  3  0  0  0  0  0  0  0  0  0  0
    8.5082   -6.8188   -3.0224 O   0  0  0  0  0  0  0  0  0  0  0  0
    7.4898   -6.6030   -0.2959 O   0  0  0  0  0  0  0  0  0  0  0  0
  1  2  1  0  0  0  0
  3  2  1  1  0  0  0
  3  4  1  0  0  0  0
  3  5  1  0  0  0  0
  4  8  1  0  0  0  0
  5  6  1  0  0  0  0
  5 12  1  6  0  0  0
  6  7  1  6  0  0  0
  6  8  1  0  0  0  0
  8 41  1  1  0  0  0
  9 10  1  0  0  0  0
  9 17  1  0  0  0  0
  9 19  1  6  0  0  0
 10 11  1  0  0  0  0
 11 12  1  6  0  0  0
 11 13  1  0  0  0  0
 13 14  1  6  0  0  0
 13 15  1  0  0  0  0
 15 16  1  1  0  0  0
 15 17  1  0  0  0  0
 17 18  1  6  0  0  0
 19 20  1  0  0  0  0
 21 22  1  0  0  0  0
 21 29  1  0  0  0  0
 21 31  1  6  0  0  0
 22 23  1  0  0  0  0
 23 24  1  1  0  0  0
 23 25  1  0  0  0  0
 25 26  1  1  0  0  0
 25 27  1  0  0  0  0
 27 28  1  6  0  0  0
 27 29  1  0  0  0  0
 29 30  1  1  0  0  0
 31 32  1  0  0  0  0
 33 34  1  0  0  0  0
 33 38  1  0  0  0  0
 33 39  1  1  0  0  0
 34 35  1  0  0  0  0
 35 36  1  0  0  0  0
 35 40  1  6  0  0  0
 36 24  1  6  0  0  0
 36 37  1  0  0  0  0
 37 38  1  0  0  0  0
 37 41  1  6  0  0  0
 38 42  1  1  0  0  0
M  CHG  6  14   1  20   1  26   1  32   1  39   1  40   1
M  END
>  <CHROM.1>
-130.42362813,140.74189893,-128.89403919,52.44865620,-171.16085147,-60.28666735
106.33818412,78.24492089,-71.32217577,159.88046103,-63.38362733,-46.29786250
37.88404775,-139.30555699,66.39091316,77.52447386,-170.24635987,64.24310102
39.10530914,-172.64251626,61.75890185,-46.93517532,8.32524574,-5.30498343
-3.89086400,-0.56039606,-0.91797399,-1.75977090

>  <Name>


>  <RI>
0

>  <Rbt.Current_Directory>
/home/itssahil/PROJECTS/Mol_Feturizer/New_Systems/rnas/1qd3

>  <Rbt.Executable>
rbdock ($Id: //depot/dev/client3/rdock/2013.1/src/exe/rbdock.cxx#4 $)

>  <Rbt.Library>
libRbt.so (2013.1, Build901 2013/11/27)

>  <Rbt.Parameter_File>
/export/apps/rDock/src/rDock_2013.1_src/data/scripts/dock_solv.prm

>  <Rbt.Receptor>
prm/pocket_docking_5.prm

>  <SCORE>
-43.4163

>  <SCORE.INTER>
-33.9129

>  <SCORE.INTER.CONST>
1

>  <SCORE.INTER.POLAR>
-7.44378

>  <SCORE.INTER.ROT>
9

>  <SCORE.INTER.SOLV>
36.4022

>  <SCORE.INTER.VDW>
-19.5301

>  <SCORE.INTER.norm>
-0.807451

>  <SCORE.INTRA>
-9.50341

>  <SCORE.INTRA.DIHEDRAL>
-0.294792

>  <SCORE.INTRA.DIHEDRAL.0>
40.6252

>  <SCORE.INTRA.POLAR>
0.233965

>  <SCORE.INTRA.POLAR.0>
-1.20161

>  <SCORE.INTRA.REPUL>
-0.113952

>  <SCORE.INTRA.REPUL.0>
0.115675

>  <SCORE.INTRA.SOLV>
-7.27485

>  <SCORE.INTRA.SOLV.lig_0>
-154.895

>  <SCORE.INTRA.VDW>
-5.94431

>  <SCORE.INTRA.VDW.0>
2.2925

>  <SCORE.INTRA.norm>
-0.226272

>  <SCORE.RESTR>
0

>  <SCORE.RESTR.CAVITY>
0

>  <SCORE.RESTR.norm>
0

>  <SCORE.SYSTEM>
0

>  <SCORE.SYSTEM.CONST>
0

>  <SCORE.SYSTEM.DIHEDRAL>
0

>  <SCORE.SYSTEM.SOLV>
0

>  <SCORE.SYSTEM.norm>
0

>  <SCORE.heavy>
42

>  <SCORE.norm>
-1.03372

>  <RMSD>
10.336

$$$$

 OpenBabel11021811413D
libRbt.so/2013.1/901 2013/11/27
 42 45  0  0  0  0  0  0  0  0999 V2000
   11.9870   -4.3490   -6.2099 O   0  0  0  0  0  0  0  0  0  0  0  0
   12.0804   -5.7650   -6.1474 C   0  0  0  0  0  0  0  0  0  0  0  0
   10.7072   -6.3862   -6.4060 C   0  0  1  0  0  0  0  0  0  0  0  0
   10.8028   -7.8164   -6.5827 O   0  0  0  0  0  0  0  0  0  0  0  0
    9.7252   -6.1757   -5.2655 C   0  0  2  0  0  0  0  0  0  0  0  0
    8.7142   -7.2699   -5.5648 C   0  0  1  0  0  0  0  0  0  0  0  0
    7.8703   -6.8647   -6.6370 O   0  0  0  0  0  0  0  0  0  0  0  0
    9.6176   -8.4340   -6.0201 C   0  0  2  0  0  0  0  0  0  0  0  0
    8.1027   -2.7511   -2.5085 C   0  0  2  0  0  0  0  0  0  0  0  0
    8.6949   -3.1193   -3.7636 O   0  0  0  0  0  0  0  0  0  0  0  0
    8.4838   -4.5093   -4.0703 C   0  0  2  0  0  0  0  0  0  0  0  0
    9.1399   -4.8593   -5.3067 O   0  0  0  0  0  0  0  0  0  0  0  0
    6.9805   -4.8243   -4.1556 C   0  0  2  0  0  0  0  0  0  0  0  0
    6.4237   -4.3425   -5.4063 N   0  3  0  0  0  0  0  0  0  0  0  0
    6.1843   -4.2747   -2.9661 C   0  0  1  0  0  0  0  0  0  0  0  0
    6.3793   -5.1155   -1.8401 O   0  0  0  0  0  0  0  0  0  0  0  0
    6.5858   -2.8454   -2.6122 C   0  0  2  0  0  0  0  0  0  0  0  0
    6.1058   -1.9462   -3.6050 O   0  0  0  0  0  0  0  0  0  0  0  0
    8.5331   -1.3443   -2.1029 C   0  0  0  0  0  0  0  0  0  0  0  0
    8.2370   -0.3986   -3.1626 N   0  3  0  0  0  0  0  0  0  0  0  0
    5.3358   -9.1973   -4.7601 C   0  0  1  0  0  0  0  0  0  0  0  0
    6.7043   -8.7784   -4.5762 O   0  0  0  0  0  0  0  0  0  0  0  0
    7.4110   -9.5518   -3.5792 C   0  0  2  0  0  0  0  0  0  0  0  0
    7.5795  -10.9334   -3.9822 O   0  0  0  0  0  0  0  0  0  0  0  0
    6.7068   -9.4543   -2.2204 C   0  0  2  0  0  0  0  0  0  0  0  0
    7.2983  -10.3950   -1.2872 N   0  3  0  0  0  0  0  0  0  0  0  0
    5.2129   -9.7360   -2.3367 C   0  0  1  0  0  0  0  0  0  0  0  0
    4.5679   -9.4062   -1.1163 O   0  0  0  0  0  0  0  0  0  0  0  0
    4.5473   -8.9832   -3.4784 C   0  0  2  0  0  0  0  0  0  0  0  0
    3.2099   -9.4289   -3.6501 O   0  0  0  0  0  0  0  0  0  0  0  0
    4.6766   -8.3624   -5.8543 C   0  0  0  0  0  0  0  0  0  0  0  0
    5.3619   -8.5420   -7.1211 N   0  3  0  0  0  0  0  0  0  0  0  0
   10.4377  -12.6121   -6.6492 C   0  0  2  0  0  0  0  0  0  0  0  0
    8.9681  -12.7968   -6.9722 C   0  0  0  0  0  0  0  0  0  0  0  0
    8.1150  -12.5064   -5.7513 C   0  0  1  0  0  0  0  0  0  0  0  0
    8.2694  -11.0690   -5.2524 C   0  0  2  0  0  0  0  0  0  0  0  0
    9.7612  -10.6989   -5.0840 C   0  0  1  0  0  0  0  0  0  0  0  0
   10.7125  -11.1884   -6.1839 C   0  0  1  0  0  0  0  0  0  0  0  0
   11.2304  -12.9008   -7.8291 N   0  3  0  0  0  0  0  0  0  0  0  0
    6.7285  -12.7902   -6.0670 N   0  3  0  0  0  0  0  0  0  0  0  0
    9.9355   -9.2760   -4.8748 O   0  0  0  0  0  0  0  0  0  0  0  0
   12.0604  -11.0807   -5.7383 O   0  0  0  0  0  0  0  0  0  0  0  0
  1  2  1  0  0  0  0
  3  2  1  1  0  0  0
  3  4  1  0  0  0  0
  3  5  1  0  0  0  0
  4  8  1  0  0  0  0
  5  6  1  0  0  0  0
  5 12  1  6  0  0  0
  6  7  1  6  0  0  0
  6  8  1  0  0  0  0
  8 41  1  1  0  0  0
  9 10  1  0  0  0  0
  9 17  1  0  0  0  0
  9 19  1  6  0  0  0
 10 11  1  0  0  0  0
 11 12  1  6  0  0  0
 11 13  1  0  0  0  0
 13 14  1  6  0  0  0
 13 15  1  0  0  0  0
 15 16  1  1  0  0  0
 15 17  1  0  0  0  0
 17 18  1  6  0  0  0
 19 20  1  0  0  0  0
 21 22  1  0  0  0  0
 21 29  1  0  0  0  0
 21 31  1  6  0  0  0
 22 23  1  0  0  0  0
 23 24  1  6  0  0  0
 23 25  1  0  0  0  0
 25 26  1  1  0  0  0
 25 27  1  0  0  0  0
 27 28  1  1  0  0  0
 27 29  1  0  0  0  0
 29 30  1  6  0  0  0
 31 32  1  0  0  0  0
 33 34  1  0  0  0  0
 33 38  1  0  0  0  0
 33 39  1  6  0  0  0
 34 35  1  0  0  0  0
 35 36  1  0  0  0  0
 35 40  1  6  0  0  0
 36 24  1  1  0  0  0
 36 37  1  0  0  0  0
 37 38  1  0  0  0  0
 37 41  1  6  0  0  0
 38 42  1  1  0  0  0
M  CHG  6  14   1  20   1  26   1  32   1  39   1  40   1
M  END
>  <CHROM.1>
177.53655624,169.93018679,-164.99928579,-62.24341972,-111.04189757,54.42402895
142.07418257,143.47306803,-59.16734544,-179.26429647,51.13213259,61.31205135
56.92021437,-166.91604040,-54.56527363,-67.46622052,69.11137801,-62.69023832
64.18171978,74.69395527,-68.00265448,-66.25539996,7.98694264,-7.67069783
-4.64608966,-1.70505264,-0.50329392,-2.95710836

>  <Name>


>  <RI>
0

>  <Rbt.Current_Directory>
/home/itssahil/PROJECTS/Mol_Feturizer/New_Systems/rnas/1qd3

>  <Rbt.Executable>
rbdock ($Id: //depot/dev/client3/rdock/2013.1/src/exe/rbdock.cxx#4 $)

>  <Rbt.Library>
libRbt.so (2013.1, Build901 2013/11/27)

>  <Rbt.Parameter_File>
/export/apps/rDock/src/rDock_2013.1_src/data/scripts/dock_solv.prm

>  <Rbt.Receptor>
prm/pocket_docking_7.prm

>  <SCORE>
-44.5234

>  <SCORE.INTER>
-19.4201

>  <SCORE.INTER.CONST>
1

>  <SCORE.INTER.POLAR>
-4.59022

>  <SCORE.INTER.ROT>
9

>  <SCORE.INTER.SOLV>
26.1793

>  <SCORE.INTER.VDW>
-15.9724

>  <SCORE.INTER.norm>
-0.462383

>  <SCORE.INTRA>
-25.1033

>  <SCORE.INTRA.DIHEDRAL>
-20.0181

>  <SCORE.INTRA.DIHEDRAL.0>
40.6252

>  <SCORE.INTRA.POLAR>
-0.804697

>  <SCORE.INTRA.POLAR.0>
-1.20161

>  <SCORE.INTRA.REPUL>
-0.112554

>  <SCORE.INTRA.REPUL.0>
0.115675

>  <SCORE.INTRA.SOLV>
-5.3435

>  <SCORE.INTRA.SOLV.lig_0>
-154.895

>  <SCORE.INTRA.VDW>
-9.12376

>  <SCORE.INTRA.VDW.0>
2.2925

>  <SCORE.INTRA.norm>
-0.597698

>  <SCORE.RESTR>
0

>  <SCORE.RESTR.CAVITY>
0

>  <SCORE.RESTR.norm>
0

>  <SCORE.SYSTEM>
0

>  <SCORE.SYSTEM.CONST>
0

>  <SCORE.SYSTEM.DIHEDRAL>
0

>  <SCORE.SYSTEM.SOLV>
0

>  <SCORE.SYSTEM.norm>
0

>  <SCORE.heavy>
42

>  <SCORE.norm>
-1.06008

>  <RMSD>
10.400

$$$$

 OpenBabel11021811413D
libRbt.so/2013.1/901 2013/11/27
 42 45  0  0  0  0  0  0  0  0999 V2000
    8.8986   -5.8320   -7.5484 O   0  0  0  0  0  0  0  0  0  0  0  0
    8.5998   -5.6361   -6.1736 C   0  0  0  0  0  0  0  0  0  0  0  0
    7.0843   -5.6019   -5.9730 C   0  0  1  0  0  0  0  0  0  0  0  0
    6.4689   -6.8333   -6.4097 O   0  0  0  0  0  0  0  0  0  0  0  0
    6.6716   -5.4261   -4.5210 C   0  0  2  0  0  0  0  0  0  0  0  0
    5.2372   -5.9242   -4.5784 C   0  0  1  0  0  0  0  0  0  0  0  0
    4.4028   -4.9225   -5.1495 O   0  0  0  0  0  0  0  0  0  0  0  0
    5.3465   -7.1256   -5.5393 C   0  0  2  0  0  0  0  0  0  0  0  0
    9.5337   -1.9352   -3.0174 C   0  0  2  0  0  0  0  0  0  0  0  0
    8.2348   -2.2942   -3.5128 O   0  0  0  0  0  0  0  0  0  0  0  0
    8.0501   -3.7208   -3.5525 C   0  0  2  0  0  0  0  0  0  0  0  0
    6.7596   -4.0480   -4.1085 O   0  0  0  0  0  0  0  0  0  0  0  0
    8.1947   -4.3263   -2.1458 C   0  0  2  0  0  0  0  0  0  0  0  0
    7.0051   -4.0762   -1.3528 N   0  3  0  0  0  0  0  0  0  0  0  0
    9.4455   -3.8354   -1.4073 C   0  0  1  0  0  0  0  0  0  0  0  0
   10.5851   -4.5174   -1.9065 O   0  0  0  0  0  0  0  0  0  0  0  0
    9.6479   -2.3294   -1.5504 C   0  0  2  0  0  0  0  0  0  0  0  0
    8.6758   -1.6333   -0.7791 O   0  0  0  0  0  0  0  0  0  0  0  0
    9.7847   -0.4409   -3.1996 C   0  0  0  0  0  0  0  0  0  0  0  0
   11.1774   -0.1261   -2.9425 N   0  3  0  0  0  0  0  0  0  0  0  0
    6.7263   -9.8481   -2.3151 C   0  0  1  0  0  0  0  0  0  0  0  0
    6.2185  -10.7168   -3.3494 O   0  0  0  0  0  0  0  0  0  0  0  0
    4.8966  -11.2310   -3.0676 C   0  0  2  0  0  0  0  0  0  0  0  0
    3.8975  -10.1816   -3.0503 O   0  0  0  0  0  0  0  0  0  0  0  0
    4.8926  -12.0198   -1.7525 C   0  0  2  0  0  0  0  0  0  0  0  0
    3.5302  -12.3479   -1.3757 N   0  3  0  0  0  0  0  0  0  0  0  0
    5.5503  -11.2366   -0.6218 C   0  0  1  0  0  0  0  0  0  0  0  0
    5.7368  -12.0841    0.5013 O   0  0  0  0  0  0  0  0  0  0  0  0
    6.8839  -10.6201   -1.0153 C   0  0  2  0  0  0  0  0  0  0  0  0
    7.3498   -9.7555    0.0103 O   0  0  0  0  0  0  0  0  0  0  0  0
    8.1019   -9.3169   -2.7079 C   0  0  0  0  0  0  0  0  0  0  0  0
    8.9956  -10.4079   -3.0508 N   0  3  0  0  0  0  0  0  0  0  0  0
    3.6549  -10.4789   -7.2873 C   0  0  2  0  0  0  0  0  0  0  0  0
    2.3600  -10.4647   -6.4994 C   0  0  0  0  0  0  0  0  0  0  0  0
    2.6256  -10.7601   -5.0348 C   0  0  1  0  0  0  0  0  0  0  0  0
    3.5398   -9.7232   -4.3805 C   0  0  2  0  0  0  0  0  0  0  0  0
    4.8174   -9.5019   -5.2229 C   0  0  1  0  0  0  0  0  0  0  0  0
    4.6277   -9.4408   -6.7443 C   0  0  1  0  0  0  0  0  0  0  0  0
    3.3731  -10.1999   -8.6826 N   0  3  0  0  0  0  0  0  0  0  0  0
    1.3595  -10.8385   -4.3327 N   0  3  0  0  0  0  0  0  0  0  0  0
    5.5593   -8.3433   -4.7689 O   0  0  0  0  0  0  0  0  0  0  0  0
    5.8877   -9.5780   -7.3929 O   0  0  0  0  0  0  0  0  0  0  0  0
  1  2  1  0  0  0  0
  3  2  1  1  0  0  0
  3  4  1  0  0  0  0
  3  5  1  0  0  0  0
  4  8  1  0  0  0  0
  5  6  1  0  0  0  0
  5 12  1  6  0  0  0
  6  7  1  6  0  0  0
  6  8  1  0  0  0  0
  8 41  1  1  0  0  0
  9 10  1  0  0  0  0
  9 17  1  0  0  0  0
  9 19  1  1  0  0  0
 10 11  1  0  0  0  0
 11 12  1  1  0  0  0
 11 13  1  0  0  0  0
 13 14  1  1  0  0  0
 13 15  1  0  0  0  0
 15 16  1  6  0  0  0
 15 17  1  0  0  0  0
 17 18  1  1  0  0  0
 19 20  1  0  0  0  0
 21 22  1  0  0  0  0
 21 29  1  0  0  0  0
 21 31  1  6  0  0  0
 22 23  1  0  0  0  0
 23 24  1  1  0  0  0
 23 25  1  0  0  0  0
 25 26  1  1  0  0  0
 25 27  1  0  0  0  0
 27 28  1  1  0  0  0
 27 29  1  0  0  0  0
 29 30  1  1  0  0  0
 31 32  1  0  0  0  0
 33 34  1  0  0  0  0
 33 38  1  0  0  0  0
 33 39  1  6  0  0  0
 34 35  1  0  0  0  0
 35 36  1  0  0  0  0
 35 40  1  1  0  0  0
 36 24  1  1  0  0  0
 36 37  1  0  0  0  0
 37 38  1  0  0  0  0
 37 41  1  1  0  0  0
 38 42  1  6  0  0  0
M  CHG  6  14   1  20   1  26   1  32   1  39   1  40   1
M  END
>  <CHROM.1>
177.90379977,59.59151516,-90.74918866,42.12355378,-104.49552888,-168.98599121
163.47240335,-71.73611832,-178.59162517,-65.59579024,44.37176040,-53.19558602
75.70627494,76.05837216,59.64741173,-174.95211221,-169.92530235,-49.84709649
-169.33446057,76.43187385,-98.89859900,-60.36592963,6.46008055,-7.36265627
-3.73617314,0.46378232,-0.96485494,-0.88413965

>  <Name>


>  <RI>
0

>  <Rbt.Current_Directory>
/home/itssahil/PROJECTS/Mol_Feturizer/New_Systems/rnas/1qd3

>  <Rbt.Executable>
rbdock ($Id: //depot/dev/client3/rdock/2013.1/src/exe/rbdock.cxx#4 $)

>  <Rbt.Library>
libRbt.so (2013.1, Build901 2013/11/27)

>  <Rbt.Parameter_File>
/export/apps/rDock/src/rDock_2013.1_src/data/scripts/dock_solv.prm

>  <Rbt.Receptor>
prm/pocket_docking_7.prm

>  <SCORE>
-34.7746

>  <SCORE.INTER>
-18.8316

>  <SCORE.INTER.CONST>
1

>  <SCORE.INTER.POLAR>
-4.15473

>  <SCORE.INTER.ROT>
9

>  <SCORE.INTER.SOLV>
23.1417

>  <SCORE.INTER.VDW>
-16.0192

>  <SCORE.INTER.norm>
-0.448372

>  <SCORE.INTRA>
-15.9673

>  <SCORE.INTRA.DIHEDRAL>
-15.9766

>  <SCORE.INTRA.DIHEDRAL.0>
40.6252

>  <SCORE.INTRA.POLAR>
0.76433

>  <SCORE.INTRA.POLAR.0>
-1.20161

>  <SCORE.INTRA.REPUL>
-0.115675

>  <SCORE.INTRA.REPUL.0>
0.115675

>  <SCORE.INTRA.SOLV>
-10.9059

>  <SCORE.INTRA.SOLV.lig_0>
-154.895

>  <SCORE.INTRA.VDW>
-4.54635

>  <SCORE.INTRA.VDW.0>
2.2925

>  <SCORE.INTRA.norm>
-0.380174

>  <SCORE.RESTR>
0.0242988

>  <SCORE.RESTR.CAVITY>
0.0242988

>  <SCORE.RESTR.norm>
0.000578543

>  <SCORE.SYSTEM>
0

>  <SCORE.SYSTEM.CONST>
0

>  <SCORE.SYSTEM.DIHEDRAL>
0

>  <SCORE.SYSTEM.SOLV>
0

>  <SCORE.SYSTEM.norm>
0

>  <SCORE.heavy>
42

>  <SCORE.norm>
-0.827967

>  <RMSD>
10.433

$$$$

 OpenBabel11021811413D
libRbt.so/2013.1/901 2013/11/27
 42 45  0  0  0  0  0  0  0  0999 V2000
   13.1352   -7.6923   -1.1241 O   0  0  0  0  0  0  0  0  0  0  0  0
   12.7546   -7.3969   -2.4604 C   0  0  0  0  0  0  0  0  0  0  0  0
   11.9224   -6.1144   -2.4901 C   0  0  1  0  0  0  0  0  0  0  0  0
   11.4337   -5.8363   -3.8204 O   0  0  0  0  0  0  0  0  0  0  0  0
   10.6909   -6.1734   -1.6016 C   0  0  2  0  0  0  0  0  0  0  0  0
    9.8595   -5.0541   -2.2057 C   0  0  1  0  0  0  0  0  0  0  0  0
   10.3619   -3.7946   -1.7732 O   0  0  0  0  0  0  0  0  0  0  0  0
   10.1198   -5.2317   -3.7155 C   0  0  2  0  0  0  0  0  0  0  0  0
    8.0815   -7.3916    1.3809 C   0  0  2  0  0  0  0  0  0  0  0  0
    9.2672   -7.3050    0.5759 O   0  0  0  0  0  0  0  0  0  0  0  0
    9.8686   -5.9994    0.6433 C   0  0  2  0  0  0  0  0  0  0  0  0
   11.0221   -5.9291   -0.2205 O   0  0  0  0  0  0  0  0  0  0  0  0
   10.2632   -5.6575    2.0903 C   0  0  2  0  0  0  0  0  0  0  0  0
   11.4718   -6.3630    2.4748 N   0  3  0  0  0  0  0  0  0  0  0  0
    9.1398   -5.9279    3.0981 C   0  0  1  0  0  0  0  0  0  0  0  0
    8.1818   -4.8838    3.0267 O   0  0  0  0  0  0  0  0  0  0  0  0
    8.4534   -7.2689    2.8531 C   0  0  2  0  0  0  0  0  0  0  0  0
    9.3189   -8.3334    3.2300 O   0  0  0  0  0  0  0  0  0  0  0  0
    7.3447   -8.7011    1.1140 C   0  0  0  0  0  0  0  0  0  0  0  0
    5.9381   -8.4489    0.8630 N   0  3  0  0  0  0  0  0  0  0  0  0
    9.3420   -8.7102   -8.4708 C   0  0  1  0  0  0  0  0  0  0  0  0
    9.5127   -8.3418   -7.0861 O   0  0  0  0  0  0  0  0  0  0  0  0
    9.6554   -6.9166   -6.8860 C   0  0  2  0  0  0  0  0  0  0  0  0
    8.4477   -6.1954   -7.2338 O   0  0  0  0  0  0  0  0  0  0  0  0
   10.8633   -6.3799   -7.6637 C   0  0  2  0  0  0  0  0  0  0  0  0
   10.8715   -4.9293   -7.6266 N   0  3  0  0  0  0  0  0  0  0  0  0
   10.8518   -6.8440   -9.1159 C   0  0  1  0  0  0  0  0  0  0  0  0
   12.0921   -6.5272   -9.7287 O   0  0  0  0  0  0  0  0  0  0  0  0
   10.5798   -8.3327   -9.2681 C   0  0  2  0  0  0  0  0  0  0  0  0
   10.3960   -8.6634  -10.6369 O   0  0  0  0  0  0  0  0  0  0  0  0
    9.1567  -10.2201   -8.5905 C   0  0  0  0  0  0  0  0  0  0  0  0
   10.1617  -10.9245   -7.8156 N   0  3  0  0  0  0  0  0  0  0  0  0
    5.6850   -4.3765   -4.5583 C   0  0  2  0  0  0  0  0  0  0  0  0
    5.1446   -5.3522   -5.5850 C   0  0  0  0  0  0  0  0  0  0  0  0
    6.1637   -5.5849   -6.6850 C   0  0  1  0  0  0  0  0  0  0  0  0
    7.4684   -6.1878   -6.1622 C   0  0  2  0  0  0  0  0  0  0  0  0
    8.0089   -5.3794   -4.9601 C   0  0  1  0  0  0  0  0  0  0  0  0
    6.9696   -4.9061   -3.9353 C   0  0  1  0  0  0  0  0  0  0  0  0
    4.6912   -4.1672   -3.5226 N   0  3  0  0  0  0  0  0  0  0  0  0
    5.5768   -6.4405   -7.6978 N   0  3  0  0  0  0  0  0  0  0  0  0
    9.0840   -6.0806   -4.2883 O   0  0  0  0  0  0  0  0  0  0  0  0
    7.5413   -3.9100   -3.0939 O   0  0  0  0  0  0  0  0  0  0  0  0
  1  2  1  0  0  0  0
  3  2  1  6  0  0  0
  3  4  1  0  0  0  0
  3  5  1  0  0  0  0
  4  8  1  0  0  0  0
  5  6  1  0  0  0  0
  5 12  1  1  0  0  0
  6  7  1  1  0  0  0
  6  8  1  0  0  0  0
  8 41  1  1  0  0  0
  9 10  1  0  0  0  0
  9 17  1  0  0  0  0
  9 19  1  1  0  0  0
 10 11  1  0  0  0  0
 11 12  1  6  0  0  0
 11 13  1  0  0  0  0
 13 14  1  1  0  0  0
 13 15  1  0  0  0  0
 15 16  1  6  0  0  0
 15 17  1  0  0  0  0
 17 18  1  6  0  0  0
 19 20  1  0  0  0  0
 21 22  1  0  0  0  0
 21 29  1  0  0  0  0
 21 31  1  1  0  0  0
 22 23  1  0  0  0  0
 23 24  1  6  0  0  0
 23 25  1  0  0  0  0
 25 26  1  6  0  0  0
 25 27  1  0  0  0  0
 27 28  1  1  0  0  0
 27 29  1  0  0  0  0
 29 30  1  6  0  0  0
 31 32  1  0  0  0  0
 33 34  1  0  0  0  0
 33 38  1  0  0  0  0
 33 39  1  1  0  0  0
 34 35  1  0  0  0  0
 35 36  1  0  0  0  0
 35 40  1  6  0  0  0
 36 24  1  6  0  0  0
 36 37  1  0  0  0  0
 37 38  1  0  0  0  0
 37 41  1  1  0  0  0
 38 42  1  6  0  0  0
M  CHG  6  14   1  20   1  26   1  32   1  39   1  40   1
M  END
>  <CHROM.1>
178.07085290,-175.73050995,-179.17797580,-173.61174316,-144.30009142,-130.54638704
60.33553273,75.95032602,62.66242898,-26.77884215,51.66246443,-47.68153674
82.96659079,-171.99042748,118.93943316,-178.30860065,84.21491147,-44.89908521
-170.13829380,98.01188571,146.61388808,62.56027286,9.22216804,-6.55423119
-3.53247301,-1.59741849,0.34342056,-1.64662378

>  <Name>


>  <RI>
0

>  <Rbt.Current_Directory>
/home/itssahil/PROJECTS/Mol_Feturizer/New_Systems/rnas/1qd3

>  <Rbt.Executable>
rbdock ($Id: //depot/dev/client3/rdock/2013.1/src/exe/rbdock.cxx#4 $)

>  <Rbt.Library>
libRbt.so (2013.1, Build901 2013/11/27)

>  <Rbt.Parameter_File>
/export/apps/rDock/src/rDock_2013.1_src/data/scripts/dock_solv.prm

>  <Rbt.Receptor>
prm/pocket_docking_6.prm

>  <SCORE>
-42.8639

>  <SCORE.INTER>
-29.858

>  <SCORE.INTER.CONST>
1

>  <SCORE.INTER.POLAR>
-6.43053

>  <SCORE.INTER.ROT>
9

>  <SCORE.INTER.SOLV>
28.8447

>  <SCORE.INTER.VDW>
-17.6851

>  <SCORE.INTER.norm>
-0.710905

>  <SCORE.INTRA>
-13.0059

>  <SCORE.INTRA.DIHEDRAL>
-8.79138

>  <SCORE.INTRA.DIHEDRAL.0>
40.6252

>  <SCORE.INTRA.POLAR>
1.20161

>  <SCORE.INTRA.POLAR.0>
-1.20161

>  <SCORE.INTRA.REPUL>
-0.115675

>  <SCORE.INTRA.REPUL.0>
0.115675

>  <SCORE.INTRA.SOLV>
-12.2842

>  <SCORE.INTRA.SOLV.lig_0>
-154.895

>  <SCORE.INTRA.VDW>
-5.97517

>  <SCORE.INTRA.VDW.0>
2.2925

>  <SCORE.INTRA.norm>
-0.309663

>  <SCORE.RESTR>
0

>  <SCORE.RESTR.CAVITY>
0

>  <SCORE.RESTR.norm>
0

>  <SCORE.SYSTEM>
0

>  <SCORE.SYSTEM.CONST>
0

>  <SCORE.SYSTEM.DIHEDRAL>
0

>  <SCORE.SYSTEM.SOLV>
0

>  <SCORE.SYSTEM.norm>
0

>  <SCORE.heavy>
42

>  <SCORE.norm>
-1.02057

>  <RMSD>
10.479

$$$$

 OpenBabel11021811413D
libRbt.so/2013.1/901 2013/11/27
 42 45  0  0  0  0  0  0  0  0999 V2000
    4.8694   -4.6452   -4.7727 O   0  0  0  0  0  0  0  0  0  0  0  0
    5.3911   -3.5793   -3.9920 C   0  0  0  0  0  0  0  0  0  0  0  0
    6.3222   -4.1350   -2.9137 C   0  0  1  0  0  0  0  0  0  0  0  0
    5.6847   -5.1914   -2.1631 O   0  0  0  0  0  0  0  0  0  0  0  0
    7.6002   -4.7383   -3.4724 C   0  0  2  0  0  0  0  0  0  0  0  0
    8.0310   -5.6069   -2.3024 C   0  0  1  0  0  0  0  0  0  0  0  0
    8.6153   -4.7948   -1.2900 O   0  0  0  0  0  0  0  0  0  0  0  0
    6.6867   -6.1770   -1.8059 C   0  0  2  0  0  0  0  0  0  0  0  0
   10.8277   -5.1536   -6.2815 C   0  0  2  0  0  0  0  0  0  0  0  0
    9.6482   -4.5489   -5.7297 O   0  0  0  0  0  0  0  0  0  0  0  0
    9.7921   -4.2740   -4.3245 C   0  0  2  0  0  0  0  0  0  0  0  0
    8.5711   -3.7217   -3.7899 O   0  0  0  0  0  0  0  0  0  0  0  0
   10.9668   -3.3121   -4.0770 C   0  0  2  0  0  0  0  0  0  0  0  0
   10.6004   -1.9517   -4.4254 N   0  3  0  0  0  0  0  0  0  0  0  0
   12.2473   -3.7281   -4.8104 C   0  0  1  0  0  0  0  0  0  0  0  0
   12.8667   -4.7943   -4.1087 O   0  0  0  0  0  0  0  0  0  0  0  0
   11.9765   -4.1536   -6.2510 C   0  0  2  0  0  0  0  0  0  0  0  0
   11.6558   -3.0148   -7.0415 O   0  0  0  0  0  0  0  0  0  0  0  0
   10.5677   -5.6390   -7.7048 C   0  0  0  0  0  0  0  0  0  0  0  0
    9.1690   -5.9852   -7.8744 N   0  3  0  0  0  0  0  0  0  0  0  0
    2.1948  -10.2679   -5.5166 C   0  0  1  0  0  0  0  0  0  0  0  0
    3.5925  -10.5994   -5.3799 O   0  0  0  0  0  0  0  0  0  0  0  0
    4.4324   -9.4487   -5.1306 C   0  0  2  0  0  0  0  0  0  0  0  0
    4.1499   -8.8374   -3.8476 O   0  0  0  0  0  0  0  0  0  0  0  0
    4.3041   -8.4293   -6.2690 C   0  0  2  0  0  0  0  0  0  0  0  0
    4.9812   -7.1972   -5.9094 N   0  3  0  0  0  0  0  0  0  0  0  0
    2.8458   -8.1236   -6.5922 C   0  0  1  0  0  0  0  0  0  0  0  0
    2.7700   -7.3689   -7.7917 O   0  0  0  0  0  0  0  0  0  0  0  0
    1.9865   -9.3715   -6.7263 C   0  0  2  0  0  0  0  0  0  0  0  0
    0.6160   -9.0172   -6.8387 O   0  0  0  0  0  0  0  0  0  0  0  0
    1.3759  -11.5370   -5.7341 C   0  0  0  0  0  0  0  0  0  0  0  0
    2.0120  -12.3975   -6.7147 N   0  3  0  0  0  0  0  0  0  0  0  0
    4.9997   -9.7793    0.2132 C   0  0  2  0  0  0  0  0  0  0  0  0
    4.7568  -10.9263   -0.7479 C   0  0  0  0  0  0  0  0  0  0  0  0
    4.0861  -10.4260   -2.0138 C   0  0  1  0  0  0  0  0  0  0  0  0
    4.9380   -9.4044   -2.7683 C   0  0  2  0  0  0  0  0  0  0  0  0
    5.4217   -8.2808   -1.8225 C   0  0  1  0  0  0  0  0  0  0  0  0
    5.8848   -8.7183   -0.4266 C   0  0  1  0  0  0  0  0  0  0  0  0
    5.6353  -10.2843    1.4153 N   0  3  0  0  0  0  0  0  0  0  0  0
    3.7782  -11.5598   -2.8636 N   0  3  0  0  0  0  0  0  0  0  0  0
    6.4390   -7.4607   -2.4480 O   0  0  0  0  0  0  0  0  0  0  0  0
    5.9706   -7.5843    0.4300 O   0  0  0  0  0  0  0  0  0  0  0  0
  1  2  1  0  0  0  0
  3  2  1  6  0  0  0
  3  4  1  0  0  0  0
  3  5  1  0  0  0  0
  4  8  1  0  0  0  0
  5  6  1  0  0  0  0
  5 12  1  1  0  0  0
  6  7  1  1  0  0  0
  6  8  1  0  0  0  0
  8 41  1  6  0  0  0
  9 10  1  0  0  0  0
  9 17  1  0  0  0  0
  9 19  1  6  0  0  0
 10 11  1  0  0  0  0
 11 12  1  6  0  0  0
 11 13  1  0  0  0  0
 13 14  1  6  0  0  0
 13 15  1  0  0  0  0
 15 16  1  1  0  0  0
 15 17  1  0  0  0  0
 17 18  1  6  0  0  0
 19 20  1  0  0  0  0
 21 22  1  0  0  0  0
 21 29  1  0  0  0  0
 21 31  1  6  0  0  0
 22 23  1  0  0  0  0
 23 24  1  1  0  0  0
 23 25  1  0  0  0  0
 25 26  1  1  0  0  0
 25 27  1  0  0  0  0
 27 28  1  6  0  0  0
 27 29  1  0  0  0  0
 29 30  1  1  0  0  0
 31 32  1  0  0  0  0
 33 34  1  0  0  0  0
 33 38  1  0  0  0  0
 33 39  1  1  0  0  0
 34 35  1  0  0  0  0
 35 36  1  0  0  0  0
 35 40  1  6  0  0  0
 36 24  1  6  0  0  0
 36 37  1  0  0  0  0
 37 38  1  0  0  0  0
 37 41  1  6  0  0  0
 38 42  1  1  0  0  0
M  CHG  6  14   1  20   1  26   1  32   1  39   1  40   1
M  END
>  <CHROM.1>
74.29075487,-51.26768533,-179.89577610,65.43163505,-79.43961294,-28.63592318
81.98919561,-84.42806534,-174.26741891,-67.65592935,65.56302437,-45.31222308
89.14876527,-99.07701900,-72.50005583,-55.60406790,63.80353055,-167.56143865
73.86129980,95.43893827,163.52329143,-21.09468308,6.40163198,-7.03973840
-4.13438394,0.20047145,-0.67147367,-1.35836544

>  <Name>


>  <RI>
0

>  <Rbt.Current_Directory>
/home/itssahil/PROJECTS/Mol_Feturizer/New_Systems/rnas/1qd3

>  <Rbt.Executable>
rbdock ($Id: //depot/dev/client3/rdock/2013.1/src/exe/rbdock.cxx#4 $)

>  <Rbt.Library>
libRbt.so (2013.1, Build901 2013/11/27)

>  <Rbt.Parameter_File>
/export/apps/rDock/src/rDock_2013.1_src/data/scripts/dock_solv.prm

>  <Rbt.Receptor>
prm/pocket_docking_7.prm

>  <SCORE>
-49.8024

>  <SCORE.INTER>
-33.4658

>  <SCORE.INTER.CONST>
1

>  <SCORE.INTER.POLAR>
-5.20475

>  <SCORE.INTER.ROT>
9

>  <SCORE.INTER.SOLV>
25.3664

>  <SCORE.INTER.VDW>
-23.0169

>  <SCORE.INTER.norm>
-0.796805

>  <SCORE.INTRA>
-16.3366

>  <SCORE.INTRA.DIHEDRAL>
-9.0879

>  <SCORE.INTRA.DIHEDRAL.0>
40.6252

>  <SCORE.INTRA.POLAR>
-0.827323

>  <SCORE.INTRA.POLAR.0>
-1.20161

>  <SCORE.INTRA.REPUL>
-0.115675

>  <SCORE.INTRA.REPUL.0>
0.115675

>  <SCORE.INTRA.SOLV>
-2.97592

>  <SCORE.INTRA.SOLV.lig_0>
-154.895

>  <SCORE.INTRA.VDW>
-6.91339

>  <SCORE.INTRA.VDW.0>
2.2925

>  <SCORE.INTRA.norm>
-0.388966

>  <SCORE.RESTR>
0

>  <SCORE.RESTR.CAVITY>
0

>  <SCORE.RESTR.norm>
0

>  <SCORE.SYSTEM>
0

>  <SCORE.SYSTEM.CONST>
0

>  <SCORE.SYSTEM.DIHEDRAL>
0

>  <SCORE.SYSTEM.SOLV>
0

>  <SCORE.SYSTEM.norm>
0

>  <SCORE.heavy>
42

>  <SCORE.norm>
-1.18577

>  <RMSD>
10.490

$$$$

 OpenBabel11021811413D
libRbt.so/2013.1/901 2013/11/27
 42 45  0  0  0  0  0  0  0  0999 V2000
    9.8973   -4.9278   -5.6400 O   0  0  0  0  0  0  0  0  0  0  0  0
    8.9388   -5.1070   -4.6071 C   0  0  0  0  0  0  0  0  0  0  0  0
    7.5378   -5.2045   -5.2122 C   0  0  1  0  0  0  0  0  0  0  0  0
    7.4033   -6.3815   -6.0381 O   0  0  0  0  0  0  0  0  0  0  0  0
    6.4360   -5.3030   -4.1702 C   0  0  2  0  0  0  0  0  0  0  0  0
    5.3083   -5.8753   -5.0126 C   0  0  1  0  0  0  0  0  0  0  0  0
    4.7379   -4.8473   -5.8149 O   0  0  0  0  0  0  0  0  0  0  0  0
    6.0507   -6.8879   -5.9082 C   0  0  2  0  0  0  0  0  0  0  0  0
    9.0694   -2.1642   -2.5311 C   0  0  2  0  0  0  0  0  0  0  0  0
    8.0133   -2.6205   -3.3901 O   0  0  0  0  0  0  0  0  0  0  0  0
    7.1243   -3.5277   -2.7138 C   0  0  2  0  0  0  0  0  0  0  0  0
    6.1108   -4.0115   -3.6195 O   0  0  0  0  0  0  0  0  0  0  0  0
    6.4731   -2.8450   -1.4988 C   0  0  2  0  0  0  0  0  0  0  0  0
    5.4190   -1.9406   -1.9201 N   0  3  0  0  0  0  0  0  0  0  0  0
    7.4845   -2.1135   -0.6085 C   0  0  1  0  0  0  0  0  0  0  0  0
    8.1775   -3.0583    0.1915 O   0  0  0  0  0  0  0  0  0  0  0  0
    8.4872   -1.2987   -1.4210 C   0  0  2  0  0  0  0  0  0  0  0  0
    7.8474   -0.1553   -1.9759 O   0  0  0  0  0  0  0  0  0  0  0  0
   10.1164   -1.3925   -3.3293 C   0  0  0  0  0  0  0  0  0  0  0  0
   11.2511   -1.0604   -2.4884 N   0  3  0  0  0  0  0  0  0  0  0  0
    5.3149  -11.1793   -0.9578 C   0  0  1  0  0  0  0  0  0  0  0  0
    5.3462   -9.8566   -1.5336 O   0  0  0  0  0  0  0  0  0  0  0  0
    5.7588   -9.8449   -2.9196 C   0  0  2  0  0  0  0  0  0  0  0  0
    4.8019  -10.5147   -3.7771 O   0  0  0  0  0  0  0  0  0  0  0  0
    7.1583  -10.4532   -3.0720 C   0  0  2  0  0  0  0  0  0  0  0  0
    7.4717  -10.6288   -4.4779 N   0  3  0  0  0  0  0  0  0  0  0  0
    7.2704  -11.7977   -2.3619 C   0  0  1  0  0  0  0  0  0  0  0  0
    8.6287  -12.2074   -2.3260 O   0  0  0  0  0  0  0  0  0  0  0  0
    6.7120  -11.7777   -0.9473 C   0  0  2  0  0  0  0  0  0  0  0  0
    6.6737  -13.0929   -0.4132 O   0  0  0  0  0  0  0  0  0  0  0  0
    4.8306  -11.1084    0.4876 C   0  0  0  0  0  0  0  0  0  0  0  0
    3.3943  -10.9055    0.5392 N   0  3  0  0  0  0  0  0  0  0  0  0
    3.0570   -9.2392   -7.4416 C   0  0  2  0  0  0  0  0  0  0  0  0
    2.1357   -9.4936   -6.2649 C   0  0  0  0  0  0  0  0  0  0  0  0
    2.8463  -10.3079   -5.1997 C   0  0  1  0  0  0  0  0  0  0  0  0
    4.0777   -9.5963   -4.6372 C   0  0  2  0  0  0  0  0  0  0  0  0
    4.9999   -9.1026   -5.7759 C   0  0  1  0  0  0  0  0  0  0  0  0
    4.3040   -8.4868   -6.9969 C   0  0  1  0  0  0  0  0  0  0  0  0
    2.3531   -8.4653   -8.4463 N   0  3  0  0  0  0  0  0  0  0  0  0
    1.9077  -10.6176   -4.1389 N   0  3  0  0  0  0  0  0  0  0  0  0
    6.0207   -8.2019   -5.2804 O   0  0  0  0  0  0  0  0  0  0  0  0
    5.2227   -8.3972   -8.0809 O   0  0  0  0  0  0  0  0  0  0  0  0
  1  2  1  0  0  0  0
  3  2  1  1  0  0  0
  3  4  1  0  0  0  0
  3  5  1  0  0  0  0
  4  8  1  0  0  0  0
  5  6  1  0  0  0  0
  5 12  1  6  0  0  0
  6  7  1  6  0  0  0
  6  8  1  0  0  0  0
  8 41  1  1  0  0  0
  9 10  1  0  0  0  0
  9 17  1  0  0  0  0
  9 19  1  6  0  0  0
 10 11  1  0  0  0  0
 11 12  1  6  0  0  0
 11 13  1  0  0  0  0
 13 14  1  6  0  0  0
 13 15  1  0  0  0  0
 15 16  1  6  0  0  0
 15 17  1  0  0  0  0
 17 18  1  6  0  0  0
 19 20  1  0  0  0  0
 21 22  1  0  0  0  0
 21 29  1  0  0  0  0
 21 31  1  1  0  0  0
 22 23  1  0  0  0  0
 23 24  1  6  0  0  0
 23 25  1  0  0  0  0
 25 26  1  6  0  0  0
 25 27  1  0  0  0  0
 27 28  1  1  0  0  0
 27 29  1  0  0  0  0
 29 30  1  6  0  0  0
 31 32  1  0  0  0  0
 33 34  1  0  0  0  0
 33 38  1  0  0  0  0
 33 39  1  6  0  0  0
 34 35  1  0  0  0  0
 35 36  1  0  0  0  0
 35 40  1  1  0  0  0
 36 24  1  1  0  0  0
 36 37  1  0  0  0  0
 37 38  1  0  0  0  0
 37 41  1  1  0  0  0
 38 42  1  6  0  0  0
M  CHG  6  14   1  20   1  26   1  32   1  39   1  40   1
M  END
>  <CHROM.1>
58.81213976,64.79504558,-73.72312974,55.65229773,-144.66267020,-173.75998439
97.45126583,-168.82816859,-55.00331731,-64.76459122,168.88313065,75.92747482
109.49746248,-164.10329299,49.49045153,-56.22326443,168.63764470,129.28295762
-67.91632686,-152.97617557,-123.23201065,-69.54386279,6.25668413,-7.03138494
-3.61239570,0.73641614,-1.02669966,-0.64128343

>  <Name>


>  <RI>
0

>  <Rbt.Current_Directory>
/home/itssahil/PROJECTS/Mol_Feturizer/New_Systems/rnas/1qd3

>  <Rbt.Executable>
rbdock ($Id: //depot/dev/client3/rdock/2013.1/src/exe/rbdock.cxx#4 $)

>  <Rbt.Library>
libRbt.so (2013.1, Build901 2013/11/27)

>  <Rbt.Parameter_File>
/export/apps/rDock/src/rDock_2013.1_src/data/scripts/dock_solv.prm

>  <Rbt.Receptor>
prm/pocket_docking_8.prm

>  <SCORE>
-51.0904

>  <SCORE.INTER>
-37.0317

>  <SCORE.INTER.CONST>
1

>  <SCORE.INTER.POLAR>
-7.01455

>  <SCORE.INTER.ROT>
9

>  <SCORE.INTER.SOLV>
31.5074

>  <SCORE.INTER.VDW>
-21.4085

>  <SCORE.INTER.norm>
-0.881707

>  <SCORE.INTRA>
-14.0587

>  <SCORE.INTRA.DIHEDRAL>
-6.51306

>  <SCORE.INTRA.DIHEDRAL.0>
40.6252

>  <SCORE.INTRA.POLAR>
0.0102902

>  <SCORE.INTRA.POLAR.0>
-1.20161

>  <SCORE.INTRA.REPUL>
-0.115675

>  <SCORE.INTRA.REPUL.0>
0.115675

>  <SCORE.INTRA.SOLV>
-12.6251

>  <SCORE.INTRA.SOLV.lig_0>
-154.895

>  <SCORE.INTRA.VDW>
-3.94623

>  <SCORE.INTRA.VDW.0>
2.2925

>  <SCORE.INTRA.norm>
-0.334731

>  <SCORE.RESTR>
0

>  <SCORE.RESTR.CAVITY>
0

>  <SCORE.RESTR.norm>
0

>  <SCORE.SYSTEM>
0

>  <SCORE.SYSTEM.CONST>
0

>  <SCORE.SYSTEM.DIHEDRAL>
0

>  <SCORE.SYSTEM.SOLV>
0

>  <SCORE.SYSTEM.norm>
0

>  <SCORE.heavy>
42

>  <SCORE.norm>
-1.21644

>  <RMSD>
10.510

$$$$

 OpenBabel11021811413D
libRbt.so/2013.1/901 2013/11/27
 42 45  0  0  0  0  0  0  0  0999 V2000
   14.4592   -9.7046   -2.3895 O   0  0  0  0  0  0  0  0  0  0  0  0
   13.2419  -10.0642   -3.0272 C   0  0  0  0  0  0  0  0  0  0  0  0
   12.9477   -9.0896   -4.1682 C   0  0  1  0  0  0  0  0  0  0  0  0
   11.7434   -9.4572   -4.8755 O   0  0  0  0  0  0  0  0  0  0  0  0
   12.7318   -7.6600   -3.7002 C   0  0  2  0  0  0  0  0  0  0  0  0
   11.9968   -7.0840   -4.8989 C   0  0  1  0  0  0  0  0  0  0  0  0
   12.9217   -6.8170   -5.9473 O   0  0  0  0  0  0  0  0  0  0  0  0
   11.0682   -8.2472   -5.3029 C   0  0  2  0  0  0  0  0  0  0  0  0
   12.8390   -4.2280   -1.3477 C   0  0  2  0  0  0  0  0  0  0  0  0
   13.0882   -5.5768   -1.7722 O   0  0  0  0  0  0  0  0  0  0  0  0
   13.8003   -5.6242   -3.0218 C   0  0  2  0  0  0  0  0  0  0  0  0
   13.9828   -6.9905   -3.4479 O   0  0  0  0  0  0  0  0  0  0  0  0
   15.1608   -4.9168   -2.8986 C   0  0  2  0  0  0  0  0  0  0  0  0
   16.1129   -5.7518   -2.1896 N   0  3  0  0  0  0  0  0  0  0  0  0
   15.0613   -3.5364   -2.2389 C   0  0  1  0  0  0  0  0  0  0  0  0
   14.5675   -2.5983   -3.1819 O   0  0  0  0  0  0  0  0  0  0  0  0
   14.1588   -3.5471   -1.0082 C   0  0  2  0  0  0  0  0  0  0  0  0
   14.8026   -4.2319    0.0601 O   0  0  0  0  0  0  0  0  0  0  0  0
   11.8930   -4.2070   -0.1505 C   0  0  0  0  0  0  0  0  0  0  0  0
   10.5928   -4.7320   -0.5229 N   0  3  0  0  0  0  0  0  0  0  0  0
    6.7189   -6.7256   -4.6533 C   0  0  1  0  0  0  0  0  0  0  0  0
    6.2848   -8.0180   -5.1259 O   0  0  0  0  0  0  0  0  0  0  0  0
    6.4410   -8.1879   -6.5535 C   0  0  2  0  0  0  0  0  0  0  0  0
    7.8341   -8.1834   -6.9522 O   0  0  0  0  0  0  0  0  0  0  0  0
    5.6445   -7.1214   -7.3150 C   0  0  2  0  0  0  0  0  0  0  0  0
    5.9751   -7.1704   -8.7271 N   0  3  0  0  0  0  0  0  0  0  0  0
    5.9244   -5.7202   -6.7832 C   0  0  1  0  0  0  0  0  0  0  0  0
    5.0016   -4.8015   -7.3478 O   0  0  0  0  0  0  0  0  0  0  0  0
    5.8614   -5.6304   -5.2662 C   0  0  2  0  0  0  0  0  0  0  0  0
    6.3125   -4.3572   -4.8280 O   0  0  0  0  0  0  0  0  0  0  0  0
    6.5611   -6.6436   -3.1377 C   0  0  0  0  0  0  0  0  0  0  0  0
    5.2230   -7.0390   -2.7380 N   0  3  0  0  0  0  0  0  0  0  0  0
    8.3778  -11.6285   -4.5160 C   0  0  2  0  0  0  0  0  0  0  0  0
    8.3803  -11.8130   -6.0207 C   0  0  0  0  0  0  0  0  0  0  0  0
    7.7843  -10.5974   -6.7063 C   0  0  1  0  0  0  0  0  0  0  0  0
    8.5733   -9.3173   -6.4275 C   0  0  2  0  0  0  0  0  0  0  0  0
    8.8128   -9.1340   -4.9110 C   0  0  1  0  0  0  0  0  0  0  0  0
    9.1828  -10.3973   -4.1226 C   0  0  1  0  0  0  0  0  0  0  0  0
    8.9462  -12.8046   -3.8854 N   0  3  0  0  0  0  0  0  0  0  0  0
    7.7098  -10.8498   -8.1321 N   0  3  0  0  0  0  0  0  0  0  0  0
    9.7772   -8.0853   -4.6481 O   0  0  0  0  0  0  0  0  0  0  0  0
    9.0375  -10.1544   -2.7273 O   0  0  0  0  0  0  0  0  0  0  0  0
  1  2  1  0  0  0  0
  3  2  1  1  0  0  0
  3  4  1  0  0  0  0
  3  5  1  0  0  0  0
  4  8  1  0  0  0  0
  5  6  1  0  0  0  0
  5 12  1  6  0  0  0
  6  7  1  6  0  0  0
  6  8  1  0  0  0  0
  8 41  1  1  0  0  0
  9 10  1  0  0  0  0
  9 17  1  0  0  0  0
  9 19  1  1  0  0  0
 10 11  1  0  0  0  0
 11 12  1  1  0  0  0
 11 13  1  0  0  0  0
 13 14  1  1  0  0  0
 13 15  1  0  0  0  0
 15 16  1  6  0  0  0
 15 17  1  0  0  0  0
 17 18  1  1  0  0  0
 19 20  1  0  0  0  0
 21 22  1  0  0  0  0
 21 29  1  0  0  0  0
 21 31  1  1  0  0  0
 22 23  1  0  0  0  0
 23 24  1  1  0  0  0
 23 25  1  0  0  0  0
 25 26  1  6  0  0  0
 25 27  1  0  0  0  0
 27 28  1  6  0  0  0
 27 29  1  0  0  0  0
 29 30  1  6  0  0  0
 31 32  1  0  0  0  0
 33 34  1  0  0  0  0
 33 38  1  0  0  0  0
 33 39  1  1  0  0  0
 34 35  1  0  0  0  0
 35 36  1  0  0  0  0
 35 40  1  6  0  0  0
 36 24  1  1  0  0  0
 36 37  1  0  0  0  0
 37 38  1  0  0  0  0
 37 41  1  6  0  0  0
 38 42  1  1  0  0  0
M  CHG  6  14   1  20   1  26   1  32   1  39   1  40   1
M  END
>  <CHROM.1>
53.00913001,177.64438759,179.11081031,-179.73154463,-61.50098423,-64.08076102
62.78095279,73.34532588,-63.46985343,-175.64794244,160.07718809,-51.05458467
65.42121763,48.76970407,-39.95585036,174.98192803,-59.91784365,-28.21084393
-67.39134855,-43.54620652,-55.69751043,68.13847799,10.18291632,-7.33436265
-4.21275309,-0.46697235,0.40436908,-2.87891017

>  <Name>


>  <RI>
0

>  <Rbt.Current_Directory>
/home/itssahil/PROJECTS/Mol_Feturizer/New_Systems/rnas/1qd3

>  <Rbt.Executable>
rbdock ($Id: //depot/dev/client3/rdock/2013.1/src/exe/rbdock.cxx#4 $)

>  <Rbt.Library>
libRbt.so (2013.1, Build901 2013/11/27)

>  <Rbt.Parameter_File>
/export/apps/rDock/src/rDock_2013.1_src/data/scripts/dock_solv.prm

>  <Rbt.Receptor>
prm/pocket_docking_7.prm

>  <SCORE>
-42.4278

>  <SCORE.INTER>
-15.6297

>  <SCORE.INTER.CONST>
1

>  <SCORE.INTER.POLAR>
-4.80346

>  <SCORE.INTER.ROT>
9

>  <SCORE.INTER.SOLV>
14.2458

>  <SCORE.INTER.VDW>
-8.75687

>  <SCORE.INTER.norm>
-0.372137

>  <SCORE.INTRA>
-26.8362

>  <SCORE.INTRA.DIHEDRAL>
-33.6969

>  <SCORE.INTRA.DIHEDRAL.0>
40.6252

>  <SCORE.INTRA.POLAR>
0.653337

>  <SCORE.INTRA.POLAR.0>
-1.20161

>  <SCORE.INTRA.REPUL>
-0.115675

>  <SCORE.INTRA.REPUL.0>
0.115675

>  <SCORE.INTRA.SOLV>
-11.8869

>  <SCORE.INTRA.SOLV.lig_0>
-154.895

>  <SCORE.INTRA.VDW>
-5.68723

>  <SCORE.INTRA.VDW.0>
2.2925

>  <SCORE.INTRA.norm>
-0.638956

>  <SCORE.RESTR>
0.0380697

>  <SCORE.RESTR.CAVITY>
0.0380697

>  <SCORE.RESTR.norm>
0.000906421

>  <SCORE.SYSTEM>
0

>  <SCORE.SYSTEM.CONST>
0

>  <SCORE.SYSTEM.DIHEDRAL>
0

>  <SCORE.SYSTEM.SOLV>
0

>  <SCORE.SYSTEM.norm>
0

>  <SCORE.heavy>
42

>  <SCORE.norm>
-1.01019

>  <RMSD>
10.551

$$$$

 OpenBabel11021811413D
libRbt.so/2013.1/901 2013/11/27
 42 45  0  0  0  0  0  0  0  0999 V2000
   11.1146   -4.9138   -5.7834 O   0  0  0  0  0  0  0  0  0  0  0  0
   10.4618   -4.6207   -4.5564 C   0  0  0  0  0  0  0  0  0  0  0  0
    8.9507   -4.7881   -4.7211 C   0  0  1  0  0  0  0  0  0  0  0  0
    8.6028   -6.1598   -5.0095 O   0  0  0  0  0  0  0  0  0  0  0  0
    8.1631   -4.4152   -3.4761 C   0  0  2  0  0  0  0  0  0  0  0  0
    6.8529   -5.1339   -3.7515 C   0  0  1  0  0  0  0  0  0  0  0  0
    6.0911   -4.3977   -4.7020 O   0  0  0  0  0  0  0  0  0  0  0  0
    7.3324   -6.4593   -4.3776 C   0  0  2  0  0  0  0  0  0  0  0  0
    9.0903   -0.6885   -0.7439 C   0  0  2  0  0  0  0  0  0  0  0  0
    8.7798   -1.1748   -2.0586 O   0  0  0  0  0  0  0  0  0  0  0  0
    8.2410   -2.5087   -2.0250 C   0  0  2  0  0  0  0  0  0  0  0  0
    7.9949   -2.9883   -3.3634 O   0  0  0  0  0  0  0  0  0  0  0  0
    6.9457   -2.5503   -1.1962 C   0  0  2  0  0  0  0  0  0  0  0  0
    5.8355   -1.9945   -1.9477 N   0  3  0  0  0  0  0  0  0  0  0  0
    7.0796   -1.8500    0.1612 C   0  0  1  0  0  0  0  0  0  0  0  0
    7.7784   -2.6960    1.0606 O   0  0  0  0  0  0  0  0  0  0  0  0
    7.8037   -0.5109    0.0522 C   0  0  2  0  0  0  0  0  0  0  0  0
    6.9630    0.4455   -0.5827 O   0  0  0  0  0  0  0  0  0  0  0  0
    9.8647    0.6240   -0.8249 C   0  0  0  0  0  0  0  0  0  0  0  0
   11.2883    0.3664   -0.9334 N   0  3  0  0  0  0  0  0  0  0  0  0
    4.9685  -10.6576   -6.3869 C   0  0  1  0  0  0  0  0  0  0  0  0
    6.0926   -9.8919   -5.9052 O   0  0  0  0  0  0  0  0  0  0  0  0
    5.7548   -8.5253   -5.5737 C   0  0  2  0  0  0  0  0  0  0  0  0
    4.8448   -8.4481   -4.4487 O   0  0  0  0  0  0  0  0  0  0  0  0
    5.1846   -7.7975   -6.7971 C   0  0  2  0  0  0  0  0  0  0  0  0
    4.6571   -6.5044   -6.4030 N   0  3  0  0  0  0  0  0  0  0  0  0
    4.0806   -8.6047   -7.4711 C   0  0  1  0  0  0  0  0  0  0  0  0
    3.7497   -8.0137   -8.7182 O   0  0  0  0  0  0  0  0  0  0  0  0
    4.4506  -10.0641   -7.6868 C   0  0  2  0  0  0  0  0  0  0  0  0
    3.3224  -10.7974   -8.1407 O   0  0  0  0  0  0  0  0  0  0  0  0
    5.3986  -12.0937   -6.6724 C   0  0  0  0  0  0  0  0  0  0  0  0
    4.2443  -12.9336   -6.9345 N   0  3  0  0  0  0  0  0  0  0  0  0
    5.4544   -8.4097   -0.2385 C   0  0  2  0  0  0  0  0  0  0  0  0
    4.8596   -9.6578   -0.8603 C   0  0  0  0  0  0  0  0  0  0  0  0
    4.3445   -9.3621   -2.2567 C   0  0  1  0  0  0  0  0  0  0  0  0
    5.4482   -8.8918   -3.2052 C   0  0  2  0  0  0  0  0  0  0  0  0
    6.2653   -7.7400   -2.5755 C   0  0  1  0  0  0  0  0  0  0  0  0
    6.6039   -7.8808   -1.0856 C   0  0  1  0  0  0  0  0  0  0  0  0
    5.9334   -8.7175    1.0956 N   0  3  0  0  0  0  0  0  0  0  0  0
    3.6939  -10.5476   -2.7798 N   0  3  0  0  0  0  0  0  0  0  0  0
    7.4690   -7.4659   -3.3338 O   0  0  0  0  0  0  0  0  0  0  0  0
    7.0429   -6.6281   -0.5707 O   0  0  0  0  0  0  0  0  0  0  0  0
  1  2  1  0  0  0  0
  3  2  1  1  0  0  0
  3  4  1  0  0  0  0
  3  5  1  0  0  0  0
  4  8  1  0  0  0  0
  5  6  1  0  0  0  0
  5 12  1  6  0  0  0
  6  7  1  6  0  0  0
  6  8  1  0  0  0  0
  8 41  1  1  0  0  0
  9 10  1  0  0  0  0
  9 17  1  0  0  0  0
  9 19  1  6  0  0  0
 10 11  1  0  0  0  0
 11 12  1  6  0  0  0
 11 13  1  0  0  0  0
 13 14  1  6  0  0  0
 13 15  1  0  0  0  0
 15 16  1  1  0  0  0
 15 17  1  0  0  0  0
 17 18  1  6  0  0  0
 19 20  1  0  0  0  0
 21 22  1  0  0  0  0
 21 29  1  0  0  0  0
 21 31  1  6  0  0  0
 22 23  1  0  0  0  0
 23 24  1  1  0  0  0
 23 25  1  0  0  0  0
 25 26  1  1  0  0  0
 25 27  1  0  0  0  0
 27 28  1  6  0  0  0
 27 29  1  0  0  0  0
 29 30  1  1  0  0  0
 31 32  1  0  0  0  0
 33 34  1  0  0  0  0
 33 38  1  0  0  0  0
 33 39  1  1  0  0  0
 34 35  1  0  0  0  0
 35 36  1  0  0  0  0
 35 40  1  6  0  0  0
 36 24  1  6  0  0  0
 36 37  1  0  0  0  0
 37 38  1  0  0  0  0
 37 41  1  6  0  0  0
 38 42  1  1  0  0  0
M  CHG  6  14   1  20   1  26   1  32   1  39   1  40   1
M  END
>  <CHROM.1>
-63.50761480,64.24693571,-135.47138745,-43.12671935,174.98829784,-87.42326802
148.54880576,103.39809156,-55.61023335,-55.88102060,54.33765928,170.15376136
66.92464510,-155.35020714,-177.96236012,-172.79541332,-174.01894763,172.79900832
49.31303105,-157.56732874,91.11588794,-38.60393756,6.63493970,-6.08663967
-3.48841169,-0.65971058,-1.08659226,-1.78254858

>  <Name>


>  <RI>
0

>  <Rbt.Current_Directory>
/home/itssahil/PROJECTS/Mol_Feturizer/New_Systems/rnas/1qd3

>  <Rbt.Executable>
rbdock ($Id: //depot/dev/client3/rdock/2013.1/src/exe/rbdock.cxx#4 $)

>  <Rbt.Library>
libRbt.so (2013.1, Build901 2013/11/27)

>  <Rbt.Parameter_File>
/export/apps/rDock/src/rDock_2013.1_src/data/scripts/dock_solv.prm

>  <Rbt.Receptor>
prm/pocket_docking_7.prm

>  <SCORE>
-57.5608

>  <SCORE.INTER>
-36.1428

>  <SCORE.INTER.CONST>
1

>  <SCORE.INTER.POLAR>
-5.71148

>  <SCORE.INTER.ROT>
9

>  <SCORE.INTER.SOLV>
31.674

>  <SCORE.INTER.VDW>
-25.2149

>  <SCORE.INTER.norm>
-0.860543

>  <SCORE.INTRA>
-21.418

>  <SCORE.INTRA.DIHEDRAL>
-12.7742

>  <SCORE.INTRA.DIHEDRAL.0>
40.6252

>  <SCORE.INTRA.POLAR>
-0.6141

>  <SCORE.INTRA.POLAR.0>
-1.20161

>  <SCORE.INTRA.REPUL>
-0.115675

>  <SCORE.INTRA.REPUL.0>
0.115675

>  <SCORE.INTRA.SOLV>
-8.60175

>  <SCORE.INTRA.SOLV.lig_0>
-154.895

>  <SCORE.INTRA.VDW>
-8.06365

>  <SCORE.INTRA.VDW.0>
2.2925

>  <SCORE.INTRA.norm>
-0.509951

>  <SCORE.RESTR>
0

>  <SCORE.RESTR.CAVITY>
0

>  <SCORE.RESTR.norm>
0

>  <SCORE.SYSTEM>
0

>  <SCORE.SYSTEM.CONST>
0

>  <SCORE.SYSTEM.DIHEDRAL>
0

>  <SCORE.SYSTEM.SOLV>
0

>  <SCORE.SYSTEM.norm>
0

>  <SCORE.heavy>
42

>  <SCORE.norm>
-1.37049

>  <RMSD>
10.750

$$$$

 OpenBabel11021811413D
libRbt.so/2013.1/901 2013/11/27
 42 45  0  0  0  0  0  0  0  0999 V2000
    9.2273   -5.5087   -6.7816 O   0  0  0  0  0  0  0  0  0  0  0  0
    8.7895   -6.0161   -8.0341 C   0  0  0  0  0  0  0  0  0  0  0  0
    7.2658   -6.1465   -8.0358 C   0  0  1  0  0  0  0  0  0  0  0  0
    6.8372   -7.2859   -8.8126 O   0  0  0  0  0  0  0  0  0  0  0  0
    6.6758   -6.3460   -6.6496 C   0  0  2  0  0  0  0  0  0  0  0  0
    5.3177   -6.9261   -7.0074 C   0  0  1  0  0  0  0  0  0  0  0  0
    4.4519   -5.8864   -7.4491 O   0  0  0  0  0  0  0  0  0  0  0  0
    5.6610   -7.8586   -8.1870 C   0  0  2  0  0  0  0  0  0  0  0  0
    8.3943   -3.8277   -3.0347 C   0  0  2  0  0  0  0  0  0  0  0  0
    7.6685   -3.8174   -4.2735 O   0  0  0  0  0  0  0  0  0  0  0  0
    7.2447   -5.1374   -4.6592 C   0  0  2  0  0  0  0  0  0  0  0  0
    6.5705   -5.0994   -5.9342 O   0  0  0  0  0  0  0  0  0  0  0  0
    6.3256   -5.7475   -3.5870 C   0  0  2  0  0  0  0  0  0  0  0  0
    4.9955   -5.1713   -3.6607 N   0  3  0  0  0  0  0  0  0  0  0  0
    6.8902   -5.6157   -2.1676 C   0  0  1  0  0  0  0  0  0  0  0  0
    7.9020   -6.5906   -1.9710 O   0  0  0  0  0  0  0  0  0  0  0  0
    7.4606   -4.2258   -1.8988 C   0  0  2  0  0  0  0  0  0  0  0  0
    6.4029   -3.2815   -1.7803 O   0  0  0  0  0  0  0  0  0  0  0  0
    9.0228   -2.4628   -2.7683 C   0  0  0  0  0  0  0  0  0  0  0  0
   10.0046   -2.1492   -3.7894 N   0  3  0  0  0  0  0  0  0  0  0  0
    5.2544  -10.9484   -2.0949 C   0  0  1  0  0  0  0  0  0  0  0  0
    5.2945   -9.6601   -2.7437 O   0  0  0  0  0  0  0  0  0  0  0  0
    6.0641   -9.6591   -3.9681 C   0  0  2  0  0  0  0  0  0  0  0  0
    5.4562  -10.4839   -4.9927 O   0  0  0  0  0  0  0  0  0  0  0  0
    7.5107  -10.0901   -3.6975 C   0  0  2  0  0  0  0  0  0  0  0  0
    8.2116  -10.2883   -4.9526 N   0  3  0  0  0  0  0  0  0  0  0  0
    7.5738  -11.3755   -2.8800 C   0  0  1  0  0  0  0  0  0  0  0  0
    8.9080  -11.6065   -2.4548 O   0  0  0  0  0  0  0  0  0  0  0  0
    6.6536  -11.3625   -1.6691 C   0  0  2  0  0  0  0  0  0  0  0  0
    6.6173  -12.6461   -1.0629 O   0  0  0  0  0  0  0  0  0  0  0  0
    4.3911  -10.8740   -0.8388 C   0  0  0  0  0  0  0  0  0  0  0  0
    4.5363   -9.5833   -0.1909 N   0  3  0  0  0  0  0  0  0  0  0  0
    2.2271  -10.1716   -7.7450 C   0  0  2  0  0  0  0  0  0  0  0  0
    1.9757   -9.7723   -6.3044 C   0  0  0  0  0  0  0  0  0  0  0  0
    3.0702  -10.3145   -5.4038 C   0  0  1  0  0  0  0  0  0  0  0  0
    4.4540   -9.7733   -5.7661 C   0  0  2  0  0  0  0  0  0  0  0  0
    4.7363   -9.9426   -7.2768 C   0  0  1  0  0  0  0  0  0  0  0  0
    3.5697   -9.6379   -8.2258 C   0  0  1  0  0  0  0  0  0  0  0  0
    1.1656   -9.6468   -8.5828 N   0  3  0  0  0  0  0  0  0  0  0  0
    2.7451  -10.0011   -4.0260 N   0  3  0  0  0  0  0  0  0  0  0  0
    5.9131   -9.2021   -7.6840 O   0  0  0  0  0  0  0  0  0  0  0  0
    3.8553  -10.1539   -9.5217 O   0  0  0  0  0  0  0  0  0  0  0  0
  1  2  1  0  0  0  0
  3  2  1  1  0  0  0
  3  4  1  0  0  0  0
  3  5  1  0  0  0  0
  4  8  1  0  0  0  0
  5  6  1  0  0  0  0
  5 12  1  6  0  0  0
  6  7  1  6  0  0  0
  6  8  1  0  0  0  0
  8 41  1  1  0  0  0
  9 10  1  0  0  0  0
  9 17  1  0  0  0  0
  9 19  1  1  0  0  0
 10 11  1  0  0  0  0
 11 12  1  6  0  0  0
 11 13  1  0  0  0  0
 13 14  1  1  0  0  0
 13 15  1  0  0  0  0
 15 16  1  6  0  0  0
 15 17  1  0  0  0  0
 17 18  1  6  0  0  0
 19 20  1  0  0  0  0
 21 22  1  0  0  0  0
 21 29  1  0  0  0  0
 21 31  1  1  0  0  0
 22 23  1  0  0  0  0
 23 24  1  6  0  0  0
 23 25  1  0  0  0  0
 25 26  1  6  0  0  0
 25 27  1  0  0  0  0
 27 28  1  1  0  0  0
 27 29  1  0  0  0  0
 29 30  1  6  0  0  0
 31 32  1  0  0  0  0
 33 34  1  0  0  0  0
 33 38  1  0  0  0  0
 33 39  1  6  0  0  0
 34 35  1  0  0  0  0
 35 36  1  0  0  0  0
 35 40  1  1  0  0  0
 36 24  1  1  0  0  0
 36 37  1  0  0  0  0
 37 38  1  0  0  0  0
 37 41  1  6  0  0  0
 38 42  1  6  0  0  0
M  CHG  6  14   1  20   1  26   1  32   1  39   1  40   1
M  END
>  <CHROM.1>
70.91267902,-145.74446406,-124.57728497,62.19861889,-168.69603744,-63.61323706
152.99251893,-143.73684508,61.48420364,-59.52179228,102.08899923,-35.29167969
85.87886973,-109.25209847,-164.66956682,60.67759450,59.54927855,-154.45425751
167.36419672,-114.97839239,-93.25677825,-176.05200189,6.04479399,-7.89009218
-4.80812053,0.30812666,-1.00470243,-0.91766368

>  <Name>


>  <RI>
0

>  <Rbt.Current_Directory>
/home/itssahil/PROJECTS/Mol_Feturizer/New_Systems/rnas/1qd3

>  <Rbt.Executable>
rbdock ($Id: //depot/dev/client3/rdock/2013.1/src/exe/rbdock.cxx#4 $)

>  <Rbt.Library>
libRbt.so (2013.1, Build901 2013/11/27)

>  <Rbt.Parameter_File>
/export/apps/rDock/src/rDock_2013.1_src/data/scripts/dock_solv.prm

>  <Rbt.Receptor>
prm/pocket_docking_7.prm

>  <SCORE>
-49.6801

>  <SCORE.INTER>
-40.4345

>  <SCORE.INTER.CONST>
1

>  <SCORE.INTER.POLAR>
-8.09912

>  <SCORE.INTER.ROT>
9

>  <SCORE.INTER.SOLV>
31.1152

>  <SCORE.INTER.VDW>
-19.931

>  <SCORE.INTER.norm>
-0.962727

>  <SCORE.INTRA>
-9.24555

>  <SCORE.INTRA.DIHEDRAL>
-0.168554

>  <SCORE.INTRA.DIHEDRAL.0>
40.6252

>  <SCORE.INTRA.POLAR>
0.591849

>  <SCORE.INTRA.POLAR.0>
-1.20161

>  <SCORE.INTRA.REPUL>
-0.115675

>  <SCORE.INTRA.REPUL.0>
0.115675

>  <SCORE.INTRA.SOLV>
-7.89141

>  <SCORE.INTRA.SOLV.lig_0>
-154.895

>  <SCORE.INTRA.VDW>
-6.64949

>  <SCORE.INTRA.VDW.0>
2.2925

>  <SCORE.INTRA.norm>
-0.220132

>  <SCORE.RESTR>
0

>  <SCORE.RESTR.CAVITY>
0

>  <SCORE.RESTR.norm>
0

>  <SCORE.SYSTEM>
0

>  <SCORE.SYSTEM.CONST>
0

>  <SCORE.SYSTEM.DIHEDRAL>
0

>  <SCORE.SYSTEM.SOLV>
0

>  <SCORE.SYSTEM.norm>
0

>  <SCORE.heavy>
42

>  <SCORE.norm>
-1.18286

>  <RMSD>
10.808

$$$$

 OpenBabel11021811413D
libRbt.so/2013.1/901 2013/11/27
 42 45  0  0  0  0  0  0  0  0999 V2000
   10.3741   -6.9908   -2.5449 O   0  0  0  0  0  0  0  0  0  0  0  0
   11.0456   -7.0009   -3.7966 C   0  0  0  0  0  0  0  0  0  0  0  0
   11.2804   -5.5658   -4.2697 C   0  0  1  0  0  0  0  0  0  0  0  0
   12.0868   -5.5330   -5.4673 O   0  0  0  0  0  0  0  0  0  0  0  0
    9.9980   -4.8269   -4.6147 C   0  0  2  0  0  0  0  0  0  0  0  0
   10.5481   -3.7084   -5.4839 C   0  0  1  0  0  0  0  0  0  0  0  0
   11.1434   -2.7098   -4.6627 O   0  0  0  0  0  0  0  0  0  0  0  0
   11.6375   -4.4339   -6.2997 C   0  0  2  0  0  0  0  0  0  0  0  0
    5.9788   -4.2429   -4.8687 C   0  0  2  0  0  0  0  0  0  0  0  0
    7.2771   -4.7490   -4.5228 O   0  0  0  0  0  0  0  0  0  0  0  0
    8.0188   -3.8184   -3.7137 C   0  0  2  0  0  0  0  0  0  0  0  0
    9.3377   -4.3317   -3.4333 O   0  0  0  0  0  0  0  0  0  0  0  0
    7.2708   -3.5228   -2.4024 C   0  0  2  0  0  0  0  0  0  0  0  0
    7.4107   -4.6260   -1.4699 N   0  3  0  0  0  0  0  0  0  0  0  0
    5.7905   -3.1870   -2.6191 C   0  0  1  0  0  0  0  0  0  0  0  0
    5.6736   -1.8509   -3.0818 O   0  0  0  0  0  0  0  0  0  0  0  0
    5.1225   -4.1325   -3.6136 C   0  0  2  0  0  0  0  0  0  0  0  0
    4.9508   -5.4158   -3.0234 O   0  0  0  0  0  0  0  0  0  0  0  0
    5.3100   -5.1411   -5.9054 C   0  0  0  0  0  0  0  0  0  0  0  0
    6.1304   -5.2358   -7.0983 N   0  3  0  0  0  0  0  0  0  0  0  0
    7.9269   -8.3211   -9.9988 C   0  0  1  0  0  0  0  0  0  0  0  0
    8.1921   -7.0019   -9.4779 O   0  0  0  0  0  0  0  0  0  0  0  0
    9.3980   -6.9317   -8.6828 C   0  0  2  0  0  0  0  0  0  0  0  0
   10.5862   -7.1778   -9.4748 O   0  0  0  0  0  0  0  0  0  0  0  0
    9.3175   -7.8955   -7.4927 C   0  0  2  0  0  0  0  0  0  0  0  0
   10.6055   -7.9716   -6.8287 N   0  3  0  0  0  0  0  0  0  0  0  0
    8.8938   -9.2945   -7.9261 C   0  0  1  0  0  0  0  0  0  0  0  0
    8.6045  -10.0824   -6.7817 O   0  0  0  0  0  0  0  0  0  0  0  0
    7.6907   -9.2959   -8.8567 C   0  0  2  0  0  0  0  0  0  0  0  0
    7.4652  -10.6007   -9.3698 O   0  0  0  0  0  0  0  0  0  0  0  0
    6.6657   -8.2998  -10.8577 C   0  0  0  0  0  0  0  0  0  0  0  0
    6.8454   -7.4406  -12.0136 N   0  3  0  0  0  0  0  0  0  0  0  0
   14.0895   -4.7983   -9.8802 C   0  0  2  0  0  0  0  0  0  0  0  0
   13.2879   -5.1038  -11.1300 C   0  0  0  0  0  0  0  0  0  0  0  0
   12.3378   -6.2610  -10.8826 C   0  0  1  0  0  0  0  0  0  0  0  0
   11.3207   -5.9634   -9.7800 C   0  0  2  0  0  0  0  0  0  0  0  0
   12.0228   -5.4381   -8.5064 C   0  0  1  0  0  0  0  0  0  0  0  0
   13.1674   -4.4394   -8.7227 C   0  0  1  0  0  0  0  0  0  0  0  0
   14.9923   -3.6943  -10.1446 N   0  3  0  0  0  0  0  0  0  0  0  0
   11.6632   -6.5903  -12.1230 N   0  3  0  0  0  0  0  0  0  0  0  0
   11.0694   -4.9015   -7.5567 O   0  0  0  0  0  0  0  0  0  0  0  0
   13.9274   -4.3106   -7.5256 O   0  0  0  0  0  0  0  0  0  0  0  0
  1  2  1  0  0  0  0
  3  2  1  6  0  0  0
  3  4  1  0  0  0  0
  3  5  1  0  0  0  0
  4  8  1  0  0  0  0
  5  6  1  0  0  0  0
  5 12  1  1  0  0  0
  6  7  1  1  0  0  0
  6  8  1  0  0  0  0
  8 41  1  6  0  0  0
  9 10  1  0  0  0  0
  9 17  1  0  0  0  0
  9 19  1  6  0  0  0
 10 11  1  0  0  0  0
 11 12  1  1  0  0  0
 11 13  1  0  0  0  0
 13 14  1  1  0  0  0
 13 15  1  0  0  0  0
 15 16  1  6  0  0  0
 15 17  1  0  0  0  0
 17 18  1  1  0  0  0
 19 20  1  0  0  0  0
 21 22  1  0  0  0  0
 21 29  1  0  0  0  0
 21 31  1  6  0  0  0
 22 23  1  0  0  0  0
 23 24  1  6  0  0  0
 23 25  1  0  0  0  0
 25 26  1  6  0  0  0
 25 27  1  0  0  0  0
 27 28  1  1  0  0  0
 27 29  1  0  0  0  0
 29 30  1  6  0  0  0
 31 32  1  0  0  0  0
 33 34  1  0  0  0  0
 33 38  1  0  0  0  0
 33 39  1  6  0  0  0
 34 35  1  0  0  0  0
 35 36  1  0  0  0  0
 35 40  1  6  0  0  0
 36 24  1  1  0  0  0
 36 37  1  0  0  0  0
 37 38  1  0  0  0  0
 37 41  1  1  0  0  0
 38 42  1  1  0  0  0
M  CHG  6  14   1  20   1  26   1  32   1  39   1  40   1
M  END
>  <CHROM.1>
-58.37226552,173.81894393,-170.66160169,-59.41317050,-71.36199102,-58.41252818
47.87401591,-56.87880243,-62.86475859,-72.78072023,-121.95080586,63.08803595
103.63935245,-166.16825046,177.72831107,-56.13217974,61.56238448,-142.90112072
64.79738662,-172.80667417,177.52104906,-57.73049831,9.43197881,-5.79644474
-6.82076656,-2.15943743,-0.37408847,-2.12901062

>  <Name>


>  <RI>
0

>  <Rbt.Current_Directory>
/home/itssahil/PROJECTS/Mol_Feturizer/New_Systems/rnas/1qd3

>  <Rbt.Executable>
rbdock ($Id: //depot/dev/client3/rdock/2013.1/src/exe/rbdock.cxx#4 $)

>  <Rbt.Library>
libRbt.so (2013.1, Build901 2013/11/27)

>  <Rbt.Parameter_File>
/export/apps/rDock/src/rDock_2013.1_src/data/scripts/dock_solv.prm

>  <Rbt.Receptor>
prm/pocket_docking_8.prm

>  <SCORE>
-47.1867

>  <SCORE.INTER>
-25.3856

>  <SCORE.INTER.CONST>
1

>  <SCORE.INTER.POLAR>
-4.92502

>  <SCORE.INTER.ROT>
9

>  <SCORE.INTER.SOLV>
24.3809

>  <SCORE.INTER.VDW>
-18.234

>  <SCORE.INTER.norm>
-0.60442

>  <SCORE.INTRA>
-21.8011

>  <SCORE.INTRA.DIHEDRAL>
-23.5076

>  <SCORE.INTRA.DIHEDRAL.0>
40.6252

>  <SCORE.INTRA.POLAR>
0.511318

>  <SCORE.INTRA.POLAR.0>
-1.20161

>  <SCORE.INTRA.REPUL>
-0.115675

>  <SCORE.INTRA.REPUL.0>
0.115675

>  <SCORE.INTRA.SOLV>
-6.62363

>  <SCORE.INTRA.SOLV.lig_0>
-154.895

>  <SCORE.INTRA.VDW>
-7.89561

>  <SCORE.INTRA.VDW.0>
2.2925

>  <SCORE.INTRA.norm>
-0.519074

>  <SCORE.RESTR>
0

>  <SCORE.RESTR.CAVITY>
0

>  <SCORE.RESTR.norm>
0

>  <SCORE.SYSTEM>
0

>  <SCORE.SYSTEM.CONST>
0

>  <SCORE.SYSTEM.DIHEDRAL>
0

>  <SCORE.SYSTEM.SOLV>
0

>  <SCORE.SYSTEM.norm>
0

>  <SCORE.heavy>
42

>  <SCORE.norm>
-1.12349

>  <RMSD>
10.852

$$$$

 OpenBabel11021811413D
libRbt.so/2013.1/901 2013/11/27
 42 45  0  0  0  0  0  0  0  0999 V2000
   10.1108   -4.5575   -5.6968 O   0  0  0  0  0  0  0  0  0  0  0  0
    9.2999   -4.8455   -4.5667 C   0  0  0  0  0  0  0  0  0  0  0  0
    7.8337   -4.9365   -4.9913 C   0  0  1  0  0  0  0  0  0  0  0  0
    7.7018   -5.5371   -6.2980 O   0  0  0  0  0  0  0  0  0  0  0  0
    6.9870   -5.7865   -4.0586 C   0  0  2  0  0  0  0  0  0  0  0  0
    5.8044   -6.0948   -4.9615 C   0  0  1  0  0  0  0  0  0  0  0  0
    4.9479   -4.9605   -5.0363 O   0  0  0  0  0  0  0  0  0  0  0  0
    6.4862   -6.3275   -6.3252 C   0  0  2  0  0  0  0  0  0  0  0  0
    8.4001   -2.7664   -0.6689 C   0  0  2  0  0  0  0  0  0  0  0  0
    7.2949   -3.4204   -1.3110 O   0  0  0  0  0  0  0  0  0  0  0  0
    7.7315   -4.4584   -2.2070 C   0  0  2  0  0  0  0  0  0  0  0  0
    6.6021   -5.0548   -2.8781 O   0  0  0  0  0  0  0  0  0  0  0  0
    8.5290   -5.5319   -1.4468 C   0  0  2  0  0  0  0  0  0  0  0  0
    7.6399   -6.3955   -0.6917 N   0  3  0  0  0  0  0  0  0  0  0  0
    9.6089   -4.9415   -0.5325 C   0  0  1  0  0  0  0  0  0  0  0  0
   10.7258   -4.5499   -1.3149 O   0  0  0  0  0  0  0  0  0  0  0  0
    9.0996   -3.7447    0.2661 C   0  0  2  0  0  0  0  0  0  0  0  0
    8.2005   -4.1833    1.2779 O   0  0  0  0  0  0  0  0  0  0  0  0
    7.9257   -1.5319    0.0926 C   0  0  0  0  0  0  0  0  0  0  0  0
    7.0435   -0.7329   -0.7370 N   0  3  0  0  0  0  0  0  0  0  0  0
    2.0383   -8.5473   -7.1487 C   0  0  1  0  0  0  0  0  0  0  0  0
    3.2884   -8.0861   -6.5951 O   0  0  0  0  0  0  0  0  0  0  0  0
    4.3887   -8.9948   -6.8297 C   0  0  2  0  0  0  0  0  0  0  0  0
    4.7142   -9.1021   -8.2376 O   0  0  0  0  0  0  0  0  0  0  0  0
    4.0906  -10.3720   -6.2246 C   0  0  2  0  0  0  0  0  0  0  0  0
    5.0990  -11.3269   -6.6456 N   0  3  0  0  0  0  0  0  0  0  0  0
    2.7141  -10.8834   -6.6347 C   0  0  1  0  0  0  0  0  0  0  0  0
    2.3854  -12.0348   -5.8727 O   0  0  0  0  0  0  0  0  0  0  0  0
    1.6157   -9.8433   -6.4762 C   0  0  2  0  0  0  0  0  0  0  0  0
    0.4038  -10.3145   -7.0469 O   0  0  0  0  0  0  0  0  0  0  0  0
    0.9427   -7.5156   -6.8956 C   0  0  0  0  0  0  0  0  0  0  0  0
    0.5707   -6.8476   -8.1293 N   0  3  0  0  0  0  0  0  0  0  0  0
    8.3444   -7.7035   -9.9595 C   0  0  2  0  0  0  0  0  0  0  0  0
    7.0472   -7.3843  -10.6761 C   0  0  0  0  0  0  0  0  0  0  0  0
    5.9273   -8.2745  -10.1699 C   0  0  1  0  0  0  0  0  0  0  0  0
    5.6530   -8.0859   -8.6772 C   0  0  2  0  0  0  0  0  0  0  0  0
    6.9602   -8.1861   -7.8574 C   0  0  1  0  0  0  0  0  0  0  0  0
    8.1947   -7.5006   -8.4578 C   0  0  1  0  0  0  0  0  0  0  0  0
    9.3981   -6.8444  -10.4649 N   0  3  0  0  0  0  0  0  0  0  0  0
    4.7303   -8.0128  -10.9451 N   0  3  0  0  0  0  0  0  0  0  0  0
    6.7652   -7.7475   -6.4905 O   0  0  0  0  0  0  0  0  0  0  0  0
    9.3690   -7.9540   -7.7926 O   0  0  0  0  0  0  0  0  0  0  0  0
  1  2  1  0  0  0  0
  3  2  1  1  0  0  0
  3  4  1  0  0  0  0
  3  5  1  0  0  0  0
  4  8  1  0  0  0  0
  5  6  1  0  0  0  0
  5 12  1  1  0  0  0
  6  7  1  6  0  0  0
  6  8  1  0  0  0  0
  8 41  1  1  0  0  0
  9 10  1  0  0  0  0
  9 17  1  0  0  0  0
  9 19  1  1  0  0  0
 10 11  1  0  0  0  0
 11 12  1  1  0  0  0
 11 13  1  0  0  0  0
 13 14  1  1  0  0  0
 13 15  1  0  0  0  0
 15 16  1  6  0  0  0
 15 17  1  0  0  0  0
 17 18  1  1  0  0  0
 19 20  1  0  0  0  0
 21 22  1  0  0  0  0
 21 29  1  0  0  0  0
 21 31  1  1  0  0  0
 22 23  1  0  0  0  0
 23 24  1  6  0  0  0
 23 25  1  0  0  0  0
 25 26  1  6  0  0  0
 25 27  1  0  0  0  0
 27 28  1  1  0  0  0
 27 29  1  0  0  0  0
 29 30  1  6  0  0  0
 31 32  1  0  0  0  0
 33 34  1  0  0  0  0
 33 38  1  0  0  0  0
 33 39  1  6  0  0  0
 34 35  1  0  0  0  0
 35 36  1  0  0  0  0
 35 40  1  6  0  0  0
 36 24  1  1  0  0  0
 36 37  1  0  0  0  0
 37 38  1  0  0  0  0
 37 41  1  1  0  0  0
 38 42  1  1  0  0  0
M  CHG  6  14   1  20   1  26   1  32   1  39   1  40   1
M  END
>  <CHROM.1>
48.42144670,36.29767383,-52.59422110,-127.65195528,-83.86068941,-47.18994987
162.04332682,-57.65786378,-53.78594394,174.68577343,93.88620348,108.57189294
87.04195564,-179.66552672,-179.17293968,-69.27557353,-61.64047634,-173.28229376
-166.43888862,-33.53380139,-67.48264938,-55.01416129,6.23950911,-6.70783838
-5.38521453,-1.03402860,-0.43214551,-1.98195257

>  <Name>


>  <RI>
0

>  <Rbt.Current_Directory>
/home/itssahil/PROJECTS/Mol_Feturizer/New_Systems/rnas/1qd3

>  <Rbt.Executable>
rbdock ($Id: //depot/dev/client3/rdock/2013.1/src/exe/rbdock.cxx#4 $)

>  <Rbt.Library>
libRbt.so (2013.1, Build901 2013/11/27)

>  <Rbt.Parameter_File>
/export/apps/rDock/src/rDock_2013.1_src/data/scripts/dock_solv.prm

>  <Rbt.Receptor>
prm/pocket_docking_7.prm

>  <SCORE>
-48.1378

>  <SCORE.INTER>
-34.7744

>  <SCORE.INTER.CONST>
1

>  <SCORE.INTER.POLAR>
-6.69101

>  <SCORE.INTER.ROT>
9

>  <SCORE.INTER.SOLV>
27.6229

>  <SCORE.INTER.VDW>
-19.6872

>  <SCORE.INTER.norm>
-0.827961

>  <SCORE.INTRA>
-13.8545

>  <SCORE.INTRA.DIHEDRAL>
-11.6273

>  <SCORE.INTRA.DIHEDRAL.0>
40.6252

>  <SCORE.INTRA.POLAR>
1.14473

>  <SCORE.INTRA.POLAR.0>
-1.20161

>  <SCORE.INTRA.REPUL>
-0.115675

>  <SCORE.INTRA.REPUL.0>
0.115675

>  <SCORE.INTRA.SOLV>
-13.8628

>  <SCORE.INTRA.SOLV.lig_0>
-154.895

>  <SCORE.INTRA.VDW>
-4.42316

>  <SCORE.INTRA.VDW.0>
2.2925

>  <SCORE.INTRA.norm>
-0.329869

>  <SCORE.RESTR>
0.491061

>  <SCORE.RESTR.CAVITY>
0.491061

>  <SCORE.RESTR.norm>
0.0116919

>  <SCORE.SYSTEM>
0

>  <SCORE.SYSTEM.CONST>
0

>  <SCORE.SYSTEM.DIHEDRAL>
0

>  <SCORE.SYSTEM.SOLV>
0

>  <SCORE.SYSTEM.norm>
0

>  <SCORE.heavy>
42

>  <SCORE.norm>
-1.14614

>  <RMSD>
11.153

$$$$

 OpenBabel11021811413D
libRbt.so/2013.1/901 2013/11/27
 42 45  0  0  0  0  0  0  0  0999 V2000
    9.5608   -3.6300   -5.0617 O   0  0  0  0  0  0  0  0  0  0  0  0
    9.1440   -4.9562   -5.3533 C   0  0  0  0  0  0  0  0  0  0  0  0
    7.6269   -5.0682   -5.1970 C   0  0  1  0  0  0  0  0  0  0  0  0
    7.1854   -6.4372   -5.3263 O   0  0  0  0  0  0  0  0  0  0  0  0
    7.1235   -4.5980   -3.8425 C   0  0  2  0  0  0  0  0  0  0  0  0
    5.7633   -5.2742   -3.8023 C   0  0  1  0  0  0  0  0  0  0  0  0
    4.8454   -4.5572   -4.6204 O   0  0  0  0  0  0  0  0  0  0  0  0
    6.0633   -6.6495   -4.4326 C   0  0  2  0  0  0  0  0  0  0  0  0
    8.8988   -0.8033   -1.7140 C   0  0  2  0  0  0  0  0  0  0  0  0
    8.2412   -1.3465   -2.8690 O   0  0  0  0  0  0  0  0  0  0  0  0
    7.6262   -2.6171   -2.5896 C   0  0  2  0  0  0  0  0  0  0  0  0
    7.0257   -3.1613   -3.7833 O   0  0  0  0  0  0  0  0  0  0  0  0
    6.5724   -2.4773   -1.4777 C   0  0  2  0  0  0  0  0  0  0  0  0
    5.3586   -1.8703   -1.9920 N   0  3  0  0  0  0  0  0  0  0  0  0
    7.0860   -1.7019   -0.2588 C   0  0  1  0  0  0  0  0  0  0  0  0
    7.9157   -2.5474    0.5219 O   0  0  0  0  0  0  0  0  0  0  0  0
    7.8622   -0.4490   -0.6554 C   0  0  2  0  0  0  0  0  0  0  0  0
    6.9681    0.5379   -1.1565 O   0  0  0  0  0  0  0  0  0  0  0  0
    9.7284    0.4202   -2.0930 C   0  0  0  0  0  0  0  0  0  0  0  0
   10.9890    0.0138   -2.6851 N   0  3  0  0  0  0  0  0  0  0  0  0
    5.1604  -10.9621   -6.7023 C   0  0  1  0  0  0  0  0  0  0  0  0
    5.8871   -9.8029   -6.2437 O   0  0  0  0  0  0  0  0  0  0  0  0
    5.0428   -8.6516   -6.0137 C   0  0  2  0  0  0  0  0  0  0  0  0
    4.1160   -8.8670   -4.9209 O   0  0  0  0  0  0  0  0  0  0  0  0
    4.3018   -8.2596   -7.2979 C   0  0  2  0  0  0  0  0  0  0  0  0
    3.3066   -7.2448   -7.0055 N   0  3  0  0  0  0  0  0  0  0  0  0
    3.6190   -9.4594   -7.9449 C   0  0  1  0  0  0  0  0  0  0  0  0
    3.1522   -9.1042   -9.2373 O   0  0  0  0  0  0  0  0  0  0  0  0
    4.5224  -10.6783   -8.0523 C   0  0  2  0  0  0  0  0  0  0  0  0
    3.7783  -11.8075   -8.4855 O   0  0  0  0  0  0  0  0  0  0  0  0
    6.1142  -12.1401   -6.8792 C   0  0  0  0  0  0  0  0  0  0  0  0
    7.2451  -11.7659   -7.7085 N   0  3  0  0  0  0  0  0  0  0  0  0
    4.5150   -9.6484   -0.7580 C   0  0  2  0  0  0  0  0  0  0  0  0
    4.2615  -10.8233   -1.6818 C   0  0  0  0  0  0  0  0  0  0  0  0
    3.7522  -10.3412   -3.0275 C   0  0  1  0  0  0  0  0  0  0  0  0
    4.7528   -9.4353   -3.7466 C   0  0  2  0  0  0  0  0  0  0  0  0
    5.2446   -8.3041   -2.8143 C   0  0  1  0  0  0  0  0  0  0  0  0
    5.5417   -8.6997   -1.3619 C   0  0  1  0  0  0  0  0  0  0  0  0
    4.9949  -10.1359    0.5211 N   0  3  0  0  0  0  0  0  0  0  0  0
    3.4254  -11.4915   -3.8474 N   0  3  0  0  0  0  0  0  0  0  0  0
    6.3805   -7.6051   -3.3800 O   0  0  0  0  0  0  0  0  0  0  0  0
    5.6475   -7.5307   -0.5560 O   0  0  0  0  0  0  0  0  0  0  0  0
  1  2  1  0  0  0  0
  3  2  1  1  0  0  0
  3  4  1  0  0  0  0
  3  5  1  0  0  0  0
  4  8  1  0  0  0  0
  5  6  1  0  0  0  0
  5 12  1  6  0  0  0
  6  7  1  6  0  0  0
  6  8  1  0  0  0  0
  8 41  1  1  0  0  0
  9 10  1  0  0  0  0
  9 17  1  0  0  0  0
  9 19  1  6  0  0  0
 10 11  1  0  0  0  0
 11 12  1  6  0  0  0
 11 13  1  0  0  0  0
 13 14  1  6  0  0  0
 13 15  1  0  0  0  0
 15 16  1  6  0  0  0
 15 17  1  0  0  0  0
 17 18  1  6  0  0  0
 19 20  1  0  0  0  0
 21 22  1  0  0  0  0
 21 29  1  0  0  0  0
 21 31  1  6  0  0  0
 22 23  1  0  0  0  0
 23 24  1  1  0  0  0
 23 25  1  0  0  0  0
 25 26  1  1  0  0  0
 25 27  1  0  0  0  0
 27 28  1  6  0  0  0
 27 29  1  0  0  0  0
 29 30  1  1  0  0  0
 31 32  1  0  0  0  0
 33 34  1  0  0  0  0
 33 38  1  0  0  0  0
 33 39  1  1  0  0  0
 34 35  1  0  0  0  0
 35 36  1  0  0  0  0
 35 40  1  6  0  0  0
 36 24  1  6  0  0  0
 36 37  1  0  0  0  0
 37 38  1  0  0  0  0
 37 41  1  6  0  0  0
 38 42  1  1  0  0  0
M  CHG  6  14   1  20   1  26   1  32   1  39   1  40   1
M  END
>  <CHROM.1>
179.18189687,-173.00693469,-132.07515280,-178.22930104,-154.73933162,-79.53018820
145.04153463,-144.76842074,-165.16844614,50.93369867,39.00275715,-52.14626811
46.83505335,-147.48863479,-92.57567138,-175.56800416,53.77680356,-54.12458293
122.77495579,57.36629003,77.49707972,173.97261063,6.10690737,-6.40921490
-3.95742921,-0.61765155,-1.14307040,-1.80105728

>  <Name>


>  <RI>
0

>  <Rbt.Current_Directory>
/home/itssahil/PROJECTS/Mol_Feturizer/New_Systems/rnas/1qd3

>  <Rbt.Executable>
rbdock ($Id: //depot/dev/client3/rdock/2013.1/src/exe/rbdock.cxx#4 $)

>  <Rbt.Library>
libRbt.so (2013.1, Build901 2013/11/27)

>  <Rbt.Parameter_File>
/export/apps/rDock/src/rDock_2013.1_src/data/scripts/dock_solv.prm

>  <Rbt.Receptor>
prm/pocket_docking_7.prm

>  <SCORE>
-51.1196

>  <SCORE.INTER>
-39.7414

>  <SCORE.INTER.CONST>
1

>  <SCORE.INTER.POLAR>
-6.57492

>  <SCORE.INTER.ROT>
9

>  <SCORE.INTER.SOLV>
35.8262

>  <SCORE.INTER.VDW>
-26.1199

>  <SCORE.INTER.norm>
-0.946224

>  <SCORE.INTRA>
-11.3783

>  <SCORE.INTRA.DIHEDRAL>
-7.97225

>  <SCORE.INTRA.DIHEDRAL.0>
40.6252

>  <SCORE.INTRA.POLAR>
1.19718

>  <SCORE.INTRA.POLAR.0>
-1.20161

>  <SCORE.INTRA.REPUL>
-0.10982

>  <SCORE.INTRA.REPUL.0>
0.115675

>  <SCORE.INTRA.SOLV>
-8.87439

>  <SCORE.INTRA.SOLV.lig_0>
-154.895

>  <SCORE.INTRA.VDW>
-6.47625

>  <SCORE.INTRA.VDW.0>
2.2925

>  <SCORE.INTRA.norm>
-0.270911

>  <SCORE.RESTR>
0

>  <SCORE.RESTR.CAVITY>
0

>  <SCORE.RESTR.norm>
0

>  <SCORE.SYSTEM>
0

>  <SCORE.SYSTEM.CONST>
0

>  <SCORE.SYSTEM.DIHEDRAL>
0

>  <SCORE.SYSTEM.SOLV>
0

>  <SCORE.SYSTEM.norm>
0

>  <SCORE.heavy>
42

>  <SCORE.norm>
-1.21713

>  <RMSD>
11.161

$$$$

 OpenBabel11021811413D
libRbt.so/2013.1/901 2013/11/27
 42 45  0  0  0  0  0  0  0  0999 V2000
   13.7536    2.5813    2.0080 O   0  0  0  0  0  0  0  0  0  0  0  0
   13.5649    3.6088    1.0456 C   0  0  0  0  0  0  0  0  0  0  0  0
   12.0883    4.0026    0.9916 C   0  0  1  0  0  0  0  0  0  0  0  0
   11.2495    2.8590    0.7192 O   0  0  0  0  0  0  0  0  0  0  0  0
   11.5730    4.5920    2.2941 C   0  0  2  0  0  0  0  0  0  0  0  0
   10.0765    4.4033    2.1107 C   0  0  1  0  0  0  0  0  0  0  0  0
    9.5716    5.3962    1.2246 O   0  0  0  0  0  0  0  0  0  0  0  0
   10.0015    3.0161    1.4408 C   0  0  2  0  0  0  0  0  0  0  0  0
   12.9218    6.2380    5.9397 C   0  0  2  0  0  0  0  0  0  0  0  0
   12.9730    5.8548    4.5570 O   0  0  0  0  0  0  0  0  0  0  0  0
   11.8931    6.4299    3.7994 C   0  0  2  0  0  0  0  0  0  0  0  0
   11.9403    5.9790    2.4297 O   0  0  0  0  0  0  0  0  0  0  0  0
   11.9466    7.9662    3.8582 C   0  0  2  0  0  0  0  0  0  0  0  0
   12.9874    8.4788    2.9861 N   0  3  0  0  0  0  0  0  0  0  0  0
   12.1248    8.5060    5.2821 C   0  0  1  0  0  0  0  0  0  0  0  0
   10.8848    8.4420    5.9686 O   0  0  0  0  0  0  0  0  0  0  0  0
   13.1829    7.7336    6.0653 C   0  0  2  0  0  0  0  0  0  0  0  0
   14.4793    8.0478    5.5700 O   0  0  0  0  0  0  0  0  0  0  0  0
   13.9334    5.4394    6.7569 C   0  0  0  0  0  0  0  0  0  0  0  0
   13.5347    5.3931    8.1511 N   0  3  0  0  0  0  0  0  0  0  0  0
    7.3807   -2.0181   -0.8526 C   0  0  1  0  0  0  0  0  0  0  0  0
    8.5225   -1.8387    0.0112 O   0  0  0  0  0  0  0  0  0  0  0  0
    8.9241   -0.4564    0.1502 C   0  0  2  0  0  0  0  0  0  0  0  0
    7.9177    0.3364    0.8272 O   0  0  0  0  0  0  0  0  0  0  0  0
    9.2743    0.1447   -1.2165 C   0  0  2  0  0  0  0  0  0  0  0  0
    9.4695    1.5772   -1.0923 N   0  3  0  0  0  0  0  0  0  0  0  0
    8.1847   -0.1250   -2.2483 C   0  0  1  0  0  0  0  0  0  0  0  0
    8.6497    0.2357   -3.5398 O   0  0  0  0  0  0  0  0  0  0  0  0
    7.7199   -1.5731   -2.2658 C   0  0  2  0  0  0  0  0  0  0  0  0
    6.5845   -1.7168   -3.1065 O   0  0  0  0  0  0  0  0  0  0  0  0
    6.9970   -3.4939   -0.9114 C   0  0  0  0  0  0  0  0  0  0  0  0
    8.1509   -4.3126   -1.2350 N   0  3  0  0  0  0  0  0  0  0  0  0
    6.8912    1.4048    4.8152 C   0  0  2  0  0  0  0  0  0  0  0  0
    6.6846   -0.0351    4.3883 C   0  0  0  0  0  0  0  0  0  0  0  0
    6.7098   -0.1498    2.8754 C   0  0  1  0  0  0  0  0  0  0  0  0
    8.0443    0.2915    2.2727 C   0  0  2  0  0  0  0  0  0  0  0  0
    8.4613    1.6806    2.8086 C   0  0  1  0  0  0  0  0  0  0  0  0
    8.2247    1.9327    4.3035 C   0  0  1  0  0  0  0  0  0  0  0  0
    6.8572    1.4878    6.2629 N   0  3  0  0  0  0  0  0  0  0  0  0
    6.4093   -1.5180    2.5014 N   0  3  0  0  0  0  0  0  0  0  0  0
    9.8333    1.9934    2.4641 O   0  0  0  0  0  0  0  0  0  0  0  0
    8.3273    3.3257    4.5795 O   0  0  0  0  0  0  0  0  0  0  0  0
  1  2  1  0  0  0  0
  3  2  1  1  0  0  0
  3  4  1  0  0  0  0
  3  5  1  0  0  0  0
  4  8  1  0  0  0  0
  5  6  1  0  0  0  0
  5 12  1  6  0  0  0
  6  7  1  6  0  0  0
  6  8  1  0  0  0  0
  8 41  1  1  0  0  0
  9 10  1  0  0  0  0
  9 17  1  0  0  0  0
  9 19  1  1  0  0  0
 10 11  1  0  0  0  0
 11 12  1  6  0  0  0
 11 13  1  0  0  0  0
 13 14  1  6  0  0  0
 13 15  1  0  0  0  0
 15 16  1  1  0  0  0
 15 17  1  0  0  0  0
 17 18  1  6  0  0  0
 19 20  1  0  0  0  0
 21 22  1  0  0  0  0
 21 29  1  0  0  0  0
 21 31  1  6  0  0  0
 22 23  1  0  0  0  0
 23 24  1  6  0  0  0
 23 25  1  0  0  0  0
 25 26  1  1  0  0  0
 25 27  1  0  0  0  0
 27 28  1  6  0  0  0
 27 29  1  0  0  0  0
 29 30  1  6  0  0  0
 31 32  1  0  0  0  0
 33 34  1  0  0  0  0
 33 38  1  0  0  0  0
 33 39  1  1  0  0  0
 34 35  1  0  0  0  0
 35 36  1  0  0  0  0
 35 40  1  1  0  0  0
 36 24  1  6  0  0  0
 36 37  1  0  0  0  0
 37 38  1  0  0  0  0
 37 41  1  1  0  0  0
 38 42  1  6  0  0  0
M  CHG  6  14   1  20   1  26   1  32   1  39   1  40   1
M  END
>  <CHROM.1>
-171.93101250,-55.93941037,-159.60076691,-160.03022734,-153.47805499,-156.41560293
71.29650369,70.85964725,61.26423562,-173.00756717,20.60809437,-51.52307355
86.30256516,-125.50332915,-36.35753465,170.35830645,64.03597365,-65.10973275
28.62957803,-116.94100801,108.11924671,34.20015756,9.98713013,2.67536950
2.26153565,-0.85010369,-0.82502948,-1.96719439

>  <Name>


>  <RI>
0

>  <Rbt.Current_Directory>
/home/itssahil/PROJECTS/Mol_Feturizer/New_Systems/rnas/1qd3

>  <Rbt.Executable>
rbdock ($Id: //depot/dev/client3/rdock/2013.1/src/exe/rbdock.cxx#4 $)

>  <Rbt.Library>
libRbt.so (2013.1, Build901 2013/11/27)

>  <Rbt.Parameter_File>
/export/apps/rDock/src/rDock_2013.1_src/data/scripts/dock_solv.prm

>  <Rbt.Receptor>
prm/pocket_docking_8.prm

>  <SCORE>
-51.3458

>  <SCORE.INTER>
-38.9186

>  <SCORE.INTER.CONST>
1

>  <SCORE.INTER.POLAR>
-6.61116

>  <SCORE.INTER.ROT>
9

>  <SCORE.INTER.SOLV>
44.9136

>  <SCORE.INTER.VDW>
-28.4797

>  <SCORE.INTER.norm>
-0.926633

>  <SCORE.INTRA>
-12.4272

>  <SCORE.INTRA.DIHEDRAL>
-2.25971

>  <SCORE.INTRA.DIHEDRAL.0>
40.6252

>  <SCORE.INTRA.POLAR>
-0.254728

>  <SCORE.INTRA.POLAR.0>
-1.20161

>  <SCORE.INTRA.REPUL>
-0.0481938

>  <SCORE.INTRA.REPUL.0>
0.115675

>  <SCORE.INTRA.SOLV>
-6.22994

>  <SCORE.INTRA.SOLV.lig_0>
-154.895

>  <SCORE.INTRA.VDW>
-7.07531

>  <SCORE.INTRA.VDW.0>
2.2925

>  <SCORE.INTRA.norm>
-0.295885

>  <SCORE.RESTR>
0

>  <SCORE.RESTR.CAVITY>
0

>  <SCORE.RESTR.norm>
0

>  <SCORE.SYSTEM>
0

>  <SCORE.SYSTEM.CONST>
0

>  <SCORE.SYSTEM.DIHEDRAL>
0

>  <SCORE.SYSTEM.SOLV>
0

>  <SCORE.SYSTEM.norm>
0

>  <SCORE.heavy>
42

>  <SCORE.norm>
-1.22252

>  <RMSD>
11.262

$$$$

 OpenBabel11021811413D
libRbt.so/2013.1/901 2013/11/27
 42 45  0  0  0  0  0  0  0  0999 V2000
    4.2593   -5.1350   -5.5970 O   0  0  0  0  0  0  0  0  0  0  0  0
    5.6205   -4.8370   -5.3216 C   0  0  0  0  0  0  0  0  0  0  0  0
    6.4947   -6.0433   -5.6669 C   0  0  1  0  0  0  0  0  0  0  0  0
    6.1794   -6.5622   -6.9773 O   0  0  0  0  0  0  0  0  0  0  0  0
    7.9801   -5.7236   -5.6955 C   0  0  2  0  0  0  0  0  0  0  0  0
    8.4988   -6.8905   -6.5190 C   0  0  1  0  0  0  0  0  0  0  0  0
    8.5583   -8.0606   -5.7108 O   0  0  0  0  0  0  0  0  0  0  0  0
    7.4004   -7.0487   -7.5901 C   0  0  2  0  0  0  0  0  0  0  0  0
    9.3964   -2.4106   -3.0126 C   0  0  2  0  0  0  0  0  0  0  0  0
    8.6587   -3.6240   -3.2247 O   0  0  0  0  0  0  0  0  0  0  0  0
    9.3350   -4.5127   -4.1322 C   0  0  2  0  0  0  0  0  0  0  0  0
    8.5412   -5.6941   -4.3684 O   0  0  0  0  0  0  0  0  0  0  0  0
   10.7186   -4.9000   -3.5826 C   0  0  2  0  0  0  0  0  0  0  0  0
   10.5948   -5.8854   -2.5242 N   0  3  0  0  0  0  0  0  0  0  0  0
   11.5316   -3.6929   -3.1002 C   0  0  1  0  0  0  0  0  0  0  0  0
   12.0768   -3.0142   -4.2205 O   0  0  0  0  0  0  0  0  0  0  0  0
   10.6916   -2.7227   -2.2740 C   0  0  2  0  0  0  0  0  0  0  0  0
   10.4050   -3.2907   -1.0013 O   0  0  0  0  0  0  0  0  0  0  0  0
    8.5576   -1.4001   -2.2354 C   0  0  0  0  0  0  0  0  0  0  0  0
    7.5395   -0.8214   -3.0918 N   0  3  0  0  0  0  0  0  0  0  0  0
   11.9631   -7.2393   -8.1061 C   0  0  1  0  0  0  0  0  0  0  0  0
   10.7152   -6.5150   -8.0878 O   0  0  0  0  0  0  0  0  0  0  0  0
   10.4436   -5.8104   -9.3211 C   0  0  2  0  0  0  0  0  0  0  0  0
   10.2387   -6.7182  -10.4318 O   0  0  0  0  0  0  0  0  0  0  0  0
   11.5613   -4.8060   -9.6271 C   0  0  2  0  0  0  0  0  0  0  0  0
   11.3870   -4.2619  -10.9610 N   0  3  0  0  0  0  0  0  0  0  0  0
   12.9409   -5.4468   -9.5237 C   0  0  1  0  0  0  0  0  0  0  0  0
   13.9405   -4.4410   -9.5793 O   0  0  0  0  0  0  0  0  0  0  0  0
   13.1259   -6.2725   -8.2598 C   0  0  2  0  0  0  0  0  0  0  0  0
   14.3505   -6.9895   -8.3135 O   0  0  0  0  0  0  0  0  0  0  0  0
   12.1529   -7.9863   -6.7891 C   0  0  0  0  0  0  0  0  0  0  0  0
   13.2681   -8.9110   -6.8786 N   0  3  0  0  0  0  0  0  0  0  0  0
    6.7144   -8.9438  -11.2836 C   0  0  2  0  0  0  0  0  0  0  0  0
    8.0305   -9.6930  -11.2159 C   0  0  0  0  0  0  0  0  0  0  0  0
    9.1973   -8.7273  -11.3092 C   0  0  1  0  0  0  0  0  0  0  0  0
    9.2180   -7.7149  -10.1630 C   0  0  2  0  0  0  0  0  0  0  0  0
    7.8409   -7.0297  -10.0051 C   0  0  1  0  0  0  0  0  0  0  0  0
    6.6099   -7.9342  -10.1485 C   0  0  1  0  0  0  0  0  0  0  0  0
    5.6171   -9.8886  -11.1982 N   0  3  0  0  0  0  0  0  0  0  0  0
   10.4337   -9.4839  -11.3433 N   0  3  0  0  0  0  0  0  0  0  0  0
    7.7610   -6.2756   -8.7706 O   0  0  0  0  0  0  0  0  0  0  0  0
    5.4433   -7.1366  -10.3213 O   0  0  0  0  0  0  0  0  0  0  0  0
  1  2  1  0  0  0  0
  3  2  1  6  0  0  0
  3  4  1  0  0  0  0
  3  5  1  0  0  0  0
  4  8  1  0  0  0  0
  5  6  1  0  0  0  0
  5 12  1  1  0  0  0
  6  7  1  1  0  0  0
  6  8  1  0  0  0  0
  8 41  1  6  0  0  0
  9 10  1  0  0  0  0
  9 17  1  0  0  0  0
  9 19  1  1  0  0  0
 10 11  1  0  0  0  0
 11 12  1  1  0  0  0
 11 13  1  0  0  0  0
 13 14  1  1  0  0  0
 13 15  1  0  0  0  0
 15 16  1  6  0  0  0
 15 17  1  0  0  0  0
 17 18  1  1  0  0  0
 19 20  1  0  0  0  0
 21 22  1  0  0  0  0
 21 29  1  0  0  0  0
 21 31  1  1  0  0  0
 22 23  1  0  0  0  0
 23 24  1  6  0  0  0
 23 25  1  0  0  0  0
 25 26  1  6  0  0  0
 25 27  1  0  0  0  0
 27 28  1  1  0  0  0
 27 29  1  0  0  0  0
 29 30  1  6  0  0  0
 31 32  1  0  0  0  0
 33 34  1  0  0  0  0
 33 38  1  0  0  0  0
 33 39  1  1  0  0  0
 34 35  1  0  0  0  0
 35 36  1  0  0  0  0
 35 40  1  1  0  0  0
 36 24  1  6  0  0  0
 36 37  1  0  0  0  0
 37 38  1  0  0  0  0
 37 41  1  1  0  0  0
 38 42  1  6  0  0  0
M  CHG  6  14   1  20   1  26   1  32   1  39   1  40   1
M  END
>  <CHROM.1>
75.10719850,48.26489642,-131.24058947,-59.39105332,-120.17921484,-74.54135936
108.63406604,-75.54137528,60.47584918,-92.66276650,-170.60686649,169.42999330
53.70940241,-172.87976991,-169.34884582,62.26399498,-179.07825984,-64.57193887
-68.88893463,-53.13152247,-83.92713201,-52.21122758,9.43516089,-5.96106224
-7.06626759,1.50316927,0.10109068,1.01545723

>  <Name>


>  <RI>
0

>  <Rbt.Current_Directory>
/home/itssahil/PROJECTS/Mol_Feturizer/New_Systems/rnas/1qd3

>  <Rbt.Executable>
rbdock ($Id: //depot/dev/client3/rdock/2013.1/src/exe/rbdock.cxx#4 $)

>  <Rbt.Library>
libRbt.so (2013.1, Build901 2013/11/27)

>  <Rbt.Parameter_File>
/export/apps/rDock/src/rDock_2013.1_src/data/scripts/dock_solv.prm

>  <Rbt.Receptor>
prm/pocket_docking_8.prm

>  <SCORE>
-44.9951

>  <SCORE.INTER>
-26.7405

>  <SCORE.INTER.CONST>
1

>  <SCORE.INTER.POLAR>
-5.95802

>  <SCORE.INTER.ROT>
9

>  <SCORE.INTER.SOLV>
21.5119

>  <SCORE.INTER.VDW>
-14.7376

>  <SCORE.INTER.norm>
-0.636678

>  <SCORE.INTRA>
-18.2546

>  <SCORE.INTRA.DIHEDRAL>
-6.90297

>  <SCORE.INTRA.DIHEDRAL.0>
40.6252

>  <SCORE.INTRA.POLAR>
0.0883745

>  <SCORE.INTRA.POLAR.0>
-1.20161

>  <SCORE.INTRA.REPUL>
-0.115675

>  <SCORE.INTRA.REPUL.0>
0.115675

>  <SCORE.INTRA.SOLV>
-13.6766

>  <SCORE.INTRA.SOLV.lig_0>
-154.895

>  <SCORE.INTRA.VDW>
-7.68694

>  <SCORE.INTRA.VDW.0>
2.2925

>  <SCORE.INTRA.norm>
-0.434634

>  <SCORE.RESTR>
0

>  <SCORE.RESTR.CAVITY>
0

>  <SCORE.RESTR.norm>
0

>  <SCORE.SYSTEM>
0

>  <SCORE.SYSTEM.CONST>
0

>  <SCORE.SYSTEM.DIHEDRAL>
0

>  <SCORE.SYSTEM.SOLV>
0

>  <SCORE.SYSTEM.norm>
0

>  <SCORE.heavy>
42

>  <SCORE.norm>
-1.07131

>  <RMSD>
11.518

$$$$

 OpenBabel11021811413D
libRbt.so/2013.1/901 2013/11/27
 42 45  0  0  0  0  0  0  0  0999 V2000
    6.6685   -6.6787   -8.9008 O   0  0  0  0  0  0  0  0  0  0  0  0
    7.3574   -6.5473   -7.6655 C   0  0  0  0  0  0  0  0  0  0  0  0
    6.3508   -6.3751   -6.5273 C   0  0  1  0  0  0  0  0  0  0  0  0
    5.7236   -7.6305   -6.1866 O   0  0  0  0  0  0  0  0  0  0  0  0
    6.9769   -5.8635   -5.2405 C   0  0  2  0  0  0  0  0  0  0  0  0
    5.9138   -6.2708   -4.2341 C   0  0  1  0  0  0  0  0  0  0  0  0
    4.8171   -5.3660   -4.3003 O   0  0  0  0  0  0  0  0  0  0  0  0
    5.4824   -7.6562   -4.7569 C   0  0  2  0  0  0  0  0  0  0  0  0
    9.0484   -2.2615   -3.0171 C   0  0  2  0  0  0  0  0  0  0  0  0
    8.5077   -2.7729   -4.2449 O   0  0  0  0  0  0  0  0  0  0  0  0
    7.6581   -3.9133   -4.0244 C   0  0  2  0  0  0  0  0  0  0  0  0
    7.1791   -4.4371   -5.2805 O   0  0  0  0  0  0  0  0  0  0  0  0
    6.4747   -3.5409   -3.1148 C   0  0  2  0  0  0  0  0  0  0  0  0
    5.4747   -2.7909   -3.8522 N   0  3  0  0  0  0  0  0  0  0  0  0
    6.9025   -2.7742   -1.8579 C   0  0  1  0  0  0  0  0  0  0  0  0
    7.4469   -3.6831   -0.9143 O   0  0  0  0  0  0  0  0  0  0  0  0
    7.9251   -1.6837   -2.1656 C   0  0  2  0  0  0  0  0  0  0  0  0
    7.2956   -0.6071   -2.8505 O   0  0  0  0  0  0  0  0  0  0  0  0
   10.1153   -1.2069   -3.2972 C   0  0  0  0  0  0  0  0  0  0  0  0
   11.4407   -1.7888   -3.1994 N   0  3  0  0  0  0  0  0  0  0  0  0
    3.5018  -10.5319   -5.6896 C   0  0  1  0  0  0  0  0  0  0  0  0
    3.7639  -11.7089   -4.8971 O   0  0  0  0  0  0  0  0  0  0  0  0
    4.9921  -12.3812   -5.2590 C   0  0  2  0  0  0  0  0  0  0  0  0
    6.1593  -11.5711   -4.9744 O   0  0  0  0  0  0  0  0  0  0  0  0
    4.9610  -12.8079   -6.7316 C   0  0  2  0  0  0  0  0  0  0  0  0
    6.2694  -13.2877   -7.1362 N   0  3  0  0  0  0  0  0  0  0  0  0
    4.5443  -11.6597   -7.6440 C   0  0  1  0  0  0  0  0  0  0  0  0
    4.3007  -12.1529   -8.9523 O   0  0  0  0  0  0  0  0  0  0  0  0
    3.3139  -10.9155   -7.1483 C   0  0  2  0  0  0  0  0  0  0  0  0
    3.0914   -9.7525   -7.9321 O   0  0  0  0  0  0  0  0  0  0  0  0
    2.2151   -9.8606   -5.2178 C   0  0  0  0  0  0  0  0  0  0  0  0
    1.4394  -10.7629   -4.3867 N   0  3  0  0  0  0  0  0  0  0  0  0
    4.4728  -10.4575   -1.2307 C   0  0  2  0  0  0  0  0  0  0  0  0
    5.3619  -11.6845   -1.2742 C   0  0  0  0  0  0  0  0  0  0  0  0
    5.5391  -12.1622   -2.7036 C   0  0  1  0  0  0  0  0  0  0  0  0
    6.2056  -11.1149   -3.5970 C   0  0  2  0  0  0  0  0  0  0  0  0
    5.4955   -9.7472   -3.4707 C   0  0  1  0  0  0  0  0  0  0  0  0
    5.0727   -9.3276   -2.0566 C   0  0  1  0  0  0  0  0  0  0  0  0
    4.3150  -10.0252    0.1448 N   0  3  0  0  0  0  0  0  0  0  0  0
    6.3085  -13.3911   -2.6979 N   0  3  0  0  0  0  0  0  0  0  0  0
    6.2654   -8.6892   -4.0924 O   0  0  0  0  0  0  0  0  0  0  0  0
    4.1508   -8.2451   -2.1306 O   0  0  0  0  0  0  0  0  0  0  0  0
  1  2  1  0  0  0  0
  3  2  1  6  0  0  0
  3  4  1  0  0  0  0
  3  5  1  0  0  0  0
  4  8  1  0  0  0  0
  5  6  1  0  0  0  0
  5 12  1  6  0  0  0
  6  7  1  6  0  0  0
  6  8  1  0  0  0  0
  8 41  1  1  0  0  0
  9 10  1  0  0  0  0
  9 17  1  0  0  0  0
  9 19  1  6  0  0  0
 10 11  1  0  0  0  0
 11 12  1  6  0  0  0
 11 13  1  0  0  0  0
 13 14  1  6  0  0  0
 13 15  1  0  0  0  0
 15 16  1  1  0  0  0
 15 17  1  0  0  0  0
 17 18  1  6  0  0  0
 19 20  1  0  0  0  0
 21 22  1  0  0  0  0
 21 29  1  0  0  0  0
 21 31  1  1  0  0  0
 22 23  1  0  0  0  0
 23 24  1  6  0  0  0
 23 25  1  0  0  0  0
 25 26  1  6  0  0  0
 25 27  1  0  0  0  0
 27 28  1  6  0  0  0
 27 29  1  0  0  0  0
 29 30  1  6  0  0  0
 31 32  1  0  0  0  0
 33 34  1  0  0  0  0
 33 38  1  0  0  0  0
 33 39  1  1  0  0  0
 34 35  1  0  0  0  0
 35 36  1  0  0  0  0
 35 40  1  1  0  0  0
 36 24  1  6  0  0  0
 36 37  1  0  0  0  0
 37 38  1  0  0  0  0
 37 41  1  1  0  0  0
 38 42  1  6  0  0  0
M  CHG  6  14   1  20   1  26   1  32   1  39   1  40   1
M  END
>  <CHROM.1>
-179.53088796,76.21128921,174.67639789,159.69084110,-115.78975112,-98.90765347
148.44314108,34.23164635,-179.57344251,34.38554969,60.88847911,-15.75469136
54.03714118,31.25141374,-48.41112897,59.57444204,-58.35635858,-159.73631856
69.22189743,171.83137320,143.96511847,-58.13455284,5.86057867,-7.75147694
-4.41321519,-0.21846094,-1.19168056,-1.59126533

>  <Name>


>  <RI>
0

>  <Rbt.Current_Directory>
/home/itssahil/PROJECTS/Mol_Feturizer/New_Systems/rnas/1qd3

>  <Rbt.Executable>
rbdock ($Id: //depot/dev/client3/rdock/2013.1/src/exe/rbdock.cxx#4 $)

>  <Rbt.Library>
libRbt.so (2013.1, Build901 2013/11/27)

>  <Rbt.Parameter_File>
/export/apps/rDock/src/rDock_2013.1_src/data/scripts/dock_solv.prm

>  <Rbt.Receptor>
prm/pocket_docking_8.prm

>  <SCORE>
-45.1486

>  <SCORE.INTER>
-37.4242

>  <SCORE.INTER.CONST>
1

>  <SCORE.INTER.POLAR>
-6.7514

>  <SCORE.INTER.ROT>
9

>  <SCORE.INTER.SOLV>
30.4747

>  <SCORE.INTER.VDW>
-22.203

>  <SCORE.INTER.norm>
-0.891052

>  <SCORE.INTRA>
-7.72444

>  <SCORE.INTRA.DIHEDRAL>
-2.60578

>  <SCORE.INTRA.DIHEDRAL.0>
40.6252

>  <SCORE.INTRA.POLAR>
0.948713

>  <SCORE.INTRA.POLAR.0>
-1.20161

>  <SCORE.INTRA.REPUL>
-0.115675

>  <SCORE.INTRA.REPUL.0>
0.115675

>  <SCORE.INTRA.SOLV>
-9.32133

>  <SCORE.INTRA.SOLV.lig_0>
-154.895

>  <SCORE.INTRA.VDW>
-4.40813

>  <SCORE.INTRA.VDW.0>
2.2925

>  <SCORE.INTRA.norm>
-0.183915

>  <SCORE.RESTR>
0

>  <SCORE.RESTR.CAVITY>
0

>  <SCORE.RESTR.norm>
0

>  <SCORE.SYSTEM>
0

>  <SCORE.SYSTEM.CONST>
0

>  <SCORE.SYSTEM.DIHEDRAL>
0

>  <SCORE.SYSTEM.SOLV>
0

>  <SCORE.SYSTEM.norm>
0

>  <SCORE.heavy>
42

>  <SCORE.norm>
-1.07497

>  <RMSD>
11.562

$$$$

 OpenBabel11021811413D
libRbt.so/2013.1/901 2013/11/27
 42 45  0  0  0  0  0  0  0  0999 V2000
   10.1005   -5.4720   -3.9499 O   0  0  0  0  0  0  0  0  0  0  0  0
    9.1973   -6.2910   -4.6787 C   0  0  0  0  0  0  0  0  0  0  0  0
    7.8517   -6.3494   -3.9545 C   0  0  1  0  0  0  0  0  0  0  0  0
    6.8924   -7.1379   -4.6918 O   0  0  0  0  0  0  0  0  0  0  0  0
    7.9354   -6.9837   -2.5761 C   0  0  2  0  0  0  0  0  0  0  0  0
    6.4782   -7.3504   -2.3508 C   0  0  1  0  0  0  0  0  0  0  0  0
    5.7391   -6.1872   -1.9948 O   0  0  0  0  0  0  0  0  0  0  0  0
    6.0445   -7.8396   -3.7477 C   0  0  2  0  0  0  0  0  0  0  0  0
    9.0038   -8.2453    1.2713 C   0  0  2  0  0  0  0  0  0  0  0  0
    9.1534   -7.6876   -0.0433 O   0  0  0  0  0  0  0  0  0  0  0  0
    8.2946   -6.5508   -0.2459 C   0  0  2  0  0  0  0  0  0  0  0  0
    8.4266   -6.0513   -1.5930 O   0  0  0  0  0  0  0  0  0  0  0  0
    8.6152   -5.4404    0.7694 C   0  0  2  0  0  0  0  0  0  0  0  0
    9.8294   -4.7377    0.3974 N   0  3  0  0  0  0  0  0  0  0  0  0
    8.7126   -5.9552    2.2103 C   0  0  1  0  0  0  0  0  0  0  0  0
    7.4070   -6.1615    2.7258 O   0  0  0  0  0  0  0  0  0  0  0  0
    9.5116   -7.2519    2.3085 C   0  0  2  0  0  0  0  0  0  0  0  0
   10.8938   -6.9876    2.0981 O   0  0  0  0  0  0  0  0  0  0  0  0
    9.7485   -9.5728    1.3803 C   0  0  0  0  0  0  0  0  0  0  0  0
    9.3993  -10.2497    2.6151 N   0  3  0  0  0  0  0  0  0  0  0  0
    9.6138  -11.5433   -6.6410 C   0  0  1  0  0  0  0  0  0  0  0  0
    9.0417  -10.8112   -5.5369 O   0  0  0  0  0  0  0  0  0  0  0  0
    8.0682   -9.8237   -5.9475 C   0  0  2  0  0  0  0  0  0  0  0  0
    6.8920  -10.4320   -6.5359 O   0  0  0  0  0  0  0  0  0  0  0  0
    8.7013   -8.8058   -6.9039 C   0  0  2  0  0  0  0  0  0  0  0  0
    7.6734   -7.9525   -7.4705 N   0  3  0  0  0  0  0  0  0  0  0  0
    9.4635   -9.4897   -8.0334 C   0  0  1  0  0  0  0  0  0  0  0  0
   10.2221   -8.5274   -8.7494 O   0  0  0  0  0  0  0  0  0  0  0  0
   10.3842  -10.5997   -7.5500 C   0  0  2  0  0  0  0  0  0  0  0  0
   10.9165  -11.3156   -8.6549 O   0  0  0  0  0  0  0  0  0  0  0  0
   10.5952  -12.5898   -6.1211 C   0  0  0  0  0  0  0  0  0  0  0  0
    9.9261  -13.5292   -5.2399 N   0  3  0  0  0  0  0  0  0  0  0  0
    3.1506  -11.3569   -4.7343 C   0  0  2  0  0  0  0  0  0  0  0  0
    3.9502  -12.4942   -5.3387 C   0  0  0  0  0  0  0  0  0  0  0  0
    5.0216  -11.9554   -6.2685 C   0  0  1  0  0  0  0  0  0  0  0  0
    6.0276  -11.0551   -5.5500 C   0  0  2  0  0  0  0  0  0  0  0  0
    5.3045   -9.9683   -4.7212 C   0  0  1  0  0  0  0  0  0  0  0  0
    4.0570  -10.4183   -3.9494 C   0  0  1  0  0  0  0  0  0  0  0  0
    2.1314  -11.8982   -3.8556 N   0  3  0  0  0  0  0  0  0  0  0  0
    5.6977  -13.0694   -6.9042 N   0  3  0  0  0  0  0  0  0  0  0  0
    6.2186   -9.2834   -3.8301 O   0  0  0  0  0  0  0  0  0  0  0  0
    3.3161   -9.2790   -3.5248 O   0  0  0  0  0  0  0  0  0  0  0  0
  1  2  1  0  0  0  0
  3  2  1  6  0  0  0
  3  4  1  0  0  0  0
  3  5  1  0  0  0  0
  4  8  1  0  0  0  0
  5  6  1  0  0  0  0
  5 12  1  1  0  0  0
  6  7  1  6  0  0  0
  6  8  1  0  0  0  0
  8 41  1  1  0  0  0
  9 10  1  0  0  0  0
  9 17  1  0  0  0  0
  9 19  1  6  0  0  0
 10 11  1  0  0  0  0
 11 12  1  6  0  0  0
 11 13  1  0  0  0  0
 13 14  1  6  0  0  0
 13 15  1  0  0  0  0
 15 16  1  6  0  0  0
 15 17  1  0  0  0  0
 17 18  1  6  0  0  0
 19 20  1  0  0  0  0
 21 22  1  0  0  0  0
 21 29  1  0  0  0  0
 21 31  1  1  0  0  0
 22 23  1  0  0  0  0
 23 24  1  6  0  0  0
 23 25  1  0  0  0  0
 25 26  1  6  0  0  0
 25 27  1  0  0  0  0
 27 28  1  1  0  0  0
 27 29  1  0  0  0  0
 29 30  1  6  0  0  0
 31 32  1  0  0  0  0
 33 34  1  0  0  0  0
 33 38  1  0  0  0  0
 33 39  1  1  0  0  0
 34 35  1  0  0  0  0
 35 36  1  0  0  0  0
 35 40  1  1  0  0  0
 36 24  1  6  0  0  0
 36 37  1  0  0  0  0
 37 38  1  0  0  0  0
 37 41  1  1  0  0  0
 38 42  1  6  0  0  0
M  CHG  6  14   1  20   1  26   1  32   1  39   1  40   1
M  END
>  <CHROM.1>
43.59031548,178.03011952,169.82668114,58.44669498,-92.57266343,-169.58797171
66.48787610,-116.07412904,-176.78791953,49.69169833,-63.04730834,59.93320410
74.35136389,-166.00010083,63.48457108,-58.16195672,61.36909583,62.43081085
-83.31349118,-170.63873664,138.11298032,171.07190440,7.77089724,-8.91624010
-3.46682223,-1.38686788,-0.38433705,-2.01023049

>  <Name>


>  <RI>
0

>  <Rbt.Current_Directory>
/home/itssahil/PROJECTS/Mol_Feturizer/New_Systems/rnas/1qd3

>  <Rbt.Executable>
rbdock ($Id: //depot/dev/client3/rdock/2013.1/src/exe/rbdock.cxx#4 $)

>  <Rbt.Library>
libRbt.so (2013.1, Build901 2013/11/27)

>  <Rbt.Parameter_File>
/export/apps/rDock/src/rDock_2013.1_src/data/scripts/dock_solv.prm

>  <Rbt.Receptor>
prm/pocket_docking_7.prm

>  <SCORE>
-35.3529

>  <SCORE.INTER>
-8.79295

>  <SCORE.INTER.CONST>
1

>  <SCORE.INTER.POLAR>
-3.04001

>  <SCORE.INTER.ROT>
9

>  <SCORE.INTER.SOLV>
11.3792

>  <SCORE.INTER.VDW>
-9.12166

>  <SCORE.INTER.norm>
-0.209356

>  <SCORE.INTRA>
-26.56

>  <SCORE.INTRA.DIHEDRAL>
-20.2432

>  <SCORE.INTRA.DIHEDRAL.0>
40.6252

>  <SCORE.INTRA.POLAR>
-0.655543

>  <SCORE.INTRA.POLAR.0>
-1.20161

>  <SCORE.INTRA.REPUL>
-0.115675

>  <SCORE.INTRA.REPUL.0>
0.115675

>  <SCORE.INTRA.SOLV>
-10.7179

>  <SCORE.INTRA.SOLV.lig_0>
-154.895

>  <SCORE.INTRA.VDW>
-8.27219

>  <SCORE.INTRA.VDW.0>
2.2925

>  <SCORE.INTRA.norm>
-0.63238

>  <SCORE.RESTR>
0

>  <SCORE.RESTR.CAVITY>
0

>  <SCORE.RESTR.norm>
0

>  <SCORE.SYSTEM>
0

>  <SCORE.SYSTEM.CONST>
0

>  <SCORE.SYSTEM.DIHEDRAL>
0

>  <SCORE.SYSTEM.SOLV>
0

>  <SCORE.SYSTEM.norm>
0

>  <SCORE.heavy>
42

>  <SCORE.norm>
-0.841736

>  <RMSD>
11.830

$$$$

 OpenBabel11021811413D
libRbt.so/2013.1/901 2013/11/27
 42 45  0  0  0  0  0  0  0  0999 V2000
   -1.5923   -9.2780    2.5728 O   0  0  0  0  0  0  0  0  0  0  0  0
   -2.5607   -8.8046    1.6478 C   0  0  0  0  0  0  0  0  0  0  0  0
   -3.4583   -7.7672    2.3235 C   0  0  1  0  0  0  0  0  0  0  0  0
   -2.6793   -6.7966    3.0563 O   0  0  0  0  0  0  0  0  0  0  0  0
   -4.2992   -6.9666    1.3430 C   0  0  2  0  0  0  0  0  0  0  0  0
   -4.6527   -5.7626    2.1998 C   0  0  1  0  0  0  0  0  0  0  0  0
   -5.6850   -6.1106    3.1158 O   0  0  0  0  0  0  0  0  0  0  0  0
   -3.3376   -5.5078    2.9642 C   0  0  2  0  0  0  0  0  0  0  0  0
   -6.4744   -4.9196   -1.2211 C   0  0  2  0  0  0  0  0  0  0  0  0
   -5.6977   -5.6733   -0.2777 O   0  0  0  0  0  0  0  0  0  0  0  0
   -6.2322   -6.9938   -0.0744 C   0  0  2  0  0  0  0  0  0  0  0  0
   -5.4641   -7.7024    0.9203 O   0  0  0  0  0  0  0  0  0  0  0  0
   -6.2506   -7.7813   -1.3958 C   0  0  2  0  0  0  0  0  0  0  0  0
   -4.9186   -8.2455   -1.7372 N   0  3  0  0  0  0  0  0  0  0  0  0
   -6.8572   -6.9873   -2.5587 C   0  0  1  0  0  0  0  0  0  0  0  0
   -8.2713   -6.9895   -2.4435 O   0  0  0  0  0  0  0  0  0  0  0  0
   -6.3504   -5.5483   -2.6031 C   0  0  2  0  0  0  0  0  0  0  0  0
   -4.9940   -5.5243   -3.0322 O   0  0  0  0  0  0  0  0  0  0  0  0
   -6.0246   -3.4616   -1.2452 C   0  0  0  0  0  0  0  0  0  0  0  0
   -5.6716   -3.0182    0.0904 N   0  3  0  0  0  0  0  0  0  0  0  0
   -3.3559    0.8425    1.5020 C   0  0  1  0  0  0  0  0  0  0  0  0
   -3.9228   -0.4455    1.8211 O   0  0  0  0  0  0  0  0  0  0  0  0
   -3.1012   -1.5553    1.3913 C   0  0  2  0  0  0  0  0  0  0  0  0
   -1.8404   -1.6060    2.1037 O   0  0  0  0  0  0  0  0  0  0  0  0
   -2.8778   -1.5068   -0.1251 C   0  0  2  0  0  0  0  0  0  0  0  0
   -1.8874   -2.4944   -0.5118 N   0  3  0  0  0  0  0  0  0  0  0  0
   -2.4167   -0.1282   -0.5846 C   0  0  1  0  0  0  0  0  0  0  0  0
   -2.4509   -0.0605   -2.0018 O   0  0  0  0  0  0  0  0  0  0  0  0
   -3.2474    1.0065   -0.0052 C   0  0  2  0  0  0  0  0  0  0  0  0
   -2.6565    2.2597   -0.3167 O   0  0  0  0  0  0  0  0  0  0  0  0
   -4.2599    1.9551    2.0250 C   0  0  0  0  0  0  0  0  0  0  0  0
   -3.6361    3.2529    1.8424 N   0  3  0  0  0  0  0  0  0  0  0  0
   -0.2401   -4.0054    5.2312 C   0  0  2  0  0  0  0  0  0  0  0  0
   -0.8367   -2.6612    5.5993 C   0  0  0  0  0  0  0  0  0  0  0  0
   -0.9816   -1.7884    4.3663 C   0  0  1  0  0  0  0  0  0  0  0  0
   -1.9111   -2.3999    3.3170 C   0  0  2  0  0  0  0  0  0  0  0  0
   -1.5155   -3.8634    3.0129 C   0  0  1  0  0  0  0  0  0  0  0  0
   -1.1195   -4.7262    4.2183 C   0  0  1  0  0  0  0  0  0  0  0  0
   -0.1070   -4.8169    6.4260 N   0  3  0  0  0  0  0  0  0  0  0  0
   -1.4584   -0.4796    4.7688 N   0  3  0  0  0  0  0  0  0  0  0  0
   -2.5333   -4.5381    2.2333 O   0  0  0  0  0  0  0  0  0  0  0  0
   -0.4654   -5.9088    3.7704 O   0  0  0  0  0  0  0  0  0  0  0  0
  1  2  1  0  0  0  0
  3  2  1  6  0  0  0
  3  4  1  0  0  0  0
  3  5  1  0  0  0  0
  4  8  1  0  0  0  0
  5  6  1  0  0  0  0
  5 12  1  1  0  0  0
  6  7  1  1  0  0  0
  6  8  1  0  0  0  0
  8 41  1  6  0  0  0
  9 10  1  0  0  0  0
  9 17  1  0  0  0  0
  9 19  1  6  0  0  0
 10 11  1  0  0  0  0
 11 12  1  1  0  0  0
 11 13  1  0  0  0  0
 13 14  1  6  0  0  0
 13 15  1  0  0  0  0
 15 16  1  1  0  0  0
 15 17  1  0  0  0  0
 17 18  1  1  0  0  0
 19 20  1  0  0  0  0
 21 22  1  0  0  0  0
 21 29  1  0  0  0  0
 21 31  1  6  0  0  0
 22 23  1  0  0  0  0
 23 24  1  1  0  0  0
 23 25  1  0  0  0  0
 25 26  1  1  0  0  0
 25 27  1  0  0  0  0
 27 28  1  6  0  0  0
 27 29  1  0  0  0  0
 29 30  1  1  0  0  0
 31 32  1  0  0  0  0
 33 34  1  0  0  0  0
 33 38  1  0  0  0  0
 33 39  1  1  0  0  0
 34 35  1  0  0  0  0
 35 36  1  0  0  0  0
 35 40  1  1  0  0  0
 36 24  1  6  0  0  0
 36 37  1  0  0  0  0
 37 38  1  0  0  0  0
 37 41  1  1  0  0  0
 38 42  1  6  0  0  0
M  CHG  6  14   1  20   1  26   1  32   1  39   1  40   1
M  END
>  <CHROM.1>
169.99833353,47.05101810,-176.37655509,-69.90203279,-83.23459638,-37.13488978
-5.93168037,141.70249298,-64.35767628,57.98093448,-83.06475618,173.79375168
89.88082422,-146.40213524,-172.93854223,64.50005298,179.75688965,-65.66834255
-51.88638623,-168.18154236,-106.10193199,167.51057593,-3.51931711,-3.88749728
1.26719210,-2.22181324,-0.91757769,-0.20233315

>  <Name>


>  <RI>
0

>  <Rbt.Current_Directory>
/home/itssahil/PROJECTS/Mol_Feturizer/New_Systems/rnas/1qd3

>  <Rbt.Executable>
rbdock ($Id: //depot/dev/client3/rdock/2013.1/src/exe/rbdock.cxx#4 $)

>  <Rbt.Library>
libRbt.so (2013.1, Build901 2013/11/27)

>  <Rbt.Parameter_File>
/export/apps/rDock/src/rDock_2013.1_src/data/scripts/dock_solv.prm

>  <Rbt.Receptor>
prm/blind_docking_100.prm

>  <SCORE>
-31.4838

>  <SCORE.INTER>
-22.6901

>  <SCORE.INTER.CONST>
1

>  <SCORE.INTER.POLAR>
-6.90343

>  <SCORE.INTER.ROT>
9

>  <SCORE.INTER.SOLV>
46.5197

>  <SCORE.INTER.VDW>
-17.2218

>  <SCORE.INTER.norm>
-0.54024

>  <SCORE.INTRA>
-10.7287

>  <SCORE.INTRA.DIHEDRAL>
-7.3782

>  <SCORE.INTRA.DIHEDRAL.0>
40.6252

>  <SCORE.INTRA.POLAR>
-0.280265

>  <SCORE.INTRA.POLAR.0>
-1.20161

>  <SCORE.INTRA.REPUL>
-0.0409078

>  <SCORE.INTRA.REPUL.0>
0.115675

>  <SCORE.INTRA.SOLV>
-3.21998

>  <SCORE.INTRA.SOLV.lig_0>
-154.895

>  <SCORE.INTRA.VDW>
-4.27218

>  <SCORE.INTRA.VDW.0>
2.2925

>  <SCORE.INTRA.norm>
-0.255445

>  <SCORE.RESTR>
1.93499

>  <SCORE.RESTR.CAVITY>
1.93499

>  <SCORE.RESTR.norm>
0.0460712

>  <SCORE.SYSTEM>
0

>  <SCORE.SYSTEM.CONST>
0

>  <SCORE.SYSTEM.DIHEDRAL>
0

>  <SCORE.SYSTEM.SOLV>
0

>  <SCORE.SYSTEM.norm>
0

>  <SCORE.heavy>
42

>  <SCORE.norm>
-0.749614

>  <RMSD>
12.965

$$$$

 OpenBabel11021811413D
libRbt.so/2013.1/901 2013/11/27
 42 45  0  0  0  0  0  0  0  0999 V2000
   -0.2268   -4.9126    3.9070 O   0  0  0  0  0  0  0  0  0  0  0  0
   -0.9872   -4.2920    2.8801 C   0  0  0  0  0  0  0  0  0  0  0  0
   -2.4040   -4.8673    2.8655 C   0  0  1  0  0  0  0  0  0  0  0  0
   -3.2842   -4.0742    2.0398 O   0  0  0  0  0  0  0  0  0  0  0  0
   -2.4761   -6.2794    2.3085 C   0  0  2  0  0  0  0  0  0  0  0  0
   -3.9524   -6.3641    1.9587 C   0  0  1  0  0  0  0  0  0  0  0  0
   -4.7157   -6.5731    3.1417 O   0  0  0  0  0  0  0  0  0  0  0  0
   -4.2358   -4.9573    1.3938 C   0  0  2  0  0  0  0  0  0  0  0  0
   -2.9743  -10.0648    1.1289 C   0  0  2  0  0  0  0  0  0  0  0  0
   -2.5000   -8.7657    1.5145 O   0  0  0  0  0  0  0  0  0  0  0  0
   -2.5130   -8.5908    2.9428 C   0  0  2  0  0  0  0  0  0  0  0  0
   -2.0867   -7.2575    3.2927 O   0  0  0  0  0  0  0  0  0  0  0  0
   -1.6138   -9.6355    3.6259 C   0  0  2  0  0  0  0  0  0  0  0  0
   -0.2132   -9.2850    3.4778 N   0  3  0  0  0  0  0  0  0  0  0  0
   -1.8662  -11.0627    3.1258 C   0  0  1  0  0  0  0  0  0  0  0  0
   -3.0483  -11.5694    3.7247 O   0  0  0  0  0  0  0  0  0  0  0  0
   -1.9943  -11.1289    1.6063 C   0  0  2  0  0  0  0  0  0  0  0  0
   -0.7216  -10.9289    1.0025 O   0  0  0  0  0  0  0  0  0  0  0  0
   -3.1647  -10.1408   -0.3833 C   0  0  0  0  0  0  0  0  0  0  0  0
   -4.5433   -9.8571   -0.7353 N   0  3  0  0  0  0  0  0  0  0  0  0
   -4.3972    0.1965    1.4504 C   0  0  1  0  0  0  0  0  0  0  0  0
   -4.4919    0.2557    0.0118 O   0  0  0  0  0  0  0  0  0  0  0  0
   -4.0375   -0.9514   -0.6423 C   0  0  2  0  0  0  0  0  0  0  0  0
   -4.8866   -2.0860   -0.3397 O   0  0  0  0  0  0  0  0  0  0  0  0
   -2.5757   -1.2435   -0.2827 C   0  0  2  0  0  0  0  0  0  0  0  0
   -2.1987   -2.5575   -0.7697 N   0  3  0  0  0  0  0  0  0  0  0  0
   -2.3405   -1.1805    1.2224 C   0  0  1  0  0  0  0  0  0  0  0  0
   -0.9474   -1.2206    1.4906 O   0  0  0  0  0  0  0  0  0  0  0  0
   -2.9441    0.0547    1.8729 C   0  0  2  0  0  0  0  0  0  0  0  0
   -2.8558   -0.0393    3.2871 O   0  0  0  0  0  0  0  0  0  0  0  0
   -4.9337    1.4872    2.0627 C   0  0  0  0  0  0  0  0  0  0  0  0
   -4.5348    2.6364    1.2709 N   0  3  0  0  0  0  0  0  0  0  0  0
   -6.6869   -5.0366   -2.8201 C   0  0  2  0  0  0  0  0  0  0  0  0
   -6.2001   -3.7581   -3.4732 C   0  0  0  0  0  0  0  0  0  0  0  0
   -5.9694   -2.6820   -2.4285 C   0  0  1  0  0  0  0  0  0  0  0  0
   -4.9051   -3.0745   -1.4028 C   0  0  2  0  0  0  0  0  0  0  0  0
   -5.1930   -4.4753   -0.8149 C   0  0  1  0  0  0  0  0  0  0  0  0
   -5.6707   -5.5446   -1.8062 C   0  0  1  0  0  0  0  0  0  0  0  0
   -6.9049   -6.0456   -3.8392 N   0  3  0  0  0  0  0  0  0  0  0  0
   -5.6035   -1.4479   -3.0959 N   0  3  0  0  0  0  0  0  0  0  0  0
   -4.0662   -4.9737   -0.0528 O   0  0  0  0  0  0  0  0  0  0  0  0
   -6.2141   -6.6522   -1.0955 O   0  0  0  0  0  0  0  0  0  0  0  0
  1  2  1  0  0  0  0
  3  2  1  6  0  0  0
  3  4  1  0  0  0  0
  3  5  1  0  0  0  0
  4  8  1  0  0  0  0
  5  6  1  0  0  0  0
  5 12  1  1  0  0  0
  6  7  1  1  0  0  0
  6  8  1  0  0  0  0
  8 41  1  6  0  0  0
  9 10  1  0  0  0  0
  9 17  1  0  0  0  0
  9 19  1  6  0  0  0
 10 11  1  0  0  0  0
 11 12  1  6  0  0  0
 11 13  1  0  0  0  0
 13 14  1  6  0  0  0
 13 15  1  0  0  0  0
 15 16  1  1  0  0  0
 15 17  1  0  0  0  0
 17 18  1  6  0  0  0
 19 20  1  0  0  0  0
 21 22  1  0  0  0  0
 21 29  1  0  0  0  0
 21 31  1  1  0  0  0
 22 23  1  0  0  0  0
 23 24  1  1  0  0  0
 23 25  1  0  0  0  0
 25 26  1  1  0  0  0
 25 27  1  0  0  0  0
 27 28  1  6  0  0  0
 27 29  1  0  0  0  0
 29 30  1  1  0  0  0
 31 32  1  0  0  0  0
 33 34  1  0  0  0  0
 33 38  1  0  0  0  0
 33 39  1  6  0  0  0
 34 35  1  0  0  0  0
 35 36  1  0  0  0  0
 35 40  1  6  0  0  0
 36 24  1  1  0  0  0
 36 37  1  0  0  0  0
 37 38  1  0  0  0  0
 37 41  1  6  0  0  0
 38 42  1  1  0  0  0
M  CHG  6  14   1  20   1  26   1  32   1  39   1  40   1
M  END
>  <CHROM.1>
86.82218854,167.69669870,162.82607131,63.18101311,-116.60887197,-95.17477390
32.92717507,163.39105506,58.59683731,-65.96797185,-110.85943784,-39.34011763
151.38739702,-86.10378969,66.45107907,-156.98308163,174.34133811,76.71342983
-168.72918726,60.08992241,106.02120600,-62.40961932,-3.50806736,-4.97976367
0.83020114,-1.23274566,-0.91912720,0.05691404

>  <Name>


>  <RI>
0

>  <Rbt.Current_Directory>
/home/itssahil/PROJECTS/Mol_Feturizer/New_Systems/rnas/1qd3

>  <Rbt.Executable>
rbdock ($Id: //depot/dev/client3/rdock/2013.1/src/exe/rbdock.cxx#4 $)

>  <Rbt.Library>
libRbt.so (2013.1, Build901 2013/11/27)

>  <Rbt.Parameter_File>
/export/apps/rDock/src/rDock_2013.1_src/data/scripts/dock_solv.prm

>  <Rbt.Receptor>
prm/blind_docking_80.prm

>  <SCORE>
-80.4227

>  <SCORE.INTER>
-70.6463

>  <SCORE.INTER.CONST>
1

>  <SCORE.INTER.POLAR>
-10.2832

>  <SCORE.INTER.ROT>
9

>  <SCORE.INTER.SOLV>
28.7602

>  <SCORE.INTER.VDW>
-32.0069

>  <SCORE.INTER.norm>
-1.68206

>  <SCORE.INTRA>
-11.2015

>  <SCORE.INTRA.DIHEDRAL>
0.325309

>  <SCORE.INTRA.DIHEDRAL.0>
40.6252

>  <SCORE.INTRA.POLAR>
0.205726

>  <SCORE.INTRA.POLAR.0>
-1.20161

>  <SCORE.INTRA.REPUL>
-0.0523309

>  <SCORE.INTRA.REPUL.0>
0.115675

>  <SCORE.INTRA.SOLV>
-7.84462

>  <SCORE.INTRA.SOLV.lig_0>
-154.895

>  <SCORE.INTRA.VDW>
-7.87967

>  <SCORE.INTRA.VDW.0>
2.2925

>  <SCORE.INTRA.norm>
-0.266703

>  <SCORE.RESTR>
1.42515

>  <SCORE.RESTR.CAVITY>
1.42515

>  <SCORE.RESTR.norm>
0.0339322

>  <SCORE.SYSTEM>
0

>  <SCORE.SYSTEM.CONST>
0

>  <SCORE.SYSTEM.DIHEDRAL>
0

>  <SCORE.SYSTEM.SOLV>
0

>  <SCORE.SYSTEM.norm>
0

>  <SCORE.heavy>
42

>  <SCORE.norm>
-1.91483

>  <RMSD>
13.170

$$$$

 OpenBabel11021811413D
libRbt.so/2013.1/901 2013/11/27
 42 45  0  0  0  0  0  0  0  0999 V2000
   -4.8130   -7.8940    0.0705 O   0  0  0  0  0  0  0  0  0  0  0  0
   -3.5490   -8.2277   -0.4850 C   0  0  0  0  0  0  0  0  0  0  0  0
   -2.7731   -6.9507   -0.8101 C   0  0  1  0  0  0  0  0  0  0  0  0
   -3.5412   -6.0715   -1.6601 O   0  0  0  0  0  0  0  0  0  0  0  0
   -2.4184   -6.1307    0.4193 C   0  0  2  0  0  0  0  0  0  0  0  0
   -2.1455   -4.7789   -0.2186 C   0  0  1  0  0  0  0  0  0  0  0  0
   -0.8621   -4.7878   -0.8340 O   0  0  0  0  0  0  0  0  0  0  0  0
   -3.2439   -4.6991   -1.2983 C   0  0  2  0  0  0  0  0  0  0  0  0
   -0.6966   -9.3969    3.4534 C   0  0  2  0  0  0  0  0  0  0  0  0
   -0.4171   -8.2480    2.6389 O   0  0  0  0  0  0  0  0  0  0  0  0
   -1.5900   -7.7802    1.9487 C   0  0  2  0  0  0  0  0  0  0  0  0
   -1.2628   -6.6633    1.0960 O   0  0  0  0  0  0  0  0  0  0  0  0
   -2.6876   -7.3836    2.9509 C   0  0  2  0  0  0  0  0  0  0  0  0
   -2.3899   -6.0999    3.5591 N   0  3  0  0  0  0  0  0  0  0  0  0
   -2.9273   -8.4464    4.0296 C   0  0  1  0  0  0  0  0  0  0  0  0
   -3.6957   -9.5067    3.4835 O   0  0  0  0  0  0  0  0  0  0  0  0
   -1.6226   -9.0000    4.5961 C   0  0  2  0  0  0  0  0  0  0  0  0
   -0.9958   -8.0214    5.4171 O   0  0  0  0  0  0  0  0  0  0  0  0
    0.5970  -10.0044    3.9885 C   0  0  0  0  0  0  0  0  0  0  0  0
    0.3612  -11.3509    4.4747 N   0  3  0  0  0  0  0  0  0  0  0  0
   -3.9187   -1.9771    1.6404 C   0  0  1  0  0  0  0  0  0  0  0  0
   -4.9509   -1.6737    0.6788 O   0  0  0  0  0  0  0  0  0  0  0  0
   -4.5497   -0.6880   -0.3004 C   0  0  2  0  0  0  0  0  0  0  0  0
   -3.4862   -1.1739   -1.1563 O   0  0  0  0  0  0  0  0  0  0  0  0
   -4.1512    0.6243    0.3857 C   0  0  2  0  0  0  0  0  0  0  0  0
   -3.5542    1.5272   -0.5807 N   0  3  0  0  0  0  0  0  0  0  0  0
   -3.1672    0.3894    1.5264 C   0  0  1  0  0  0  0  0  0  0  0  0
   -3.0109    1.5841    2.2764 O   0  0  0  0  0  0  0  0  0  0  0  0
   -3.5850   -0.7391    2.4566 C   0  0  2  0  0  0  0  0  0  0  0  0
   -2.5443   -1.0301    3.3779 O   0  0  0  0  0  0  0  0  0  0  0  0
   -4.4058   -3.0522    2.6078 C   0  0  0  0  0  0  0  0  0  0  0  0
   -5.7240   -3.5264    2.2280 N   0  3  0  0  0  0  0  0  0  0  0  0
   -6.4220   -2.8173   -3.7601 C   0  0  2  0  0  0  0  0  0  0  0  0
   -5.2668   -2.0561   -4.3799 C   0  0  0  0  0  0  0  0  0  0  0  0
   -4.5610   -1.2155   -3.3320 C   0  0  1  0  0  0  0  0  0  0  0  0
   -3.9658   -2.0582   -2.2030 C   0  0  2  0  0  0  0  0  0  0  0  0
   -5.0178   -3.0342   -1.6273 C   0  0  1  0  0  0  0  0  0  0  0  0
   -5.9295   -3.7310   -2.6459 C   0  0  1  0  0  0  0  0  0  0  0  0
   -7.0823   -3.6070   -4.7820 N   0  3  0  0  0  0  0  0  0  0  0  0
   -3.5298   -0.4265   -3.9771 N   0  3  0  0  0  0  0  0  0  0  0  0
   -4.4093   -4.0164   -0.7532 O   0  0  0  0  0  0  0  0  0  0  0  0
   -7.0422   -4.3148   -1.9766 O   0  0  0  0  0  0  0  0  0  0  0  0
  1  2  1  0  0  0  0
  3  2  1  1  0  0  0
  3  4  1  0  0  0  0
  3  5  1  0  0  0  0
  4  8  1  0  0  0  0
  5  6  1  0  0  0  0
  5 12  1  6  0  0  0
  6  7  1  6  0  0  0
  6  8  1  0  0  0  0
  8 41  1  1  0  0  0
  9 10  1  0  0  0  0
  9 17  1  0  0  0  0
  9 19  1  1  0  0  0
 10 11  1  0  0  0  0
 11 12  1  1  0  0  0
 11 13  1  0  0  0  0
 13 14  1  1  0  0  0
 13 15  1  0  0  0  0
 15 16  1  6  0  0  0
 15 17  1  0  0  0  0
 17 18  1  6  0  0  0
 19 20  1  0  0  0  0
 21 22  1  0  0  0  0
 21 29  1  0  0  0  0
 21 31  1  1  0  0  0
 22 23  1  0  0  0  0
 23 24  1  1  0  0  0
 23 25  1  0  0  0  0
 25 26  1  6  0  0  0
 25 27  1  0  0  0  0
 27 28  1  1  0  0  0
 27 29  1  0  0  0  0
 29 30  1  1  0  0  0
 31 32  1  0  0  0  0
 33 34  1  0  0  0  0
 33 38  1  0  0  0  0
 33 39  1  6  0  0  0
 34 35  1  0  0  0  0
 35 36  1  0  0  0  0
 35 40  1  6  0  0  0
 36 24  1  1  0  0  0
 36 37  1  0  0  0  0
 37 38  1  0  0  0  0
 37 41  1  6  0  0  0
 38 42  1  1  0  0  0
M  CHG  6  14   1  20   1  26   1  32   1  39   1  40   1
M  END
>  <CHROM.1>
-62.02813571,-54.48490616,-81.11289748,64.90304007,-107.01449611,-163.60913578
-177.94715410,-177.38441597,-170.85801065,-172.29269049,-27.75146743,4.02802237
78.93570357,79.39442446,-52.88746150,37.48506914,-58.17735312,-19.82579657
-172.66653671,-78.79410505,-49.60250987,55.42462087,-3.35798586,-4.49665681
0.56145460,0.70710498,1.11481586,-2.90836958

>  <Name>


>  <RI>
0

>  <Rbt.Current_Directory>
/home/itssahil/PROJECTS/Mol_Feturizer/New_Systems/rnas/1qd3

>  <Rbt.Executable>
rbdock ($Id: //depot/dev/client3/rdock/2013.1/src/exe/rbdock.cxx#4 $)

>  <Rbt.Library>
libRbt.so (2013.1, Build901 2013/11/27)

>  <Rbt.Parameter_File>
/export/apps/rDock/src/rDock_2013.1_src/data/scripts/dock_solv.prm

>  <Rbt.Receptor>
prm/blind_docking_80.prm

>  <SCORE>
-40.9612

>  <SCORE.INTER>
-33.5278

>  <SCORE.INTER.CONST>
1

>  <SCORE.INTER.POLAR>
-3.46727

>  <SCORE.INTER.ROT>
9

>  <SCORE.INTER.SOLV>
25.7846

>  <SCORE.INTER.VDW>
-28.9892

>  <SCORE.INTER.norm>
-0.798282

>  <SCORE.INTRA>
-12.0207

>  <SCORE.INTRA.DIHEDRAL>
-11.1527

>  <SCORE.INTRA.DIHEDRAL.0>
40.6252

>  <SCORE.INTRA.POLAR>
0.738985

>  <SCORE.INTRA.POLAR.0>
-1.20161

>  <SCORE.INTRA.REPUL>
-0.115675

>  <SCORE.INTRA.REPUL.0>
0.115675

>  <SCORE.INTRA.SOLV>
-6.84918

>  <SCORE.INTRA.SOLV.lig_0>
-154.895

>  <SCORE.INTRA.VDW>
-4.95388

>  <SCORE.INTRA.VDW.0>
2.2925

>  <SCORE.INTRA.norm>
-0.286206

>  <SCORE.RESTR>
4.58725

>  <SCORE.RESTR.CAVITY>
4.58725

>  <SCORE.RESTR.norm>
0.10922

>  <SCORE.SYSTEM>
0

>  <SCORE.SYSTEM.CONST>
0

>  <SCORE.SYSTEM.DIHEDRAL>
0

>  <SCORE.SYSTEM.SOLV>
0

>  <SCORE.SYSTEM.norm>
0

>  <SCORE.heavy>
42

>  <SCORE.norm>
-0.975268

>  <RMSD>
13.201

$$$$

 OpenBabel11021811413D
libRbt.so/2013.1/901 2013/11/27
 42 45  0  0  0  0  0  0  0  0999 V2000
   -3.4247   -9.8548    0.4647 O   0  0  0  0  0  0  0  0  0  0  0  0
   -3.8927   -8.9765   -0.5488 C   0  0  0  0  0  0  0  0  0  0  0  0
   -2.9371   -7.7908   -0.6882 C   0  0  1  0  0  0  0  0  0  0  0  0
   -3.5416   -6.7145   -1.4377 O   0  0  0  0  0  0  0  0  0  0  0  0
   -2.5268   -7.1867    0.6445 C   0  0  2  0  0  0  0  0  0  0  0  0
   -2.0456   -5.8183    0.1920 C   0  0  1  0  0  0  0  0  0  0  0  0
   -0.7503   -5.9314   -0.3872 O   0  0  0  0  0  0  0  0  0  0  0  0
   -3.0759   -5.4526   -0.8959 C   0  0  2  0  0  0  0  0  0  0  0  0
   -3.2578   -8.2055    4.4609 C   0  0  2  0  0  0  0  0  0  0  0  0
   -3.0482   -8.1726    3.0409 O   0  0  0  0  0  0  0  0  0  0  0  0
   -1.6545   -8.0441    2.7061 C   0  0  2  0  0  0  0  0  0  0  0  0
   -1.4843   -7.9556    1.2761 O   0  0  0  0  0  0  0  0  0  0  0  0
   -0.8498   -9.2288    3.2675 C   0  0  2  0  0  0  0  0  0  0  0  0
   -1.0545  -10.4183    2.4615 N   0  3  0  0  0  0  0  0  0  0  0  0
   -1.1584   -9.5188    4.7411 C   0  0  1  0  0  0  0  0  0  0  0  0
   -0.4883   -8.5717    5.5577 O   0  0  0  0  0  0  0  0  0  0  0  0
   -2.6552   -9.4804    5.0370 C   0  0  2  0  0  0  0  0  0  0  0  0
   -3.2911  -10.6213    4.4725 O   0  0  0  0  0  0  0  0  0  0  0  0
   -4.7457   -8.1122    4.7872 C   0  0  0  0  0  0  0  0  0  0  0  0
   -5.4091   -7.2033    3.8713 N   0  3  0  0  0  0  0  0  0  0  0  0
   -2.8482    0.8788   -0.1515 C   0  0  1  0  0  0  0  0  0  0  0  0
   -2.2113   -0.1494   -0.9385 O   0  0  0  0  0  0  0  0  0  0  0  0
   -2.6197   -1.4872   -0.5713 C   0  0  2  0  0  0  0  0  0  0  0  0
   -4.0202   -1.7255   -0.8571 O   0  0  0  0  0  0  0  0  0  0  0  0
   -2.3014   -1.7640    0.9030 C   0  0  2  0  0  0  0  0  0  0  0  0
   -2.9018   -3.0201    1.3122 N   0  3  0  0  0  0  0  0  0  0  0  0
   -2.8079   -0.6478    1.8097 C   0  0  1  0  0  0  0  0  0  0  0  0
   -2.2909   -0.8242    3.1196 O   0  0  0  0  0  0  0  0  0  0  0  0
   -2.4479    0.7424    1.3084 C   0  0  2  0  0  0  0  0  0  0  0  0
   -3.1034    1.7328    2.0869 O   0  0  0  0  0  0  0  0  0  0  0  0
   -2.3972    2.2563   -0.6286 C   0  0  0  0  0  0  0  0  0  0  0  0
   -3.0143    2.5876   -1.8999 N   0  3  0  0  0  0  0  0  0  0  0  0
   -6.3518   -4.2325   -3.3825 C   0  0  2  0  0  0  0  0  0  0  0  0
   -5.4282   -3.2242   -4.0370 C   0  0  0  0  0  0  0  0  0  0  0  0
   -4.9960   -2.1702   -3.0343 C   0  0  1  0  0  0  0  0  0  0  0  0
   -4.2228   -2.7608   -1.8544 C   0  0  2  0  0  0  0  0  0  0  0  0
   -4.9886   -3.9506   -1.2308 C   0  0  1  0  0  0  0  0  0  0  0  0
   -5.6582   -4.9197   -2.2140 C   0  0  1  0  0  0  0  0  0  0  0  0
   -6.7543   -5.2239   -4.3619 N   0  3  0  0  0  0  0  0  0  0  0  0
   -4.1987   -1.1697   -3.7166 N   0  3  0  0  0  0  0  0  0  0  0  0
   -4.1597   -4.6855   -0.2971 O   0  0  0  0  0  0  0  0  0  0  0  0
   -6.5894   -5.7434   -1.5200 O   0  0  0  0  0  0  0  0  0  0  0  0
  1  2  1  0  0  0  0
  3  2  1  1  0  0  0
  3  4  1  0  0  0  0
  3  5  1  0  0  0  0
  4  8  1  0  0  0  0
  5  6  1  0  0  0  0
  5 12  1  6  0  0  0
  6  7  1  6  0  0  0
  6  8  1  0  0  0  0
  8 41  1  1  0  0  0
  9 10  1  0  0  0  0
  9 17  1  0  0  0  0
  9 19  1  6  0  0  0
 10 11  1  0  0  0  0
 11 12  1  6  0  0  0
 11 13  1  0  0  0  0
 13 14  1  6  0  0  0
 13 15  1  0  0  0  0
 15 16  1  1  0  0  0
 15 17  1  0  0  0  0
 17 18  1  6  0  0  0
 19 20  1  0  0  0  0
 21 22  1  0  0  0  0
 21 29  1  0  0  0  0
 21 31  1  6  0  0  0
 22 23  1  0  0  0  0
 23 24  1  1  0  0  0
 23 25  1  0  0  0  0
 25 26  1  1  0  0  0
 25 27  1  0  0  0  0
 27 28  1  1  0  0  0
 27 29  1  0  0  0  0
 29 30  1  1  0  0  0
 31 32  1  0  0  0  0
 33 34  1  0  0  0  0
 33 38  1  0  0  0  0
 33 39  1  6  0  0  0
 34 35  1  0  0  0  0
 35 36  1  0  0  0  0
 35 40  1  6  0  0  0
 36 24  1  1  0  0  0
 36 37  1  0  0  0  0
 37 38  1  0  0  0  0
 37 41  1  6  0  0  0
 38 42  1  1  0  0  0
M  CHG  6  14   1  20   1  26   1  32   1  39   1  40   1
M  END
>  <CHROM.1>
65.27847841,-164.81768779,-141.49133623,168.88233171,-80.20386182,-37.58607445
37.73145465,105.38311756,-59.00585378,-144.04894376,-64.79696719,73.56491978
116.35473716,-121.17039429,-101.70593772,62.25875214,-81.10028909,60.90269484
73.74627788,-77.72050182,-70.10487769,66.22988703,-3.27855302,-4.83740586
0.55082407,1.31450077,1.08771973,2.90379941

>  <Name>


>  <RI>
0

>  <Rbt.Current_Directory>
/home/itssahil/PROJECTS/Mol_Feturizer/New_Systems/rnas/1qd3

>  <Rbt.Executable>
rbdock ($Id: //depot/dev/client3/rdock/2013.1/src/exe/rbdock.cxx#4 $)

>  <Rbt.Library>
libRbt.so (2013.1, Build901 2013/11/27)

>  <Rbt.Parameter_File>
/export/apps/rDock/src/rDock_2013.1_src/data/scripts/dock_solv.prm

>  <Rbt.Receptor>
prm/blind_docking_100.prm

>  <SCORE>
-56.6787

>  <SCORE.INTER>
-42.5928

>  <SCORE.INTER.CONST>
1

>  <SCORE.INTER.POLAR>
-4.32134

>  <SCORE.INTER.ROT>
9

>  <SCORE.INTER.SOLV>
27.851

>  <SCORE.INTER.VDW>
-32.8744

>  <SCORE.INTER.norm>
-1.01412

>  <SCORE.INTRA>
-15.6691

>  <SCORE.INTRA.DIHEDRAL>
2.70581

>  <SCORE.INTRA.DIHEDRAL.0>
40.6252

>  <SCORE.INTRA.POLAR>
-1.87557

>  <SCORE.INTRA.POLAR.0>
-1.20161

>  <SCORE.INTRA.REPUL>
-0.101139

>  <SCORE.INTRA.REPUL.0>
0.115675

>  <SCORE.INTRA.SOLV>
-4.76693

>  <SCORE.INTRA.SOLV.lig_0>
-154.895

>  <SCORE.INTRA.VDW>
-7.75596

>  <SCORE.INTRA.VDW.0>
2.2925

>  <SCORE.INTRA.norm>
-0.373075

>  <SCORE.RESTR>
1.58326

>  <SCORE.RESTR.CAVITY>
1.58326

>  <SCORE.RESTR.norm>
0.0376968

>  <SCORE.SYSTEM>
0

>  <SCORE.SYSTEM.CONST>
0

>  <SCORE.SYSTEM.DIHEDRAL>
0

>  <SCORE.SYSTEM.SOLV>
0

>  <SCORE.SYSTEM.norm>
0

>  <SCORE.heavy>
42

>  <SCORE.norm>
-1.34949

>  <RMSD>
13.233

$$$$

 OpenBabel11021811413D
libRbt.so/2013.1/901 2013/11/27
 42 45  0  0  0  0  0  0  0  0999 V2000
   -4.6417   -7.5503    2.9609 O   0  0  0  0  0  0  0  0  0  0  0  0
   -4.6006   -7.5259    1.5413 C   0  0  0  0  0  0  0  0  0  0  0  0
   -5.3207   -6.2800    1.0240 C   0  0  1  0  0  0  0  0  0  0  0  0
   -4.6104   -5.0754    1.3844 O   0  0  0  0  0  0  0  0  0  0  0  0
   -5.4531   -6.2444   -0.4895 C   0  0  2  0  0  0  0  0  0  0  0  0
   -5.7114   -4.7633   -0.7103 C   0  0  1  0  0  0  0  0  0  0  0  0
   -7.0617   -4.4564   -0.3809 O   0  0  0  0  0  0  0  0  0  0  0  0
   -4.7607   -4.1096    0.3132 C   0  0  2  0  0  0  0  0  0  0  0  0
   -4.6012  -10.1127   -1.4916 C   0  0  2  0  0  0  0  0  0  0  0  0
   -5.1160   -8.9515   -0.8222 O   0  0  0  0  0  0  0  0  0  0  0  0
   -6.0918   -8.2587   -1.6213 C   0  0  2  0  0  0  0  0  0  0  0  0
   -6.5449   -7.0674   -0.9453 O   0  0  0  0  0  0  0  0  0  0  0  0
   -7.2834   -9.1777   -1.9405 C   0  0  2  0  0  0  0  0  0  0  0  0
   -8.1526   -9.3135   -0.7861 N   0  3  0  0  0  0  0  0  0  0  0  0
   -6.8559  -10.5569   -2.4561 C   0  0  1  0  0  0  0  0  0  0  0  0
   -6.4683  -10.4515   -3.8168 O   0  0  0  0  0  0  0  0  0  0  0  0
   -5.7081  -11.1483   -1.6422 C   0  0  2  0  0  0  0  0  0  0  0  0
   -6.1787  -11.5521   -0.3615 O   0  0  0  0  0  0  0  0  0  0  0  0
   -3.4149  -10.6928   -0.7267 C   0  0  0  0  0  0  0  0  0  0  0  0
   -2.1783  -10.4398   -1.4420 N   0  3  0  0  0  0  0  0  0  0  0  0
   -3.7947    0.8874    1.7335 C   0  0  1  0  0  0  0  0  0  0  0  0
   -4.4281   -0.3611    1.3841 O   0  0  0  0  0  0  0  0  0  0  0  0
   -3.5355   -1.2933    0.7317 C   0  0  2  0  0  0  0  0  0  0  0  0
   -2.4762   -1.7396    1.6140 O   0  0  0  0  0  0  0  0  0  0  0  0
   -2.9640   -0.6844   -0.5545 C   0  0  2  0  0  0  0  0  0  0  0  0
   -1.9166   -1.5379   -1.0838 N   0  3  0  0  0  0  0  0  0  0  0  0
   -2.4001    0.7120   -0.3165 C   0  0  1  0  0  0  0  0  0  0  0  0
   -2.1022    1.3256   -1.5611 O   0  0  0  0  0  0  0  0  0  0  0  0
   -3.3363    1.6101    0.4773 C   0  0  2  0  0  0  0  0  0  0  0  0
   -2.6816    2.8214    0.8247 O   0  0  0  0  0  0  0  0  0  0  0  0
   -4.7891    1.7943    2.4527 C   0  0  0  0  0  0  0  0  0  0  0  0
   -5.8769    2.1685    1.5676 N   0  3  0  0  0  0  0  0  0  0  0  0
   -0.8382   -5.6653    1.6847 C   0  0  2  0  0  0  0  0  0  0  0  0
   -1.2302   -5.0336    3.0059 C   0  0  0  0  0  0  0  0  0  0  0  0
   -1.4048   -3.5345    2.8472 C   0  0  1  0  0  0  0  0  0  0  0  0
   -2.5074   -3.1714    1.8516 C   0  0  2  0  0  0  0  0  0  0  0  0
   -2.3209   -3.9311    0.5178 C   0  0  1  0  0  0  0  0  0  0  0  0
   -1.9002   -5.4027    0.6256 C   0  0  1  0  0  0  0  0  0  0  0  0
   -0.6723   -7.0950    1.8647 N   0  3  0  0  0  0  0  0  0  0  0  0
   -1.6789   -2.9519    4.1463 N   0  3  0  0  0  0  0  0  0  0  0  0
   -3.4890   -3.8101   -0.3306 O   0  0  0  0  0  0  0  0  0  0  0  0
   -1.4412   -5.8666   -0.6398 O   0  0  0  0  0  0  0  0  0  0  0  0
  1  2  1  0  0  0  0
  3  2  1  6  0  0  0
  3  4  1  0  0  0  0
  3  5  1  0  0  0  0
  4  8  1  0  0  0  0
  5  6  1  0  0  0  0
  5 12  1  1  0  0  0
  6  7  1  1  0  0  0
  6  8  1  0  0  0  0
  8 41  1  6  0  0  0
  9 10  1  0  0  0  0
  9 17  1  0  0  0  0
  9 19  1  1  0  0  0
 10 11  1  0  0  0  0
 11 12  1  1  0  0  0
 11 13  1  0  0  0  0
 13 14  1  1  0  0  0
 13 15  1  0  0  0  0
 15 16  1  6  0  0  0
 15 17  1  0  0  0  0
 17 18  1  1  0  0  0
 19 20  1  0  0  0  0
 21 22  1  0  0  0  0
 21 29  1  0  0  0  0
 21 31  1  6  0  0  0
 22 23  1  0  0  0  0
 23 24  1  1  0  0  0
 23 25  1  0  0  0  0
 25 26  1  1  0  0  0
 25 27  1  0  0  0  0
 27 28  1  6  0  0  0
 27 29  1  0  0  0  0
 29 30  1  1  0  0  0
 31 32  1  0  0  0  0
 33 34  1  0  0  0  0
 33 38  1  0  0  0  0
 33 39  1  1  0  0  0
 34 35  1  0  0  0  0
 35 36  1  0  0  0  0
 35 40  1  1  0  0  0
 36 24  1  6  0  0  0
 36 37  1  0  0  0  0
 37 38  1  0  0  0  0
 37 41  1  1  0  0  0
 38 42  1  6  0  0  0
M  CHG  6  14   1  20   1  26   1  32   1  39   1  40   1
M  END
>  <CHROM.1>
65.15500925,66.89815572,-108.98212139,-56.97602200,-29.29292587,-108.02903780
50.71449142,-55.97045957,75.31920459,-69.15039026,-168.71971556,-64.74920860
118.16185378,-177.00489965,55.10013311,-176.52947560,-174.62986120,114.14613453
-77.21389291,167.18369877,-49.80357551,169.46194478,-4.01382313,-4.87268218
0.24832663,-1.82527285,-0.50302256,0.08483008

>  <Name>


>  <RI>
0

>  <Rbt.Current_Directory>
/home/itssahil/PROJECTS/Mol_Feturizer/New_Systems/rnas/1qd3

>  <Rbt.Executable>
rbdock ($Id: //depot/dev/client3/rdock/2013.1/src/exe/rbdock.cxx#4 $)

>  <Rbt.Library>
libRbt.so (2013.1, Build901 2013/11/27)

>  <Rbt.Parameter_File>
/export/apps/rDock/src/rDock_2013.1_src/data/scripts/dock_solv.prm

>  <Rbt.Receptor>
prm/blind_docking_20.prm

>  <SCORE>
-76.5325

>  <SCORE.INTER>
-61.7925

>  <SCORE.INTER.CONST>
1

>  <SCORE.INTER.POLAR>
-10.1245

>  <SCORE.INTER.ROT>
9

>  <SCORE.INTER.SOLV>
54.2476

>  <SCORE.INTER.VDW>
-35.1291

>  <SCORE.INTER.norm>
-1.47125

>  <SCORE.INTRA>
-15.1786

>  <SCORE.INTRA.DIHEDRAL>
-8.21172

>  <SCORE.INTRA.DIHEDRAL.0>
40.6252

>  <SCORE.INTRA.POLAR>
0.137931

>  <SCORE.INTRA.POLAR.0>
-1.20161

>  <SCORE.INTRA.REPUL>
-0.115675

>  <SCORE.INTRA.REPUL.0>
0.115675

>  <SCORE.INTRA.SOLV>
-10.0061

>  <SCORE.INTRA.SOLV.lig_0>
-154.895

>  <SCORE.INTRA.VDW>
-5.96029

>  <SCORE.INTRA.VDW.0>
2.2925

>  <SCORE.INTRA.norm>
-0.361395

>  <SCORE.RESTR>
0.438552

>  <SCORE.RESTR.CAVITY>
0.438552

>  <SCORE.RESTR.norm>
0.0104417

>  <SCORE.SYSTEM>
0

>  <SCORE.SYSTEM.CONST>
0

>  <SCORE.SYSTEM.DIHEDRAL>
0

>  <SCORE.SYSTEM.SOLV>
0

>  <SCORE.SYSTEM.norm>
0

>  <SCORE.heavy>
42

>  <SCORE.norm>
-1.8222

>  <RMSD>
13.249

$$$$

 OpenBabel11021811413D
libRbt.so/2013.1/901 2013/11/27
 42 45  0  0  0  0  0  0  0  0999 V2000
   -6.6630   -6.8562    2.7912 O   0  0  0  0  0  0  0  0  0  0  0  0
   -5.9997   -5.8761    2.0056 C   0  0  0  0  0  0  0  0  0  0  0  0
   -5.6190   -6.4708    0.6491 C   0  0  1  0  0  0  0  0  0  0  0  0
   -5.9625   -5.5762   -0.4313 O   0  0  0  0  0  0  0  0  0  0  0  0
   -4.1304   -6.7403    0.5048 C   0  0  2  0  0  0  0  0  0  0  0  0
   -4.0086   -6.8200   -1.0077 C   0  0  1  0  0  0  0  0  0  0  0  0
   -4.4884   -8.0804   -1.4630 O   0  0  0  0  0  0  0  0  0  0  0  0
   -4.9599   -5.6984   -1.4719 C   0  0  2  0  0  0  0  0  0  0  0  0
   -1.2427   -6.5935    3.4275 C   0  0  2  0  0  0  0  0  0  0  0  0
   -2.5071   -6.7647    2.7692 O   0  0  0  0  0  0  0  0  0  0  0  0
   -2.4844   -7.8620    1.8385 C   0  0  2  0  0  0  0  0  0  0  0  0
   -3.7494   -7.9697    1.1532 O   0  0  0  0  0  0  0  0  0  0  0  0
   -2.1542   -9.1795    2.5606 C   0  0  2  0  0  0  0  0  0  0  0  0
   -3.3085   -9.6696    3.2912 N   0  3  0  0  0  0  0  0  0  0  0  0
   -0.9393   -9.0664    3.4891 C   0  0  1  0  0  0  0  0  0  0  0  0
    0.2494   -9.0982    2.7152 O   0  0  0  0  0  0  0  0  0  0  0  0
   -0.9690   -7.7915    4.3277 C   0  0  2  0  0  0  0  0  0  0  0  0
   -1.9753   -7.8921    5.3286 O   0  0  0  0  0  0  0  0  0  0  0  0
   -1.2256   -5.2957    4.2302 C   0  0  0  0  0  0  0  0  0  0  0  0
    0.0469   -5.1364    4.9087 N   0  3  0  0  0  0  0  0  0  0  0  0
   -3.5159    1.2050    0.0057 C   0  0  1  0  0  0  0  0  0  0  0  0
   -2.6464    0.3672   -0.7844 O   0  0  0  0  0  0  0  0  0  0  0  0
   -2.7169   -1.0317   -0.4247 C   0  0  2  0  0  0  0  0  0  0  0  0
   -4.0166   -1.6027   -0.7154 O   0  0  0  0  0  0  0  0  0  0  0  0
   -2.3429   -1.2303    1.0492 C   0  0  2  0  0  0  0  0  0  0  0  0
   -2.6196   -2.5971    1.4507 N   0  3  0  0  0  0  0  0  0  0  0  0
   -3.1075   -0.2760    1.9597 C   0  0  1  0  0  0  0  0  0  0  0  0
   -2.5650   -0.3280    3.2701 O   0  0  0  0  0  0  0  0  0  0  0  0
   -3.0965    1.1626    1.4660 C   0  0  2  0  0  0  0  0  0  0  0  0
   -3.9748    1.9592    2.2474 O   0  0  0  0  0  0  0  0  0  0  0  0
   -3.4135    2.6534   -0.4636 C   0  0  0  0  0  0  0  0  0  0  0  0
   -4.7062    3.3096   -0.3918 N   0  3  0  0  0  0  0  0  0  0  0  0
   -6.1607   -2.5167   -4.2744 C   0  0  2  0  0  0  0  0  0  0  0  0
   -5.1885   -1.3540   -4.3077 C   0  0  0  0  0  0  0  0  0  0  0  0
   -4.8292   -0.9210   -2.8984 C   0  0  1  0  0  0  0  0  0  0  0  0
   -4.1473   -2.0305   -2.0965 C   0  0  2  0  0  0  0  0  0  0  0  0
   -4.9603   -3.3438   -2.1667 C   0  0  1  0  0  0  0  0  0  0  0  0
   -5.5575   -3.7025   -3.5338 C   0  0  1  0  0  0  0  0  0  0  0  0
   -6.4919   -2.9068   -5.6317 N   0  3  0  0  0  0  0  0  0  0  0  0
   -3.9809    0.2528   -2.9678 N   0  3  0  0  0  0  0  0  0  0  0  0
   -4.2049   -4.4650   -1.6460 O   0  0  0  0  0  0  0  0  0  0  0  0
   -6.5398   -4.7214   -3.3782 O   0  0  0  0  0  0  0  0  0  0  0  0
  1  2  1  0  0  0  0
  3  2  1  1  0  0  0
  3  4  1  0  0  0  0
  3  5  1  0  0  0  0
  4  8  1  0  0  0  0
  5  6  1  0  0  0  0
  5 12  1  1  0  0  0
  6  7  1  6  0  0  0
  6  8  1  0  0  0  0
  8 41  1  1  0  0  0
  9 10  1  0  0  0  0
  9 17  1  0  0  0  0
  9 19  1  1  0  0  0
 10 11  1  0  0  0  0
 11 12  1  1  0  0  0
 11 13  1  0  0  0  0
 13 14  1  1  0  0  0
 13 15  1  0  0  0  0
 15 16  1  6  0  0  0
 15 17  1  0  0  0  0
 17 18  1  1  0  0  0
 19 20  1  0  0  0  0
 21 22  1  0  0  0  0
 21 29  1  0  0  0  0
 21 31  1  6  0  0  0
 22 23  1  0  0  0  0
 23 24  1  1  0  0  0
 23 25  1  0  0  0  0
 25 26  1  1  0  0  0
 25 27  1  0  0  0  0
 27 28  1  1  0  0  0
 27 29  1  0  0  0  0
 29 30  1  1  0  0  0
 31 32  1  0  0  0  0
 33 34  1  0  0  0  0
 33 38  1  0  0  0  0
 33 39  1  6  0  0  0
 34 35  1  0  0  0  0
 35 36  1  0  0  0  0
 35 40  1  6  0  0  0
 36 24  1  1  0  0  0
 36 37  1  0  0  0  0
 37 38  1  0  0  0  0
 37 41  1  6  0  0  0
 38 42  1  1  0  0  0
M  CHG  6  14   1  20   1  26   1  32   1  39   1  40   1
M  END
>  <CHROM.1>
-57.76676515,133.82846327,-140.18139311,-179.96927396,-67.01902360,179.19199505
54.92570171,-157.23070546,72.36717950,-172.06993506,41.13634961,143.35511301
83.77917203,-96.13759973,-41.14288940,46.33029644,55.49210693,81.76637891
177.43328195,121.86583051,170.54429468,67.92194845,-3.64809413,-3.97011034
0.44468164,1.12459611,1.02856477,3.00694060

>  <Name>


>  <RI>
0

>  <Rbt.Current_Directory>
/home/itssahil/PROJECTS/Mol_Feturizer/New_Systems/rnas/1qd3

>  <Rbt.Executable>
rbdock ($Id: //depot/dev/client3/rdock/2013.1/src/exe/rbdock.cxx#4 $)

>  <Rbt.Library>
libRbt.so (2013.1, Build901 2013/11/27)

>  <Rbt.Parameter_File>
/export/apps/rDock/src/rDock_2013.1_src/data/scripts/dock_solv.prm

>  <Rbt.Receptor>
prm/blind_docking_20.prm

>  <SCORE>
-59.544

>  <SCORE.INTER>
-45.3734

>  <SCORE.INTER.CONST>
1

>  <SCORE.INTER.POLAR>
-4.87712

>  <SCORE.INTER.ROT>
9

>  <SCORE.INTER.SOLV>
28.917

>  <SCORE.INTER.VDW>
-33.2309

>  <SCORE.INTER.norm>
-1.08032

>  <SCORE.INTRA>
-15.2093

>  <SCORE.INTRA.DIHEDRAL>
-9.85107

>  <SCORE.INTRA.DIHEDRAL.0>
40.6252

>  <SCORE.INTRA.POLAR>
0.0913515

>  <SCORE.INTRA.POLAR.0>
-1.20161

>  <SCORE.INTRA.REPUL>
-0.115675

>  <SCORE.INTRA.REPUL.0>
0.115675

>  <SCORE.INTRA.SOLV>
-6.25729

>  <SCORE.INTRA.SOLV.lig_0>
-154.895

>  <SCORE.INTRA.VDW>
-6.88731

>  <SCORE.INTRA.VDW.0>
2.2925

>  <SCORE.INTRA.norm>
-0.362125

>  <SCORE.RESTR>
1.03874

>  <SCORE.RESTR.CAVITY>
1.03874

>  <SCORE.RESTR.norm>
0.024732

>  <SCORE.SYSTEM>
0

>  <SCORE.SYSTEM.CONST>
0

>  <SCORE.SYSTEM.DIHEDRAL>
0

>  <SCORE.SYSTEM.SOLV>
0

>  <SCORE.SYSTEM.norm>
0

>  <SCORE.heavy>
42

>  <SCORE.norm>
-1.41771

>  <RMSD>
13.331

$$$$

 OpenBabel11021811413D
libRbt.so/2013.1/901 2013/11/27
 42 45  0  0  0  0  0  0  0  0999 V2000
   -0.6018   -6.4819    0.7146 O   0  0  0  0  0  0  0  0  0  0  0  0
   -1.3194   -5.8421   -0.3311 C   0  0  0  0  0  0  0  0  0  0  0  0
   -2.8087   -5.8004    0.0133 C   0  0  1  0  0  0  0  0  0  0  0  0
   -3.4238   -4.5836   -0.4631 O   0  0  0  0  0  0  0  0  0  0  0  0
   -3.6039   -6.9362   -0.6088 C   0  0  2  0  0  0  0  0  0  0  0  0
   -5.0101   -6.3659   -0.5295 C   0  0  1  0  0  0  0  0  0  0  0  0
   -5.5008   -6.4796    0.8018 O   0  0  0  0  0  0  0  0  0  0  0  0
   -4.7810   -4.8812   -0.8785 C   0  0  2  0  0  0  0  0  0  0  0  0
   -5.9601   -9.7882   -1.9646 C   0  0  2  0  0  0  0  0  0  0  0  0
   -4.9900   -8.8191   -1.5389 O   0  0  0  0  0  0  0  0  0  0  0  0
   -4.3870   -9.1782   -0.2826 C   0  0  2  0  0  0  0  0  0  0  0  0
   -3.4618   -8.1568    0.1442 O   0  0  0  0  0  0  0  0  0  0  0  0
   -3.6711  -10.5354   -0.3922 C   0  0  2  0  0  0  0  0  0  0  0  0
   -2.4078  -10.3959   -1.0928 N   0  3  0  0  0  0  0  0  0  0  0  0
   -4.5345  -11.6172   -1.0518 C   0  0  1  0  0  0  0  0  0  0  0  0
   -5.4817  -12.1011   -0.1129 O   0  0  0  0  0  0  0  0  0  0  0  0
   -5.2609  -11.1016   -2.2911 C   0  0  2  0  0  0  0  0  0  0  0  0
   -4.3339  -10.9121   -3.3537 O   0  0  0  0  0  0  0  0  0  0  0  0
   -6.7406   -9.2737   -3.1709 C   0  0  0  0  0  0  0  0  0  0  0  0
   -7.9717  -10.0238   -3.3351 N   0  3  0  0  0  0  0  0  0  0  0  0
   -4.0639    0.5536    0.0592 C   0  0  1  0  0  0  0  0  0  0  0  0
   -3.2857    0.2532   -1.1182 O   0  0  0  0  0  0  0  0  0  0  0  0
   -2.8113   -1.1124   -1.1582 C   0  0  2  0  0  0  0  0  0  0  0  0
   -3.8991   -2.0624   -1.2762 O   0  0  0  0  0  0  0  0  0  0  0  0
   -1.9408   -1.4181    0.0667 C   0  0  2  0  0  0  0  0  0  0  0  0
   -1.6476   -2.8381    0.1242 N   0  3  0  0  0  0  0  0  0  0  0  0
   -2.6212   -0.9940    1.3636 C   0  0  1  0  0  0  0  0  0  0  0  0
   -1.6963   -1.0746    2.4371 O   0  0  0  0  0  0  0  0  0  0  0  0
   -3.2042    0.4095    1.3043 C   0  0  2  0  0  0  0  0  0  0  0  0
   -3.9807    0.6708    2.4642 O   0  0  0  0  0  0  0  0  0  0  0  0
   -4.5601    1.9957    0.0034 C   0  0  0  0  0  0  0  0  0  0  0  0
   -6.0096    2.0386   -0.0576 N   0  3  0  0  0  0  0  0  0  0  0  0
   -6.4968   -2.0921   -4.6453 C   0  0  2  0  0  0  0  0  0  0  0  0
   -5.2412   -1.2461   -4.7219 C   0  0  0  0  0  0  0  0  0  0  0  0
   -4.6604   -1.0302   -3.3367 C   0  0  1  0  0  0  0  0  0  0  0  0
   -4.2577   -2.3389   -2.6555 C   0  0  2  0  0  0  0  0  0  0  0  0
   -5.4123   -3.3661   -2.7040 C   0  0  1  0  0  0  0  0  0  0  0  0
   -6.1960   -3.4478   -4.0206 C   0  0  1  0  0  0  0  0  0  0  0  0
   -7.0344   -2.2785   -5.9795 N   0  3  0  0  0  0  0  0  0  0  0  0
   -3.5229   -0.1366   -3.4366 N   0  3  0  0  0  0  0  0  0  0  0  0
   -4.9657   -4.6868   -2.3101 O   0  0  0  0  0  0  0  0  0  0  0  0
   -7.4106   -4.1617   -3.8150 O   0  0  0  0  0  0  0  0  0  0  0  0
  1  2  1  0  0  0  0
  3  2  1  6  0  0  0
  3  4  1  0  0  0  0
  3  5  1  0  0  0  0
  4  8  1  0  0  0  0
  5  6  1  0  0  0  0
  5 12  1  1  0  0  0
  6  7  1  1  0  0  0
  6  8  1  0  0  0  0
  8 41  1  6  0  0  0
  9 10  1  0  0  0  0
  9 17  1  0  0  0  0
  9 19  1  6  0  0  0
 10 11  1  0  0  0  0
 11 12  1  6  0  0  0
 11 13  1  0  0  0  0
 13 14  1  6  0  0  0
 13 15  1  0  0  0  0
 15 16  1  1  0  0  0
 15 17  1  0  0  0  0
 17 18  1  6  0  0  0
 19 20  1  0  0  0  0
 21 22  1  0  0  0  0
 21 29  1  0  0  0  0
 21 31  1  6  0  0  0
 22 23  1  0  0  0  0
 23 24  1  1  0  0  0
 23 25  1  0  0  0  0
 25 26  1  1  0  0  0
 25 27  1  0  0  0  0
 27 28  1  1  0  0  0
 27 29  1  0  0  0  0
 29 30  1  1  0  0  0
 31 32  1  0  0  0  0
 33 34  1  0  0  0  0
 33 38  1  0  0  0  0
 33 39  1  6  0  0  0
 34 35  1  0  0  0  0
 35 36  1  0  0  0  0
 35 40  1  6  0  0  0
 36 24  1  1  0  0  0
 36 37  1  0  0  0  0
 37 38  1  0  0  0  0
 37 41  1  6  0  0  0
 38 42  1  1  0  0  0
M  CHG  6  14   1  20   1  26   1  32   1  39   1  40   1
M  END
>  <CHROM.1>
-62.29246230,144.58133212,169.61883793,62.06577073,-91.34902835,-161.72946661
13.27886065,45.32081241,64.00910240,-76.22906560,-154.26612911,116.29325703
88.63710822,-58.67767485,100.34307391,-30.05648337,61.21497293,-51.47141426
54.13383528,148.42635123,76.66404060,-54.37499359,-4.31740856,-4.71657351
-1.25549108,-1.71442947,-0.89352946,-0.03167294

>  <Name>


>  <RI>
0

>  <Rbt.Current_Directory>
/home/itssahil/PROJECTS/Mol_Feturizer/New_Systems/rnas/1qd3

>  <Rbt.Executable>
rbdock ($Id: //depot/dev/client3/rdock/2013.1/src/exe/rbdock.cxx#4 $)

>  <Rbt.Library>
libRbt.so (2013.1, Build901 2013/11/27)

>  <Rbt.Parameter_File>
/export/apps/rDock/src/rDock_2013.1_src/data/scripts/dock_solv.prm

>  <Rbt.Receptor>
prm/blind_docking_20.prm

>  <SCORE>
-49.9995

>  <SCORE.INTER>
-47.5157

>  <SCORE.INTER.CONST>
1

>  <SCORE.INTER.POLAR>
-6.53882

>  <SCORE.INTER.ROT>
9

>  <SCORE.INTER.SOLV>
30.5565

>  <SCORE.INTER.VDW>
-29.6666

>  <SCORE.INTER.norm>
-1.13133

>  <SCORE.INTRA>
-3.28916

>  <SCORE.INTRA.DIHEDRAL>
-1.47265

>  <SCORE.INTRA.DIHEDRAL.0>
40.6252

>  <SCORE.INTRA.POLAR>
-0.632111

>  <SCORE.INTRA.POLAR.0>
-1.20161

>  <SCORE.INTRA.REPUL>
0.00906963

>  <SCORE.INTRA.REPUL.0>
0.115675

>  <SCORE.INTRA.SOLV>
-4.59438

>  <SCORE.INTRA.SOLV.lig_0>
-154.895

>  <SCORE.INTRA.VDW>
1.84819

>  <SCORE.INTRA.VDW.0>
2.2925

>  <SCORE.INTRA.norm>
-0.0783133

>  <SCORE.RESTR>
0.805379

>  <SCORE.RESTR.CAVITY>
0.805379

>  <SCORE.RESTR.norm>
0.0191757

>  <SCORE.SYSTEM>
0

>  <SCORE.SYSTEM.CONST>
0

>  <SCORE.SYSTEM.DIHEDRAL>
0

>  <SCORE.SYSTEM.SOLV>
0

>  <SCORE.SYSTEM.norm>
0

>  <SCORE.heavy>
42

>  <SCORE.norm>
-1.19046

>  <RMSD>
13.345

$$$$

 OpenBabel11021811413D
libRbt.so/2013.1/901 2013/11/27
 42 45  0  0  0  0  0  0  0  0999 V2000
   -5.5842   -6.5468   -0.8251 O   0  0  0  0  0  0  0  0  0  0  0  0
   -4.2696   -6.9391   -1.1934 C   0  0  0  0  0  0  0  0  0  0  0  0
   -3.3882   -5.7010   -1.3624 C   0  0  1  0  0  0  0  0  0  0  0  0
   -4.0097   -4.7286   -2.2307 O   0  0  0  0  0  0  0  0  0  0  0  0
   -3.1133   -4.9732   -0.0570 C   0  0  2  0  0  0  0  0  0  0  0  0
   -2.6945   -3.6103   -0.5824 C   0  0  1  0  0  0  0  0  0  0  0  0
   -1.3573   -3.6717   -1.0662 O   0  0  0  0  0  0  0  0  0  0  0  0
   -3.6686   -3.4002   -1.7595 C   0  0  2  0  0  0  0  0  0  0  0  0
   -2.7327   -8.6639    2.6021 C   0  0  2  0  0  0  0  0  0  0  0  0
   -2.1857   -7.8086    1.5869 O   0  0  0  0  0  0  0  0  0  0  0  0
   -2.5859   -6.4379    1.7658 C   0  0  2  0  0  0  0  0  0  0  0  0
   -2.0683   -5.6168    0.6984 O   0  0  0  0  0  0  0  0  0  0  0  0
   -2.1085   -5.9064    3.1282 C   0  0  2  0  0  0  0  0  0  0  0  0
   -0.6880   -5.6104    3.0963 N   0  3  0  0  0  0  0  0  0  0  0  0
   -2.4338   -6.8538    4.2890 C   0  0  1  0  0  0  0  0  0  0  0  0
   -3.8054   -6.7281    4.6292 O   0  0  0  0  0  0  0  0  0  0  0  0
   -2.1223   -8.3095    3.9521 C   0  0  2  0  0  0  0  0  0  0  0  0
   -0.7140   -8.5100    3.9207 O   0  0  0  0  0  0  0  0  0  0  0  0
   -2.4835  -10.1304    2.2614 C   0  0  0  0  0  0  0  0  0  0  0  0
   -3.1519  -10.4834    1.0230 N   0  3  0  0  0  0  0  0  0  0  0  0
   -3.9710   -1.1586    1.3311 C   0  0  1  0  0  0  0  0  0  0  0  0
   -5.1094   -1.0982    0.4466 O   0  0  0  0  0  0  0  0  0  0  0  0
   -5.1754    0.1269   -0.3191 C   0  0  2  0  0  0  0  0  0  0  0  0
   -4.0732    0.2445   -1.2524 O   0  0  0  0  0  0  0  0  0  0  0  0
   -5.2433    1.3433    0.6122 C   0  0  2  0  0  0  0  0  0  0  0  0
   -5.0965    2.5650   -0.1570 N   0  3  0  0  0  0  0  0  0  0  0  0
   -4.1619    1.2942    1.6858 C   0  0  1  0  0  0  0  0  0  0  0  0
   -4.4058    2.3005    2.6563 O   0  0  0  0  0  0  0  0  0  0  0  0
   -4.0618   -0.0578    2.3753 C   0  0  2  0  0  0  0  0  0  0  0  0
   -2.9231   -0.0965    3.2229 O   0  0  0  0  0  0  0  0  0  0  0  0
   -3.9521   -2.4950    2.0675 C   0  0  0  0  0  0  0  0  0  0  0  0
   -5.3006   -2.9991    2.2526 N   0  3  0  0  0  0  0  0  0  0  0  0
   -6.2791   -1.3002   -4.5460 C   0  0  2  0  0  0  0  0  0  0  0  0
   -5.0827   -0.4174   -4.8417 C   0  0  0  0  0  0  0  0  0  0  0  0
   -4.6727    0.3552   -3.6016 C   0  0  1  0  0  0  0  0  0  0  0  0
   -4.2593   -0.5588   -2.4472 C   0  0  2  0  0  0  0  0  0  0  0  0
   -5.3296   -1.6448   -2.1906 C   0  0  1  0  0  0  0  0  0  0  0  0
   -5.9574   -2.2891   -3.4336 C   0  0  1  0  0  0  0  0  0  0  0  0
   -6.6538   -2.0222   -5.7469 N   0  3  0  0  0  0  0  0  0  0  0  0
   -3.5941    1.2610   -3.9459 N   0  3  0  0  0  0  0  0  0  0  0  0
   -4.8405   -2.6717   -1.2933 O   0  0  0  0  0  0  0  0  0  0  0  0
   -7.1361   -2.9979   -3.0658 O   0  0  0  0  0  0  0  0  0  0  0  0
  1  2  1  0  0  0  0
  3  2  1  1  0  0  0
  3  4  1  0  0  0  0
  3  5  1  0  0  0  0
  4  8  1  0  0  0  0
  5  6  1  0  0  0  0
  5 12  1  6  0  0  0
  6  7  1  6  0  0  0
  6  8  1  0  0  0  0
  8 41  1  1  0  0  0
  9 10  1  0  0  0  0
  9 17  1  0  0  0  0
  9 19  1  6  0  0  0
 10 11  1  0  0  0  0
 11 12  1  6  0  0  0
 11 13  1  0  0  0  0
 13 14  1  6  0  0  0
 13 15  1  0  0  0  0
 15 16  1  6  0  0  0
 15 17  1  0  0  0  0
 17 18  1  6  0  0  0
 19 20  1  0  0  0  0
 21 22  1  0  0  0  0
 21 29  1  0  0  0  0
 21 31  1  1  0  0  0
 22 23  1  0  0  0  0
 23 24  1  1  0  0  0
 23 25  1  0  0  0  0
 25 26  1  6  0  0  0
 25 27  1  0  0  0  0
 27 28  1  1  0  0  0
 27 29  1  0  0  0  0
 29 30  1  1  0  0  0
 31 32  1  0  0  0  0
 33 34  1  0  0  0  0
 33 38  1  0  0  0  0
 33 39  1  6  0  0  0
 34 35  1  0  0  0  0
 35 36  1  0  0  0  0
 35 40  1  6  0  0  0
 36 24  1  1  0  0  0
 36 37  1  0  0  0  0
 37 38  1  0  0  0  0
 37 41  1  1  0  0  0
 38 42  1  1  0  0  0
M  CHG  6  14   1  20   1  26   1  32   1  39   1  40   1
M  END
>  <CHROM.1>
-162.73421314,-51.01850684,-100.57739025,-153.59449571,-104.43521924,-62.40810431
119.63727009,-73.32650540,-67.94794055,-61.18220926,-172.95997420,-29.93131720
78.35425115,103.46533114,61.19763856,-42.12667421,56.87835000,131.37945938
-54.58308332,-42.79963919,-60.35906120,-54.27838082,-3.86452594,-3.41324193
0.09698542,0.62299403,1.22370598,-2.73262895

>  <Name>


>  <RI>
0

>  <Rbt.Current_Directory>
/home/itssahil/PROJECTS/Mol_Feturizer/New_Systems/rnas/1qd3

>  <Rbt.Executable>
rbdock ($Id: //depot/dev/client3/rdock/2013.1/src/exe/rbdock.cxx#4 $)

>  <Rbt.Library>
libRbt.so (2013.1, Build901 2013/11/27)

>  <Rbt.Parameter_File>
/export/apps/rDock/src/rDock_2013.1_src/data/scripts/dock_solv.prm

>  <Rbt.Receptor>
prm/blind_docking_20.prm

>  <SCORE>
-53.4648

>  <SCORE.INTER>
-46.2587

>  <SCORE.INTER.CONST>
1

>  <SCORE.INTER.POLAR>
-6.18075

>  <SCORE.INTER.ROT>
9

>  <SCORE.INTER.SOLV>
27.0759

>  <SCORE.INTER.VDW>
-28.8619

>  <SCORE.INTER.norm>
-1.1014

>  <SCORE.INTRA>
-7.50208

>  <SCORE.INTRA.DIHEDRAL>
1.41556

>  <SCORE.INTRA.DIHEDRAL.0>
40.6252

>  <SCORE.INTRA.POLAR>
0.642963

>  <SCORE.INTRA.POLAR.0>
-1.20161

>  <SCORE.INTRA.REPUL>
-0.115675

>  <SCORE.INTRA.REPUL.0>
0.115675

>  <SCORE.INTRA.SOLV>
-11.7966

>  <SCORE.INTRA.SOLV.lig_0>
-154.895

>  <SCORE.INTRA.VDW>
-3.91924

>  <SCORE.INTRA.VDW.0>
2.2925

>  <SCORE.INTRA.norm>
-0.178621

>  <SCORE.RESTR>
0.295936

>  <SCORE.RESTR.CAVITY>
0.295936

>  <SCORE.RESTR.norm>
0.00704609

>  <SCORE.SYSTEM>
0

>  <SCORE.SYSTEM.CONST>
0

>  <SCORE.SYSTEM.DIHEDRAL>
0

>  <SCORE.SYSTEM.SOLV>
0

>  <SCORE.SYSTEM.norm>
0

>  <SCORE.heavy>
42

>  <SCORE.norm>
-1.27297

>  <RMSD>
13.349

$$$$

 OpenBabel11021811413D
libRbt.so/2013.1/901 2013/11/27
 42 45  0  0  0  0  0  0  0  0999 V2000
   -5.9269   -8.0295   -0.6541 O   0  0  0  0  0  0  0  0  0  0  0  0
   -4.7851   -8.4811   -1.3682 C   0  0  0  0  0  0  0  0  0  0  0  0
   -3.7453   -7.3623   -1.4430 C   0  0  1  0  0  0  0  0  0  0  0  0
   -4.2341   -6.2419   -2.2121 O   0  0  0  0  0  0  0  0  0  0  0  0
   -3.3683   -6.7971   -0.0836 C   0  0  2  0  0  0  0  0  0  0  0  0
   -2.7718   -5.4614   -0.4947 C   0  0  1  0  0  0  0  0  0  0  0  0
   -1.4575   -5.6582   -1.0045 O   0  0  0  0  0  0  0  0  0  0  0  0
   -3.7143   -5.0186   -1.6322 C   0  0  2  0  0  0  0  0  0  0  0  0
   -3.7606   -7.7128    3.9914 C   0  0  2  0  0  0  0  0  0  0  0  0
   -3.6809   -7.9333    2.5749 O   0  0  0  0  0  0  0  0  0  0  0  0
   -2.4393   -7.4562    2.0256 C   0  0  2  0  0  0  0  0  0  0  0  0
   -2.4160   -7.6397    0.5947 O   0  0  0  0  0  0  0  0  0  0  0  0
   -1.2457   -8.1764    2.6760 C   0  0  2  0  0  0  0  0  0  0  0  0
   -1.1015   -9.5186    2.1429 N   0  3  0  0  0  0  0  0  0  0  0  0
   -1.3285   -8.2123    4.2066 C   0  0  1  0  0  0  0  0  0  0  0  0
   -0.9537   -6.9473    4.7283 O   0  0  0  0  0  0  0  0  0  0  0  0
   -2.7257   -8.5758    4.7018 C   0  0  2  0  0  0  0  0  0  0  0  0
   -2.9848   -9.9532    4.4564 O   0  0  0  0  0  0  0  0  0  0  0  0
   -5.1654   -8.0159    4.5047 C   0  0  0  0  0  0  0  0  0  0  0  0
   -6.1584   -7.3344    3.6957 N   0  3  0  0  0  0  0  0  0  0  0  0
   -3.4939    1.5982   -0.5809 C   0  0  1  0  0  0  0  0  0  0  0  0
   -2.7085    0.7056   -1.3986 O   0  0  0  0  0  0  0  0  0  0  0  0
   -2.7077   -0.6588   -0.9192 C   0  0  2  0  0  0  0  0  0  0  0  0
   -4.0211   -1.2650   -1.0028 O   0  0  0  0  0  0  0  0  0  0  0  0
   -2.1563   -0.7291    0.5100 C   0  0  2  0  0  0  0  0  0  0  0  0
   -2.3557   -2.0599    1.0531 N   0  3  0  0  0  0  0  0  0  0  0  0
   -2.8254    0.2908    1.4247 C   0  0  1  0  0  0  0  0  0  0  0  0
   -2.1293    0.3545    2.6598 O   0  0  0  0  0  0  0  0  0  0  0  0
   -2.9023    1.6828    0.8166 C   0  0  2  0  0  0  0  0  0  0  0  0
   -3.6966    2.5336    1.6301 O   0  0  0  0  0  0  0  0  0  0  0  0
   -3.4773    3.0030   -1.1767 C   0  0  0  0  0  0  0  0  0  0  0  0
   -4.4426    3.8563   -0.5083 N   0  3  0  0  0  0  0  0  0  0  0  0
   -6.2145   -2.7753   -4.3206 C   0  0  2  0  0  0  0  0  0  0  0  0
   -5.0218   -1.8831   -4.6024 C   0  0  0  0  0  0  0  0  0  0  0  0
   -4.6174   -1.1254   -3.3513 C   0  0  1  0  0  0  0  0  0  0  0  0
   -4.2016   -2.0530   -2.2087 C   0  0  2  0  0  0  0  0  0  0  0  0
   -5.2673   -3.1472   -1.9685 C   0  0  1  0  0  0  0  0  0  0  0  0
   -5.8901   -3.7776   -3.2212 C   0  0  1  0  0  0  0  0  0  0  0  0
   -6.5839   -3.4828   -5.5317 N   0  3  0  0  0  0  0  0  0  0  0  0
   -3.5425   -0.2100   -3.6815 N   0  3  0  0  0  0  0  0  0  0  0  0
   -4.7748   -4.1839   -1.0844 O   0  0  0  0  0  0  0  0  0  0  0  0
   -7.0660   -4.4968   -2.8649 O   0  0  0  0  0  0  0  0  0  0  0  0
  1  2  1  0  0  0  0
  3  2  1  1  0  0  0
  3  4  1  0  0  0  0
  3  5  1  0  0  0  0
  4  8  1  0  0  0  0
  5  6  1  0  0  0  0
  5 12  1  6  0  0  0
  6  7  1  6  0  0  0
  6  8  1  0  0  0  0
  8 41  1  1  0  0  0
  9 10  1  0  0  0  0
  9 17  1  0  0  0  0
  9 19  1  1  0  0  0
 10 11  1  0  0  0  0
 11 12  1  6  0  0  0
 11 13  1  0  0  0  0
 13 14  1  6  0  0  0
 13 15  1  0  0  0  0
 15 16  1  1  0  0  0
 15 17  1  0  0  0  0
 17 18  1  6  0  0  0
 19 20  1  0  0  0  0
 21 22  1  0  0  0  0
 21 29  1  0  0  0  0
 21 31  1  6  0  0  0
 22 23  1  0  0  0  0
 23 24  1  1  0  0  0
 23 25  1  0  0  0  0
 25 26  1  1  0  0  0
 25 27  1  0  0  0  0
 27 28  1  1  0  0  0
 27 29  1  0  0  0  0
 29 30  1  1  0  0  0
 31 32  1  0  0  0  0
 33 34  1  0  0  0  0
 33 38  1  0  0  0  0
 33 39  1  6  0  0  0
 34 35  1  0  0  0  0
 35 36  1  0  0  0  0
 35 40  1  6  0  0  0
 36 24  1  1  0  0  0
 36 37  1  0  0  0  0
 37 38  1  0  0  0  0
 37 41  1  6  0  0  0
 38 42  1  1  0  0  0
M  CHG  6  14   1  20   1  26   1  32   1  39   1  40   1
M  END
>  <CHROM.1>
-82.01133571,-64.73811463,-156.80689687,177.41562905,-95.34884272,-50.05720049
67.56665494,57.93436303,-176.78218464,-43.50238936,-26.45487730,170.01345217
96.12902638,-84.05380583,-176.58096683,-50.65698771,75.51924987,155.62638033
-111.87117867,172.21739248,-68.24032506,-60.07380628,-3.68249330,-4.01155358
0.04732224,1.34465428,1.13040439,2.90748358

>  <Name>


>  <RI>
0

>  <Rbt.Current_Directory>
/home/itssahil/PROJECTS/Mol_Feturizer/New_Systems/rnas/1qd3

>  <Rbt.Executable>
rbdock ($Id: //depot/dev/client3/rdock/2013.1/src/exe/rbdock.cxx#4 $)

>  <Rbt.Library>
libRbt.so (2013.1, Build901 2013/11/27)

>  <Rbt.Parameter_File>
/export/apps/rDock/src/rDock_2013.1_src/data/scripts/dock_solv.prm

>  <Rbt.Receptor>
prm/blind_docking_20.prm

>  <SCORE>
-65.7846

>  <SCORE.INTER>
-49.326

>  <SCORE.INTER.CONST>
1

>  <SCORE.INTER.POLAR>
-5.52894

>  <SCORE.INTER.ROT>
9

>  <SCORE.INTER.SOLV>
32.0463

>  <SCORE.INTER.VDW>
-34.7363

>  <SCORE.INTER.norm>
-1.17443

>  <SCORE.INTRA>
-16.7198

>  <SCORE.INTRA.DIHEDRAL>
-10.6025

>  <SCORE.INTRA.DIHEDRAL.0>
40.6252

>  <SCORE.INTRA.POLAR>
-0.397648

>  <SCORE.INTRA.POLAR.0>
-1.20161

>  <SCORE.INTRA.REPUL>
-0.100571

>  <SCORE.INTRA.REPUL.0>
0.115675

>  <SCORE.INTRA.SOLV>
-7.0221

>  <SCORE.INTRA.SOLV.lig_0>
-154.895

>  <SCORE.INTRA.VDW>
-6.05266

>  <SCORE.INTRA.VDW.0>
2.2925

>  <SCORE.INTRA.norm>
-0.39809

>  <SCORE.RESTR>
0.261135

>  <SCORE.RESTR.CAVITY>
0.261135

>  <SCORE.RESTR.norm>
0.00621749

>  <SCORE.SYSTEM>
0

>  <SCORE.SYSTEM.CONST>
0

>  <SCORE.SYSTEM.DIHEDRAL>
0

>  <SCORE.SYSTEM.SOLV>
0

>  <SCORE.SYSTEM.norm>
0

>  <SCORE.heavy>
42

>  <SCORE.norm>
-1.5663

>  <RMSD>
13.370

$$$$

 OpenBabel11021811413D
libRbt.so/2013.1/901 2013/11/27
 42 45  0  0  0  0  0  0  0  0999 V2000
   -0.9824   -5.2042   -1.5264 O   0  0  0  0  0  0  0  0  0  0  0  0
   -2.1185   -4.6864   -0.8490 C   0  0  0  0  0  0  0  0  0  0  0  0
   -3.0901   -5.8220   -0.5252 C   0  0  1  0  0  0  0  0  0  0  0  0
   -3.1092   -6.1092    0.8900 O   0  0  0  0  0  0  0  0  0  0  0  0
   -4.5289   -5.5112   -0.9031 C   0  0  2  0  0  0  0  0  0  0  0  0
   -5.2662   -6.5247   -0.0439 C   0  0  1  0  0  0  0  0  0  0  0  0
   -5.1745   -7.8152   -0.6371 O   0  0  0  0  0  0  0  0  0  0  0  0
   -4.4558   -6.4922    1.2680 C   0  0  2  0  0  0  0  0  0  0  0  0
   -7.1380   -4.2232   -4.6547 C   0  0  2  0  0  0  0  0  0  0  0  0
   -5.9555   -4.8873   -4.1832 O   0  0  0  0  0  0  0  0  0  0  0  0
   -5.9872   -5.0952   -2.7596 C   0  0  2  0  0  0  0  0  0  0  0  0
   -4.7617   -5.7106   -2.3113 O   0  0  0  0  0  0  0  0  0  0  0  0
   -7.1955   -5.9612   -2.3642 C   0  0  2  0  0  0  0  0  0  0  0  0
   -6.9543   -7.3569   -2.6810 N   0  3  0  0  0  0  0  0  0  0  0  0
   -8.5077   -5.4854   -2.9987 C   0  0  1  0  0  0  0  0  0  0  0  0
   -8.9872   -4.3511   -2.2943 O   0  0  0  0  0  0  0  0  0  0  0  0
   -8.3431   -5.1377   -4.4758 C   0  0  2  0  0  0  0  0  0  0  0  0
   -8.1733   -6.3267   -5.2385 O   0  0  0  0  0  0  0  0  0  0  0  0
   -6.9785   -3.8143   -6.1163 C   0  0  0  0  0  0  0  0  0  0  0  0
   -8.0942   -2.9869   -6.5354 N   0  3  0  0  0  0  0  0  0  0  0  0
   -0.8319   -3.5927    5.6471 C   0  0  1  0  0  0  0  0  0  0  0  0
   -0.5663   -4.0927    4.3198 O   0  0  0  0  0  0  0  0  0  0  0  0
   -1.6695   -4.8401    3.7579 C   0  0  2  0  0  0  0  0  0  0  0  0
   -2.8312   -4.0048    3.5288 O   0  0  0  0  0  0  0  0  0  0  0  0
   -2.0180   -6.0399    4.6471 C   0  0  2  0  0  0  0  0  0  0  0  0
   -3.2504   -6.6543    4.1896 N   0  3  0  0  0  0  0  0  0  0  0  0
   -2.1729   -5.6340    6.1086 C   0  0  1  0  0  0  0  0  0  0  0  0
   -2.2585   -6.7949    6.9206 O   0  0  0  0  0  0  0  0  0  0  0  0
   -1.0406   -4.7506    6.6093 C   0  0  2  0  0  0  0  0  0  0  0  0
   -1.3370   -4.2567    7.9073 O   0  0  0  0  0  0  0  0  0  0  0  0
    0.3604   -2.7830    6.1485 C   0  0  0  0  0  0  0  0  0  0  0  0
    1.1552   -3.5616    7.0806 N   0  3  0  0  0  0  0  0  0  0  0  0
   -4.8115   -2.3062    0.1684 C   0  0  2  0  0  0  0  0  0  0  0  0
   -3.2965   -2.2622    0.1991 C   0  0  0  0  0  0  0  0  0  0  0  0
   -2.7853   -2.5286    1.6029 C   0  0  1  0  0  0  0  0  0  0  0  0
   -3.1873   -3.9088    2.1247 C   0  0  2  0  0  0  0  0  0  0  0  0
   -4.7049   -4.1467    1.9485 C   0  0  1  0  0  0  0  0  0  0  0  0
   -5.3206   -3.6657    0.6280 C   0  0  1  0  0  0  0  0  0  0  0  0
   -5.2739   -2.0433   -1.1811 N   0  3  0  0  0  0  0  0  0  0  0  0
   -1.3432   -2.3790    1.6156 N   0  3  0  0  0  0  0  0  0  0  0  0
   -5.0566   -5.5323    2.1840 O   0  0  0  0  0  0  0  0  0  0  0  0
   -6.7395   -3.6337    0.7413 O   0  0  0  0  0  0  0  0  0  0  0  0
  1  2  1  0  0  0  0
  3  2  1  1  0  0  0
  3  4  1  0  0  0  0
  3  5  1  0  0  0  0
  4  8  1  0  0  0  0
  5  6  1  0  0  0  0
  5 12  1  6  0  0  0
  6  7  1  6  0  0  0
  6  8  1  0  0  0  0
  8 41  1  1  0  0  0
  9 10  1  0  0  0  0
  9 17  1  0  0  0  0
  9 19  1  6  0  0  0
 10 11  1  0  0  0  0
 11 12  1  6  0  0  0
 11 13  1  0  0  0  0
 13 14  1  6  0  0  0
 13 15  1  0  0  0  0
 15 16  1  1  0  0  0
 15 17  1  0  0  0  0
 17 18  1  6  0  0  0
 19 20  1  0  0  0  0
 21 22  1  0  0  0  0
 21 29  1  0  0  0  0
 21 31  1  1  0  0  0
 22 23  1  0  0  0  0
 23 24  1  1  0  0  0
 23 25  1  0  0  0  0
 25 26  1  6  0  0  0
 25 27  1  0  0  0  0
 27 28  1  1  0  0  0
 27 29  1  0  0  0  0
 29 30  1  1  0  0  0
 31 32  1  0  0  0  0
 33 34  1  0  0  0  0
 33 38  1  0  0  0  0
 33 39  1  6  0  0  0
 34 35  1  0  0  0  0
 35 36  1  0  0  0  0
 35 40  1  6  0  0  0
 36 24  1  1  0  0  0
 36 37  1  0  0  0  0
 37 38  1  0  0  0  0
 37 41  1  6  0  0  0
 38 42  1  1  0  0  0
M  CHG  6  14   1  20   1  26   1  32   1  39   1  40   1
M  END
>  <CHROM.1>
-64.55182573,108.78721676,-164.51730368,168.43041484,35.82050177,-172.21690347
159.21267642,91.52567959,59.76067176,61.41116994,178.53624596,-102.00939611
116.65578382,-105.80594582,81.56654506,62.21331382,179.24606266,65.83623882
170.81828867,89.67701771,-62.45180936,68.26825958,-4.15940144,-4.75418097
0.65982657,-2.49582065,0.83753709,2.30671364

>  <Name>


>  <RI>
0

>  <Rbt.Current_Directory>
/home/itssahil/PROJECTS/Mol_Feturizer/New_Systems/rnas/1qd3

>  <Rbt.Executable>
rbdock ($Id: //depot/dev/client3/rdock/2013.1/src/exe/rbdock.cxx#4 $)

>  <Rbt.Library>
libRbt.so (2013.1, Build901 2013/11/27)

>  <Rbt.Parameter_File>
/export/apps/rDock/src/rDock_2013.1_src/data/scripts/dock_solv.prm

>  <Rbt.Receptor>
prm/blind_docking_40.prm

>  <SCORE>
-33.7527

>  <SCORE.INTER>
-31.2729

>  <SCORE.INTER.CONST>
1

>  <SCORE.INTER.POLAR>
-3.67127

>  <SCORE.INTER.ROT>
9

>  <SCORE.INTER.SOLV>
26.4123

>  <SCORE.INTER.VDW>
-27.0152

>  <SCORE.INTER.norm>
-0.744594

>  <SCORE.INTRA>
-5.28144

>  <SCORE.INTRA.DIHEDRAL>
-6.28854

>  <SCORE.INTRA.DIHEDRAL.0>
40.6252

>  <SCORE.INTRA.POLAR>
-0.857145

>  <SCORE.INTRA.POLAR.0>
-1.20161

>  <SCORE.INTRA.REPUL>
-0.115675

>  <SCORE.INTRA.REPUL.0>
0.115675

>  <SCORE.INTRA.SOLV>
2.3346

>  <SCORE.INTRA.SOLV.lig_0>
-154.895

>  <SCORE.INTRA.VDW>
0.188196

>  <SCORE.INTRA.VDW.0>
2.2925

>  <SCORE.INTRA.norm>
-0.125749

>  <SCORE.RESTR>
2.80173

>  <SCORE.RESTR.CAVITY>
2.80173

>  <SCORE.RESTR.norm>
0.066708

>  <SCORE.SYSTEM>
0

>  <SCORE.SYSTEM.CONST>
0

>  <SCORE.SYSTEM.DIHEDRAL>
0

>  <SCORE.SYSTEM.SOLV>
0

>  <SCORE.SYSTEM.norm>
0

>  <SCORE.heavy>
42

>  <SCORE.norm>
-0.803635

>  <RMSD>
13.393

$$$$

 OpenBabel11021811413D
libRbt.so/2013.1/901 2013/11/27
 42 45  0  0  0  0  0  0  0  0999 V2000
   -5.6484   -9.1900   -2.3920 O   0  0  0  0  0  0  0  0  0  0  0  0
   -5.6261   -8.5200   -1.1398 C   0  0  0  0  0  0  0  0  0  0  0  0
   -4.5531   -7.4305   -1.1546 C   0  0  1  0  0  0  0  0  0  0  0  0
   -4.9255   -6.3387   -2.0235 O   0  0  0  0  0  0  0  0  0  0  0  0
   -4.3070   -6.8075    0.2094 C   0  0  2  0  0  0  0  0  0  0  0  0
   -3.6326   -5.5079   -0.1972 C   0  0  1  0  0  0  0  0  0  0  0  0
   -2.2777   -5.7600   -0.5529 O   0  0  0  0  0  0  0  0  0  0  0  0
   -4.4360   -5.1004   -1.4490 C   0  0  2  0  0  0  0  0  0  0  0  0
   -2.9872   -7.6086    4.6485 C   0  0  2  0  0  0  0  0  0  0  0  0
   -3.1444   -8.1299    3.3200 O   0  0  0  0  0  0  0  0  0  0  0  0
   -3.2411   -7.0816    2.3390 C   0  0  2  0  0  0  0  0  0  0  0  0
   -3.4564   -7.6371    1.0250 O   0  0  0  0  0  0  0  0  0  0  0  0
   -1.9737   -6.2098    2.3493 C   0  0  2  0  0  0  0  0  0  0  0  0
   -0.8760   -6.8895    1.6863 N   0  3  0  0  0  0  0  0  0  0  0  0
   -1.5601   -5.7694    3.7585 C   0  0  1  0  0  0  0  0  0  0  0  0
   -2.3948   -4.7035    4.1827 O   0  0  0  0  0  0  0  0  0  0  0  0
   -1.6377   -6.9119    4.7676 C   0  0  2  0  0  0  0  0  0  0  0  0
   -0.5850   -7.8398    4.5324 O   0  0  0  0  0  0  0  0  0  0  0  0
   -3.1161   -8.7235    5.6826 C   0  0  0  0  0  0  0  0  0  0  0  0
   -3.6485   -9.9252    5.0682 N   0  3  0  0  0  0  0  0  0  0  0  0
   -3.0661    1.0547   -0.1058 C   0  0  1  0  0  0  0  0  0  0  0  0
   -2.5109    0.2115   -1.1368 O   0  0  0  0  0  0  0  0  0  0  0  0
   -2.7525   -1.1972   -0.9163 C   0  0  2  0  0  0  0  0  0  0  0  0
   -4.1614   -1.5261   -0.9967 O   0  0  0  0  0  0  0  0  0  0  0  0
   -2.1558   -1.6446    0.4236 C   0  0  2  0  0  0  0  0  0  0  0  0
   -2.5839   -2.9970    0.7297 N   0  3  0  0  0  0  0  0  0  0  0  0
   -2.5676   -0.7188    1.5628 C   0  0  1  0  0  0  0  0  0  0  0  0
   -1.8126   -1.0256    2.7248 O   0  0  0  0  0  0  0  0  0  0  0  0
   -2.4014    0.7555    1.2280 C   0  0  2  0  0  0  0  0  0  0  0  0
   -2.9738    1.5608    2.2480 O   0  0  0  0  0  0  0  0  0  0  0  0
   -2.8053    2.5219   -0.4344 C   0  0  0  0  0  0  0  0  0  0  0  0
   -3.3111    2.8509   -1.7545 N   0  3  0  0  0  0  0  0  0  0  0  0
   -6.6032   -2.5668   -4.3214 C   0  0  2  0  0  0  0  0  0  0  0  0
   -5.2443   -1.9552   -4.5999 C   0  0  0  0  0  0  0  0  0  0  0  0
   -4.6959   -1.2881   -3.3521 C   0  0  1  0  0  0  0  0  0  0  0  0
   -4.4980   -2.2704   -2.1968 C   0  0  2  0  0  0  0  0  0  0  0  0
   -5.7759   -3.1071   -1.9568 C   0  0  1  0  0  0  0  0  0  0  0  0
   -6.5103   -3.6030   -3.2095 C   0  0  1  0  0  0  0  0  0  0  0  0
   -7.1070   -3.1920   -5.5295 N   0  3  0  0  0  0  0  0  0  0  0  0
   -3.4468   -0.6291   -3.6804 N   0  3  0  0  0  0  0  0  0  0  0  0
   -5.5247   -4.2153   -1.0581 O   0  0  0  0  0  0  0  0  0  0  0  0
   -7.8161   -4.0484   -2.8580 O   0  0  0  0  0  0  0  0  0  0  0  0
  1  2  1  0  0  0  0
  3  2  1  1  0  0  0
  3  4  1  0  0  0  0
  3  5  1  0  0  0  0
  4  8  1  0  0  0  0
  5  6  1  0  0  0  0
  5 12  1  1  0  0  0
  6  7  1  6  0  0  0
  6  8  1  0  0  0  0
  8 41  1  1  0  0  0
  9 10  1  0  0  0  0
  9 17  1  0  0  0  0
  9 19  1  1  0  0  0
 10 11  1  0  0  0  0
 11 12  1  6  0  0  0
 11 13  1  0  0  0  0
 13 14  1  1  0  0  0
 13 15  1  0  0  0  0
 15 16  1  1  0  0  0
 15 17  1  0  0  0  0
 17 18  1  6  0  0  0
 19 20  1  0  0  0  0
 21 22  1  0  0  0  0
 21 29  1  0  0  0  0
 21 31  1  6  0  0  0
 22 23  1  0  0  0  0
 23 24  1  1  0  0  0
 23 25  1  0  0  0  0
 25 26  1  1  0  0  0
 25 27  1  0  0  0  0
 27 28  1  1  0  0  0
 27 29  1  0  0  0  0
 29 30  1  1  0  0  0
 31 32  1  0  0  0  0
 33 34  1  0  0  0  0
 33 38  1  0  0  0  0
 33 39  1  6  0  0  0
 34 35  1  0  0  0  0
 35 36  1  0  0  0  0
 35 40  1  6  0  0  0
 36 24  1  1  0  0  0
 36 37  1  0  0  0  0
 37 38  1  0  0  0  0
 37 41  1  1  0  0  0
 38 42  1  1  0  0  0
M  CHG  6  14   1  20   1  26   1  32   1  39   1  40   1
M  END
>  <CHROM.1>
-52.05752412,69.92452798,-178.34021080,54.01431260,-103.04836142,-12.59563813
145.23224513,153.28438183,-83.49235496,167.27453250,51.02180021,54.96015635
108.19006668,-83.13584582,-39.42284153,31.50733192,-83.85445753,-167.15054430
70.72595457,-68.17770029,-54.55286205,-179.37103810,-3.65930925,-4.04234444
0.12889783,1.26036031,1.01457981,2.78483536

>  <Name>


>  <RI>
0

>  <Rbt.Current_Directory>
/home/itssahil/PROJECTS/Mol_Feturizer/New_Systems/rnas/1qd3

>  <Rbt.Executable>
rbdock ($Id: //depot/dev/client3/rdock/2013.1/src/exe/rbdock.cxx#4 $)

>  <Rbt.Library>
libRbt.so (2013.1, Build901 2013/11/27)

>  <Rbt.Parameter_File>
/export/apps/rDock/src/rDock_2013.1_src/data/scripts/dock_solv.prm

>  <Rbt.Receptor>
prm/blind_docking_20.prm

>  <SCORE>
-74.0464

>  <SCORE.INTER>
-62.8875

>  <SCORE.INTER.CONST>
1

>  <SCORE.INTER.POLAR>
-9.33582

>  <SCORE.INTER.ROT>
9

>  <SCORE.INTER.SOLV>
28.3365

>  <SCORE.INTER.VDW>
-29.8511

>  <SCORE.INTER.norm>
-1.49732

>  <SCORE.INTRA>
-11.2101

>  <SCORE.INTRA.DIHEDRAL>
-1.28598

>  <SCORE.INTRA.DIHEDRAL.0>
40.6252

>  <SCORE.INTRA.POLAR>
-0.887827

>  <SCORE.INTRA.POLAR.0>
-1.20161

>  <SCORE.INTRA.REPUL>
-0.0984337

>  <SCORE.INTRA.REPUL.0>
0.115675

>  <SCORE.INTRA.SOLV>
-0.63611

>  <SCORE.INTRA.SOLV.lig_0>
-154.895

>  <SCORE.INTRA.VDW>
-6.7383

>  <SCORE.INTRA.VDW.0>
2.2925

>  <SCORE.INTRA.norm>
-0.266908

>  <SCORE.RESTR>
0.0512669

>  <SCORE.RESTR.CAVITY>
0.0512669

>  <SCORE.RESTR.norm>
0.00122064

>  <SCORE.SYSTEM>
0

>  <SCORE.SYSTEM.CONST>
0

>  <SCORE.SYSTEM.DIHEDRAL>
0

>  <SCORE.SYSTEM.SOLV>
0

>  <SCORE.SYSTEM.norm>
0

>  <SCORE.heavy>
42

>  <SCORE.norm>
-1.76301

>  <RMSD>
13.447

$$$$

 OpenBabel11021811413D
libRbt.so/2013.1/901 2013/11/27
 42 45  0  0  0  0  0  0  0  0999 V2000
   -6.5985   -7.7241   -1.2539 O   0  0  0  0  0  0  0  0  0  0  0  0
   -5.3006   -8.2841   -1.1138 C   0  0  0  0  0  0  0  0  0  0  0  0
   -4.2538   -7.1695   -1.1078 C   0  0  1  0  0  0  0  0  0  0  0  0
   -4.6364   -6.0851   -1.9814 O   0  0  0  0  0  0  0  0  0  0  0  0
   -4.0469   -6.5435    0.2615 C   0  0  2  0  0  0  0  0  0  0  0  0
   -3.3965   -5.2275   -0.1310 C   0  0  1  0  0  0  0  0  0  0  0  0
   -2.0298   -5.4466   -0.4628 O   0  0  0  0  0  0  0  0  0  0  0  0
   -4.1868   -4.8367   -1.3964 C   0  0  2  0  0  0  0  0  0  0  0  0
   -2.9321   -7.6357    4.7246 C   0  0  2  0  0  0  0  0  0  0  0  0
   -2.8897   -8.0223    3.3425 O   0  0  0  0  0  0  0  0  0  0  0  0
   -3.1852   -6.9195    2.4665 C   0  0  2  0  0  0  0  0  0  0  0  0
   -3.1916   -7.3543    1.0908 O   0  0  0  0  0  0  0  0  0  0  0  0
   -2.1676   -5.7826    2.6626 C   0  0  2  0  0  0  0  0  0  0  0  0
   -0.9055   -6.1053    2.0228 N   0  3  0  0  0  0  0  0  0  0  0  0
   -1.9462   -5.4236    4.1367 C   0  0  1  0  0  0  0  0  0  0  0  0
   -3.0342   -4.6389    4.5987 O   0  0  0  0  0  0  0  0  0  0  0  0
   -1.7984   -6.6612    5.0175 C   0  0  2  0  0  0  0  0  0  0  0  0
   -0.5423   -7.2835    4.7738 O   0  0  0  0  0  0  0  0  0  0  0  0
   -2.8420   -8.8617    5.6289 C   0  0  0  0  0  0  0  0  0  0  0  0
   -4.0129   -9.7018    5.4615 N   0  3  0  0  0  0  0  0  0  0  0  0
   -3.0878    1.4605   -0.4408 C   0  0  1  0  0  0  0  0  0  0  0  0
   -2.4561    0.3659   -1.1371 O   0  0  0  0  0  0  0  0  0  0  0  0
   -2.9484   -0.9318   -0.7308 C   0  0  2  0  0  0  0  0  0  0  0  0
   -4.3397   -1.1215   -1.0886 O   0  0  0  0  0  0  0  0  0  0  0  0
   -2.7297   -1.1466    0.7717 C   0  0  2  0  0  0  0  0  0  0  0  0
   -3.4120   -2.3520    1.2043 N   0  3  0  0  0  0  0  0  0  0  0  0
   -3.2341    0.0362    1.5910 C   0  0  1  0  0  0  0  0  0  0  0  0
   -2.8029   -0.0959    2.9367 O   0  0  0  0  0  0  0  0  0  0  0  0
   -2.7798    1.3813    1.0455 C   0  0  2  0  0  0  0  0  0  0  0  0
   -3.4314    2.4386    1.7341 O   0  0  0  0  0  0  0  0  0  0  0  0
   -2.5447    2.7902   -0.9561 C   0  0  0  0  0  0  0  0  0  0  0  0
   -2.8940    2.9820   -2.3518 N   0  3  0  0  0  0  0  0  0  0  0  0
   -6.4509   -2.7019   -4.4270 C   0  0  2  0  0  0  0  0  0  0  0  0
   -5.1811   -1.9180   -4.6939 C   0  0  0  0  0  0  0  0  0  0  0  0
   -4.7919   -1.1050   -3.4731 C   0  0  1  0  0  0  0  0  0  0  0  0
   -4.5108   -1.9773   -2.2488 C   0  0  2  0  0  0  0  0  0  0  0  0
   -5.6668   -2.9741   -2.0024 C   0  0  1  0  0  0  0  0  0  0  0  0
   -6.2640   -3.6452   -3.2464 C   0  0  1  0  0  0  0  0  0  0  0  0
   -6.8038   -3.4646   -5.6092 N   0  3  0  0  0  0  0  0  0  0  0  0
   -3.6350   -0.2931   -3.7969 N   0  3  0  0  0  0  0  0  0  0  0  0
   -5.3031   -3.9785   -1.0236 O   0  0  0  0  0  0  0  0  0  0  0  0
   -7.5083   -4.2529   -2.9156 O   0  0  0  0  0  0  0  0  0  0  0  0
  1  2  1  0  0  0  0
  3  2  1  1  0  0  0
  3  4  1  0  0  0  0
  3  5  1  0  0  0  0
  4  8  1  0  0  0  0
  5  6  1  0  0  0  0
  5 12  1  1  0  0  0
  6  7  1  6  0  0  0
  6  8  1  0  0  0  0
  8 41  1  1  0  0  0
  9 10  1  0  0  0  0
  9 17  1  0  0  0  0
  9 19  1  1  0  0  0
 10 11  1  0  0  0  0
 11 12  1  6  0  0  0
 11 13  1  0  0  0  0
 13 14  1  1  0  0  0
 13 15  1  0  0  0  0
 15 16  1  1  0  0  0
 15 17  1  0  0  0  0
 17 18  1  6  0  0  0
 19 20  1  0  0  0  0
 21 22  1  0  0  0  0
 21 29  1  0  0  0  0
 21 31  1  6  0  0  0
 22 23  1  0  0  0  0
 23 24  1  1  0  0  0
 23 25  1  0  0  0  0
 25 26  1  1  0  0  0
 25 27  1  0  0  0  0
 27 28  1  1  0  0  0
 27 29  1  0  0  0  0
 29 30  1  1  0  0  0
 31 32  1  0  0  0  0
 33 34  1  0  0  0  0
 33 38  1  0  0  0  0
 33 39  1  6  0  0  0
 34 35  1  0  0  0  0
 35 36  1  0  0  0  0
 35 40  1  6  0  0  0
 36 24  1  1  0  0  0
 36 37  1  0  0  0  0
 37 38  1  0  0  0  0
 37 41  1  1  0  0  0
 38 42  1  1  0  0  0
M  CHG  6  14   1  20   1  26   1  32   1  39   1  40   1
M  END
>  <CHROM.1>
-70.59811581,-34.68344390,-168.91274948,165.19313625,-95.94353776,-65.31627916
152.75269062,42.58651491,66.39856465,-176.96905767,-87.51734974,64.40196529
103.47682927,-101.46823227,96.76454861,56.71075593,-133.38569795,-66.59377855
32.03466050,-60.94787702,-62.29143388,66.74472200,-3.72549471,-3.72691732
0.19588104,1.28091500,1.06424465,2.74877038

>  <Name>


>  <RI>
0

>  <Rbt.Current_Directory>
/home/itssahil/PROJECTS/Mol_Feturizer/New_Systems/rnas/1qd3

>  <Rbt.Executable>
rbdock ($Id: //depot/dev/client3/rdock/2013.1/src/exe/rbdock.cxx#4 $)

>  <Rbt.Library>
libRbt.so (2013.1, Build901 2013/11/27)

>  <Rbt.Parameter_File>
/export/apps/rDock/src/rDock_2013.1_src/data/scripts/dock_solv.prm

>  <Rbt.Receptor>
prm/blind_docking_20.prm

>  <SCORE>
-65.3205

>  <SCORE.INTER>
-51.7109

>  <SCORE.INTER.CONST>
1

>  <SCORE.INTER.POLAR>
-6.88278

>  <SCORE.INTER.ROT>
9

>  <SCORE.INTER.SOLV>
28.7783

>  <SCORE.INTER.VDW>
-30.7241

>  <SCORE.INTER.norm>
-1.23121

>  <SCORE.INTRA>
-14.0426

>  <SCORE.INTRA.DIHEDRAL>
-2.82019

>  <SCORE.INTRA.DIHEDRAL.0>
40.6252

>  <SCORE.INTRA.POLAR>
-0.459975

>  <SCORE.INTRA.POLAR.0>
-1.20161

>  <SCORE.INTRA.REPUL>
-0.115675

>  <SCORE.INTRA.REPUL.0>
0.115675

>  <SCORE.INTRA.SOLV>
-1.04404

>  <SCORE.INTRA.SOLV.lig_0>
-154.895

>  <SCORE.INTRA.VDW>
-9.9682

>  <SCORE.INTRA.VDW.0>
2.2925

>  <SCORE.INTRA.norm>
-0.334348

>  <SCORE.RESTR>
0.432975

>  <SCORE.RESTR.CAVITY>
0.432975

>  <SCORE.RESTR.norm>
0.0103089

>  <SCORE.SYSTEM>
0

>  <SCORE.SYSTEM.CONST>
0

>  <SCORE.SYSTEM.DIHEDRAL>
0

>  <SCORE.SYSTEM.SOLV>
0

>  <SCORE.SYSTEM.norm>
0

>  <SCORE.heavy>
42

>  <SCORE.norm>
-1.55525

>  <RMSD>
13.476

$$$$

 OpenBabel11021811413D
libRbt.so/2013.1/901 2013/11/27
 42 45  0  0  0  0  0  0  0  0999 V2000
   -5.1402   -4.7125    3.0877 O   0  0  0  0  0  0  0  0  0  0  0  0
   -5.8060   -4.1447    1.9687 C   0  0  0  0  0  0  0  0  0  0  0  0
   -6.1071   -5.2337    0.9382 C   0  0  1  0  0  0  0  0  0  0  0  0
   -6.5363   -4.6640   -0.3175 O   0  0  0  0  0  0  0  0  0  0  0  0
   -4.9041   -6.1016    0.6084 C   0  0  2  0  0  0  0  0  0  0  0  0
   -5.3446   -6.6925   -0.7204 C   0  0  1  0  0  0  0  0  0  0  0  0
   -6.2896   -7.7325   -0.4945 O   0  0  0  0  0  0  0  0  0  0  0  0
   -6.0377   -5.4928   -1.3980 C   0  0  2  0  0  0  0  0  0  0  0  0
   -1.1925   -6.5003    2.4903 C   0  0  2  0  0  0  0  0  0  0  0  0
   -2.6001   -6.2595    2.3409 O   0  0  0  0  0  0  0  0  0  0  0  0
   -3.2877   -7.4050    1.8062 C   0  0  2  0  0  0  0  0  0  0  0  0
   -4.6870   -7.1105    1.6144 O   0  0  0  0  0  0  0  0  0  0  0  0
   -3.1199   -8.6207    2.7337 C   0  0  2  0  0  0  0  0  0  0  0  0
   -3.9781   -8.5021    3.8981 N   0  3  0  0  0  0  0  0  0  0  0  0
   -1.6656   -8.8538    3.1597 C   0  0  1  0  0  0  0  0  0  0  0  0
   -0.9554   -9.4659    2.0949 O   0  0  0  0  0  0  0  0  0  0  0  0
   -0.9662   -7.5584    3.5625 C   0  0  2  0  0  0  0  0  0  0  0  0
   -1.4692   -7.1037    4.8134 O   0  0  0  0  0  0  0  0  0  0  0  0
   -0.4599   -5.2079    2.8391 C   0  0  0  0  0  0  0  0  0  0  0  0
   -1.0729   -4.5730    3.9907 N   0  3  0  0  0  0  0  0  0  0  0  0
   -3.3879    0.5425   -0.2129 C   0  0  1  0  0  0  0  0  0  0  0  0
   -2.7147   -0.0824   -1.3258 O   0  0  0  0  0  0  0  0  0  0  0  0
   -2.7346   -1.5273   -1.2691 C   0  0  2  0  0  0  0  0  0  0  0  0
   -4.0762   -2.0581   -1.4034 O   0  0  0  0  0  0  0  0  0  0  0  0
   -2.0688   -2.0269    0.0189 C   0  0  2  0  0  0  0  0  0  0  0  0
   -2.2812   -3.4550    0.1647 N   0  3  0  0  0  0  0  0  0  0  0  0
   -2.6125   -1.3111    1.2504 C   0  0  1  0  0  0  0  0  0  0  0  0
   -1.8130   -1.6280    2.3793 O   0  0  0  0  0  0  0  0  0  0  0  0
   -2.6778    0.1996    1.0865 C   0  0  2  0  0  0  0  0  0  0  0  0
   -3.3622    0.7859    2.1840 O   0  0  0  0  0  0  0  0  0  0  0  0
   -3.3586    2.0601   -0.3701 C   0  0  0  0  0  0  0  0  0  0  0  0
   -2.2354    2.4701   -1.1929 N   0  3  0  0  0  0  0  0  0  0  0  0
   -6.5667   -2.4340   -4.8321 C   0  0  2  0  0  0  0  0  0  0  0  0
   -5.3210   -1.5777   -4.9474 C   0  0  0  0  0  0  0  0  0  0  0  0
   -4.7869   -1.2283   -3.5707 C   0  0  1  0  0  0  0  0  0  0  0  0
   -4.3876   -2.4635   -2.7621 C   0  0  2  0  0  0  0  0  0  0  0  0
   -5.5259   -3.5100   -2.7520 C   0  0  1  0  0  0  0  0  0  0  0  0
   -6.2669   -3.7229   -4.0786 C   0  0  1  0  0  0  0  0  0  0  0  0
   -7.0596   -2.7488   -6.1595 N   0  3  0  0  0  0  0  0  0  0  0  0
   -3.6593   -0.3287   -3.7171 N   0  3  0  0  0  0  0  0  0  0  0  0
   -5.0736   -4.7823   -2.2270 O   0  0  0  0  0  0  0  0  0  0  0  0
   -7.4773   -4.4354   -3.8456 O   0  0  0  0  0  0  0  0  0  0  0  0
  1  2  1  0  0  0  0
  3  2  1  1  0  0  0
  3  4  1  0  0  0  0
  3  5  1  0  0  0  0
  4  8  1  0  0  0  0
  5  6  1  0  0  0  0
  5 12  1  1  0  0  0
  6  7  1  1  0  0  0
  6  8  1  0  0  0  0
  8 41  1  1  0  0  0
  9 10  1  0  0  0  0
  9 17  1  0  0  0  0
  9 19  1  1  0  0  0
 10 11  1  0  0  0  0
 11 12  1  1  0  0  0
 11 13  1  0  0  0  0
 13 14  1  1  0  0  0
 13 15  1  0  0  0  0
 15 16  1  6  0  0  0
 15 17  1  0  0  0  0
 17 18  1  1  0  0  0
 19 20  1  0  0  0  0
 21 22  1  0  0  0  0
 21 29  1  0  0  0  0
 21 31  1  6  0  0  0
 22 23  1  0  0  0  0
 23 24  1  1  0  0  0
 23 25  1  0  0  0  0
 25 26  1  1  0  0  0
 25 27  1  0  0  0  0
 27 28  1  1  0  0  0
 27 29  1  0  0  0  0
 29 30  1  1  0  0  0
 31 32  1  0  0  0  0
 33 34  1  0  0  0  0
 33 38  1  0  0  0  0
 33 39  1  6  0  0  0
 34 35  1  0  0  0  0
 35 36  1  0  0  0  0
 35 40  1  6  0  0  0
 36 24  1  1  0  0  0
 36 37  1  0  0  0  0
 37 38  1  0  0  0  0
 37 41  1  6  0  0  0
 38 42  1  1  0  0  0
M  CHG  6  14   1  20   1  26   1  32   1  39   1  40   1
M  END
>  <CHROM.1>
164.23798643,-168.46122849,-146.31329412,-173.36305748,-53.49586326,52.97047939
65.45428693,141.28318485,-67.68044548,61.53138840,48.44138346,-24.88518628
96.71822292,-81.34476762,-164.17876970,48.05785215,-62.60278508,-39.36612381
74.61754939,169.40229623,142.17466809,178.64364932,-3.82665147,-3.93219204
0.07024315,-1.17526267,-0.90475274,-0.42277479

>  <Name>


>  <RI>
0

>  <Rbt.Current_Directory>
/home/itssahil/PROJECTS/Mol_Feturizer/New_Systems/rnas/1qd3

>  <Rbt.Executable>
rbdock ($Id: //depot/dev/client3/rdock/2013.1/src/exe/rbdock.cxx#4 $)

>  <Rbt.Library>
libRbt.so (2013.1, Build901 2013/11/27)

>  <Rbt.Parameter_File>
/export/apps/rDock/src/rDock_2013.1_src/data/scripts/dock_solv.prm

>  <Rbt.Receptor>
prm/blind_docking_20.prm

>  <SCORE>
-54.5168

>  <SCORE.INTER>
-40.1981

>  <SCORE.INTER.CONST>
1

>  <SCORE.INTER.POLAR>
-4.24806

>  <SCORE.INTER.ROT>
9

>  <SCORE.INTER.SOLV>
26.7993

>  <SCORE.INTER.VDW>
-31.1716

>  <SCORE.INTER.norm>
-0.957098

>  <SCORE.INTRA>
-14.3187

>  <SCORE.INTRA.DIHEDRAL>
-11.549

>  <SCORE.INTRA.DIHEDRAL.0>
40.6252

>  <SCORE.INTRA.POLAR>
-0.423312

>  <SCORE.INTRA.POLAR.0>
-1.20161

>  <SCORE.INTRA.REPUL>
-0.115675

>  <SCORE.INTRA.REPUL.0>
0.115675

>  <SCORE.INTRA.SOLV>
2.90309

>  <SCORE.INTRA.SOLV.lig_0>
-154.895

>  <SCORE.INTRA.VDW>
-7.97807

>  <SCORE.INTRA.VDW.0>
2.2925

>  <SCORE.INTRA.norm>
-0.340921

>  <SCORE.RESTR>
0

>  <SCORE.RESTR.CAVITY>
0

>  <SCORE.RESTR.norm>
0

>  <SCORE.SYSTEM>
0

>  <SCORE.SYSTEM.CONST>
0

>  <SCORE.SYSTEM.DIHEDRAL>
0

>  <SCORE.SYSTEM.SOLV>
0

>  <SCORE.SYSTEM.norm>
0

>  <SCORE.heavy>
42

>  <SCORE.norm>
-1.29802

>  <RMSD>
13.487

$$$$

 OpenBabel11021811413D
libRbt.so/2013.1/901 2013/11/27
 42 45  0  0  0  0  0  0  0  0999 V2000
   -4.3069  -10.3251   -0.2203 O   0  0  0  0  0  0  0  0  0  0  0  0
   -4.0277   -9.1575   -0.9794 C   0  0  0  0  0  0  0  0  0  0  0  0
   -2.8205   -8.4304   -0.3858 C   0  0  1  0  0  0  0  0  0  0  0  0
   -2.3901   -7.3459   -1.2368 O   0  0  0  0  0  0  0  0  0  0  0  0
   -3.0999   -7.8051    0.9708 C   0  0  2  0  0  0  0  0  0  0  0  0
   -1.9705   -6.7913    1.0465 C   0  0  1  0  0  0  0  0  0  0  0  0
   -0.7528   -7.4516    1.3740 O   0  0  0  0  0  0  0  0  0  0  0  0
   -1.9074   -6.2634   -0.4013 C   0  0  2  0  0  0  0  0  0  0  0  0
   -3.2068   -8.0174    5.5968 C   0  0  2  0  0  0  0  0  0  0  0  0
   -3.5353   -8.6224    4.3369 O   0  0  0  0  0  0  0  0  0  0  0  0
   -2.6417   -8.2029    3.2898 C   0  0  2  0  0  0  0  0  0  0  0  0
   -3.0342   -8.7822    2.0281 O   0  0  0  0  0  0  0  0  0  0  0  0
   -1.1913   -8.5891    3.6268 C   0  0  2  0  0  0  0  0  0  0  0  0
   -0.9717  -10.0068    3.4070 N   0  3  0  0  0  0  0  0  0  0  0  0
   -0.7816   -8.1966    5.0512 C   0  0  1  0  0  0  0  0  0  0  0  0
   -0.5073   -6.8053    5.0958 O   0  0  0  0  0  0  0  0  0  0  0  0
   -1.8584   -8.5382    6.0775 C   0  0  2  0  0  0  0  0  0  0  0  0
   -1.9173   -9.9469    6.2688 O   0  0  0  0  0  0  0  0  0  0  0  0
   -4.2963   -8.2971    6.6281 C   0  0  0  0  0  0  0  0  0  0  0  0
   -4.9558   -9.5567    6.3393 N   0  3  0  0  0  0  0  0  0  0  0  0
   -2.4430   -1.8893    1.4578 C   0  0  1  0  0  0  0  0  0  0  0  0
   -1.9333   -3.2001    1.1350 O   0  0  0  0  0  0  0  0  0  0  0  0
   -2.2030   -4.1872    2.1570 C   0  0  2  0  0  0  0  0  0  0  0  0
   -3.6210   -4.4510    2.2969 O   0  0  0  0  0  0  0  0  0  0  0  0
   -1.5849   -3.7629    3.4947 C   0  0  2  0  0  0  0  0  0  0  0  0
   -2.0377   -4.6473    4.5523 N   0  3  0  0  0  0  0  0  0  0  0  0
   -1.9467   -2.3260    3.8539 C   0  0  1  0  0  0  0  0  0  0  0  0
   -1.1713   -1.9011    4.9640 O   0  0  0  0  0  0  0  0  0  0  0  0
   -1.7534   -1.3525    2.7014 C   0  0  2  0  0  0  0  0  0  0  0  0
   -2.2814   -0.0780    3.0382 O   0  0  0  0  0  0  0  0  0  0  0  0
   -2.1552   -0.9209    0.3142 C   0  0  0  0  0  0  0  0  0  0  0  0
   -1.8389   -1.6436   -0.9042 N   0  3  0  0  0  0  0  0  0  0  0  0
   -6.5454   -5.1779   -0.7062 C   0  0  2  0  0  0  0  0  0  0  0  0
   -6.7415   -3.9813    0.2036 C   0  0  0  0  0  0  0  0  0  0  0  0
   -5.8624   -4.1000    1.4349 C   0  0  1  0  0  0  0  0  0  0  0  0
   -4.3723   -4.1426    1.0936 C   0  0  2  0  0  0  0  0  0  0  0  0
   -4.0837   -5.2030    0.0060 C   0  0  1  0  0  0  0  0  0  0  0  0
   -5.0922   -5.2871   -1.1474 C   0  0  1  0  0  0  0  0  0  0  0  0
   -7.3997   -5.0429   -1.8706 N   0  3  0  0  0  0  0  0  0  0  0  0
   -6.1495   -2.9938    2.3273 N   0  3  0  0  0  0  0  0  0  0  0  0
   -2.7396   -5.0739   -0.5190 O   0  0  0  0  0  0  0  0  0  0  0  0
   -4.8993   -6.4993   -1.8688 O   0  0  0  0  0  0  0  0  0  0  0  0
  1  2  1  0  0  0  0
  3  2  1  6  0  0  0
  3  4  1  0  0  0  0
  3  5  1  0  0  0  0
  4  8  1  0  0  0  0
  5  6  1  0  0  0  0
  5 12  1  1  0  0  0
  6  7  1  6  0  0  0
  6  8  1  0  0  0  0
  8 41  1  1  0  0  0
  9 10  1  0  0  0  0
  9 17  1  0  0  0  0
  9 19  1  1  0  0  0
 10 11  1  0  0  0  0
 11 12  1  6  0  0  0
 11 13  1  0  0  0  0
 13 14  1  1  0  0  0
 13 15  1  0  0  0  0
 15 16  1  6  0  0  0
 15 17  1  0  0  0  0
 17 18  1  6  0  0  0
 19 20  1  0  0  0  0
 21 22  1  0  0  0  0
 21 29  1  0  0  0  0
 21 31  1  6  0  0  0
 22 23  1  0  0  0  0
 23 24  1  1  0  0  0
 23 25  1  0  0  0  0
 25 26  1  1  0  0  0
 25 27  1  0  0  0  0
 27 28  1  1  0  0  0
 27 29  1  0  0  0  0
 29 30  1  1  0  0  0
 31 32  1  0  0  0  0
 33 34  1  0  0  0  0
 33 38  1  0  0  0  0
 33 39  1  6  0  0  0
 34 35  1  0  0  0  0
 35 36  1  0  0  0  0
 35 40  1  1  0  0  0
 36 24  1  1  0  0  0
 36 37  1  0  0  0  0
 37 38  1  0  0  0  0
 37 41  1  6  0  0  0
 38 42  1  1  0  0  0
M  CHG  6  14   1  20   1  26   1  32   1  39   1  40   1
M  END
>  <CHROM.1>
70.34081274,171.86180924,151.52111363,59.15974133,67.11362254,28.91742650
131.12943008,65.15799988,-62.35902097,-176.63687209,-163.71857627,17.44742060
24.17410433,-165.48758262,-163.35974913,62.97165886,-55.24093442,49.26390916
173.10702881,10.29443163,122.59016594,75.56601490,-3.06997341,-5.85457621
2.05546170,1.18441919,1.11352185,2.91151211

>  <Name>


>  <RI>
0

>  <Rbt.Current_Directory>
/home/itssahil/PROJECTS/Mol_Feturizer/New_Systems/rnas/1qd3

>  <Rbt.Executable>
rbdock ($Id: //depot/dev/client3/rdock/2013.1/src/exe/rbdock.cxx#4 $)

>  <Rbt.Library>
libRbt.so (2013.1, Build901 2013/11/27)

>  <Rbt.Parameter_File>
/export/apps/rDock/src/rDock_2013.1_src/data/scripts/dock_solv.prm

>  <Rbt.Receptor>
prm/blind_docking_40.prm

>  <SCORE>
-46.9392

>  <SCORE.INTER>
-43.8807

>  <SCORE.INTER.CONST>
1

>  <SCORE.INTER.POLAR>
-8.02912

>  <SCORE.INTER.ROT>
9

>  <SCORE.INTER.SOLV>
44.7836

>  <SCORE.INTER.VDW>
-27.0179

>  <SCORE.INTER.norm>
-1.04478

>  <SCORE.INTRA>
-6.49013

>  <SCORE.INTRA.DIHEDRAL>
-2.12708

>  <SCORE.INTRA.DIHEDRAL.0>
40.6252

>  <SCORE.INTRA.POLAR>
0.0211261

>  <SCORE.INTRA.POLAR.0>
-1.20161

>  <SCORE.INTRA.REPUL>
-0.115675

>  <SCORE.INTRA.REPUL.0>
0.115675

>  <SCORE.INTRA.SOLV>
-2.25804

>  <SCORE.INTRA.SOLV.lig_0>
-154.895

>  <SCORE.INTRA.VDW>
-3.79103

>  <SCORE.INTRA.VDW.0>
2.2925

>  <SCORE.INTRA.norm>
-0.154527

>  <SCORE.RESTR>
3.43158

>  <SCORE.RESTR.CAVITY>
3.43158

>  <SCORE.RESTR.norm>
0.0817042

>  <SCORE.SYSTEM>
0

>  <SCORE.SYSTEM.CONST>
0

>  <SCORE.SYSTEM.DIHEDRAL>
0

>  <SCORE.SYSTEM.SOLV>
0

>  <SCORE.SYSTEM.norm>
0

>  <SCORE.heavy>
42

>  <SCORE.norm>
-1.1176

>  <RMSD>
13.493

$$$$

 OpenBabel11021811413D
libRbt.so/2013.1/901 2013/11/27
 42 45  0  0  0  0  0  0  0  0999 V2000
   -3.4671   -9.5332   -1.2497 O   0  0  0  0  0  0  0  0  0  0  0  0
   -3.9207   -8.1907   -1.1517 C   0  0  0  0  0  0  0  0  0  0  0  0
   -4.6752   -7.9939    0.1637 C   0  0  1  0  0  0  0  0  0  0  0  0
   -3.8232   -8.2508    1.3012 O   0  0  0  0  0  0  0  0  0  0  0  0
   -5.2010   -6.5806    0.3522 C   0  0  2  0  0  0  0  0  0  0  0  0
   -5.4182   -6.5640    1.8560 C   0  0  1  0  0  0  0  0  0  0  0  0
   -6.6120   -7.2694    2.1772 O   0  0  0  0  0  0  0  0  0  0  0  0
   -4.1928   -7.3455    2.3721 C   0  0  2  0  0  0  0  0  0  0  0  0
   -5.4875   -3.2089   -1.9641 C   0  0  2  0  0  0  0  0  0  0  0  0
   -5.4006   -4.5830   -1.5572 O   0  0  0  0  0  0  0  0  0  0  0  0
   -6.5670   -5.0021   -0.8260 C   0  0  2  0  0  0  0  0  0  0  0  0
   -6.4222   -6.3674   -0.3827 O   0  0  0  0  0  0  0  0  0  0  0  0
   -7.8316   -4.8520   -1.6890 C   0  0  2  0  0  0  0  0  0  0  0  0
   -7.9169   -5.9203   -2.6676 N   0  3  0  0  0  0  0  0  0  0  0  0
   -7.9299   -3.4849   -2.3762 C   0  0  1  0  0  0  0  0  0  0  0  0
   -8.3589   -2.5143   -1.4346 O   0  0  0  0  0  0  0  0  0  0  0  0
   -6.6021   -3.0494   -2.9902 C   0  0  2  0  0  0  0  0  0  0  0  0
   -6.3209   -3.8323   -4.1445 O   0  0  0  0  0  0  0  0  0  0  0  0
   -4.1541   -2.7305   -2.5316 C   0  0  0  0  0  0  0  0  0  0  0  0
   -3.1904   -2.5351   -1.4648 N   0  3  0  0  0  0  0  0  0  0  0  0
   -2.0267   -3.8282    2.8220 C   0  0  1  0  0  0  0  0  0  0  0  0
   -0.9401   -4.7315    3.1141 O   0  0  0  0  0  0  0  0  0  0  0  0
   -0.6751   -4.8702    4.5290 C   0  0  2  0  0  0  0  0  0  0  0  0
   -1.7761   -5.5011    5.2287 O   0  0  0  0  0  0  0  0  0  0  0  0
   -0.3315   -3.5109    5.1503 C   0  0  2  0  0  0  0  0  0  0  0  0
   -0.2760   -3.6267    6.5957 N   0  3  0  0  0  0  0  0  0  0  0  0
   -1.3514   -2.4427    4.7720 C   0  0  1  0  0  0  0  0  0  0  0  0
   -0.8740   -1.1654    5.1654 O   0  0  0  0  0  0  0  0  0  0  0  0
   -1.6777   -2.4237    3.2866 C   0  0  2  0  0  0  0  0  0  0  0  0
   -2.7623   -1.5434    3.0307 O   0  0  0  0  0  0  0  0  0  0  0  0
   -2.2682   -3.7713    1.3163 C   0  0  0  0  0  0  0  0  0  0  0  0
   -1.1422   -4.3336    0.5934 N   0  3  0  0  0  0  0  0  0  0  0  0
   -0.6417   -9.2010    3.4614 C   0  0  2  0  0  0  0  0  0  0  0  0
   -0.8957   -9.1741    4.9557 C   0  0  0  0  0  0  0  0  0  0  0  0
   -0.8874   -7.7466    5.4706 C   0  0  1  0  0  0  0  0  0  0  0  0
   -1.9766   -6.8833    4.8325 C   0  0  2  0  0  0  0  0  0  0  0  0
   -1.9428   -6.9997    3.2910 C   0  0  1  0  0  0  0  0  0  0  0  0
   -1.7058   -8.4038    2.7194 C   0  0  1  0  0  0  0  0  0  0  0  0
   -0.6490  -10.5749    2.9961 N   0  3  0  0  0  0  0  0  0  0  0  0
   -1.0317   -7.7652    6.9132 N   0  3  0  0  0  0  0  0  0  0  0  0
   -3.1210   -6.4110    2.6876 O   0  0  0  0  0  0  0  0  0  0  0  0
   -1.3621   -8.3111    1.3408 O   0  0  0  0  0  0  0  0  0  0  0  0
  1  2  1  0  0  0  0
  3  2  1  6  0  0  0
  3  4  1  0  0  0  0
  3  5  1  0  0  0  0
  4  8  1  0  0  0  0
  5  6  1  0  0  0  0
  5 12  1  6  0  0  0
  6  7  1  6  0  0  0
  6  8  1  0  0  0  0
  8 41  1  6  0  0  0
  9 10  1  0  0  0  0
  9 17  1  0  0  0  0
  9 19  1  6  0  0  0
 10 11  1  0  0  0  0
 11 12  1  6  0  0  0
 11 13  1  0  0  0  0
 13 14  1  6  0  0  0
 13 15  1  0  0  0  0
 15 16  1  1  0  0  0
 15 17  1  0  0  0  0
 17 18  1  6  0  0  0
 19 20  1  0  0  0  0
 21 22  1  0  0  0  0
 21 29  1  0  0  0  0
 21 31  1  6  0  0  0
 22 23  1  0  0  0  0
 23 24  1  1  0  0  0
 23 25  1  0  0  0  0
 25 26  1  1  0  0  0
 25 27  1  0  0  0  0
 27 28  1  6  0  0  0
 27 29  1  0  0  0  0
 29 30  1  1  0  0  0
 31 32  1  0  0  0  0
 33 34  1  0  0  0  0
 33 38  1  0  0  0  0
 33 39  1  6  0  0  0
 34 35  1  0  0  0  0
 35 36  1  0  0  0  0
 35 40  1  1  0  0  0
 36 24  1  6  0  0  0
 36 37  1  0  0  0  0
 37 38  1  0  0  0  0
 37 41  1  6  0  0  0
 38 42  1  6  0  0  0
M  CHG  6  14   1  20   1  26   1  32   1  39   1  40   1
M  END
>  <CHROM.1>
-168.62101677,60.98130139,-148.94713252,-62.87865204,-68.08780278,-73.93348849
53.20963083,-149.39464213,-63.63293733,46.41907541,-179.50780575,-15.38991673
66.08586168,75.38957076,68.59337580,-179.66236954,-70.30108877,0.33827005
56.14259006,63.88366718,-96.22617365,69.70761869,-3.41935695,-5.54839706
1.55389943,2.96825582,-0.89324270,0.01466624

>  <Name>


>  <RI>
0

>  <Rbt.Current_Directory>
/home/itssahil/PROJECTS/Mol_Feturizer/New_Systems/rnas/1qd3

>  <Rbt.Executable>
rbdock ($Id: //depot/dev/client3/rdock/2013.1/src/exe/rbdock.cxx#4 $)

>  <Rbt.Library>
libRbt.so (2013.1, Build901 2013/11/27)

>  <Rbt.Parameter_File>
/export/apps/rDock/src/rDock_2013.1_src/data/scripts/dock_solv.prm

>  <Rbt.Receptor>
prm/blind_docking_40.prm

>  <SCORE>
-28.6265

>  <SCORE.INTER>
-22.0163

>  <SCORE.INTER.CONST>
1

>  <SCORE.INTER.POLAR>
-3.08852

>  <SCORE.INTER.ROT>
9

>  <SCORE.INTER.SOLV>
25.317

>  <SCORE.INTER.VDW>
-22.4215

>  <SCORE.INTER.norm>
-0.524197

>  <SCORE.INTRA>
-10.6126

>  <SCORE.INTRA.DIHEDRAL>
-16.6114

>  <SCORE.INTRA.DIHEDRAL.0>
40.6252

>  <SCORE.INTRA.POLAR>
0.780507

>  <SCORE.INTRA.POLAR.0>
-1.20161

>  <SCORE.INTRA.REPUL>
-0.115675

>  <SCORE.INTRA.REPUL.0>
0.115675

>  <SCORE.INTRA.SOLV>
-5.92402

>  <SCORE.INTRA.SOLV.lig_0>
-154.895

>  <SCORE.INTRA.VDW>
-1.42026

>  <SCORE.INTRA.VDW.0>
2.2925

>  <SCORE.INTRA.norm>
-0.252682

>  <SCORE.RESTR>
4.00242

>  <SCORE.RESTR.CAVITY>
4.00242

>  <SCORE.RESTR.norm>
0.0952958

>  <SCORE.SYSTEM>
0

>  <SCORE.SYSTEM.CONST>
0

>  <SCORE.SYSTEM.DIHEDRAL>
0

>  <SCORE.SYSTEM.SOLV>
0

>  <SCORE.SYSTEM.norm>
0

>  <SCORE.heavy>
42

>  <SCORE.norm>
-0.681583

>  <RMSD>
13.498

$$$$

 OpenBabel11021811413D
libRbt.so/2013.1/901 2013/11/27
 42 45  0  0  0  0  0  0  0  0999 V2000
   -3.9171   -3.2518   -3.7750 O   0  0  0  0  0  0  0  0  0  0  0  0
   -3.9639   -3.1290   -2.3606 C   0  0  0  0  0  0  0  0  0  0  0  0
   -3.3489   -4.3701   -1.7126 C   0  0  1  0  0  0  0  0  0  0  0  0
   -1.9525   -4.1652   -1.4065 O   0  0  0  0  0  0  0  0  0  0  0  0
   -4.0080   -4.7539   -0.3982 C   0  0  2  0  0  0  0  0  0  0  0  0
   -2.9240   -5.6275    0.2106 C   0  0  1  0  0  0  0  0  0  0  0  0
   -2.9377   -6.9104   -0.4058 O   0  0  0  0  0  0  0  0  0  0  0  0
   -1.6374   -4.8721   -0.1802 C   0  0  2  0  0  0  0  0  0  0  0  0
   -7.3165   -5.9045   -3.5869 C   0  0  2  0  0  0  0  0  0  0  0  0
   -6.7174   -6.1955   -2.3150 O   0  0  0  0  0  0  0  0  0  0  0  0
   -5.8692   -5.1246   -1.8627 C   0  0  2  0  0  0  0  0  0  0  0  0
   -5.2385   -5.4729   -0.6127 O   0  0  0  0  0  0  0  0  0  0  0  0
   -6.6736   -3.8222   -1.7105 C   0  0  2  0  0  0  0  0  0  0  0  0
   -7.4781   -3.8522   -0.5030 N   0  3  0  0  0  0  0  0  0  0  0  0
   -7.5480   -3.5113   -2.9310 C   0  0  1  0  0  0  0  0  0  0  0  0
   -6.7371   -2.9846   -3.9693 O   0  0  0  0  0  0  0  0  0  0  0  0
   -8.2917   -4.7436   -3.4387 C   0  0  2  0  0  0  0  0  0  0  0  0
   -9.3321   -5.0906   -2.5321 O   0  0  0  0  0  0  0  0  0  0  0  0
   -8.0211   -7.1381   -4.1444 C   0  0  0  0  0  0  0  0  0  0  0  0
   -8.2486   -6.9908   -5.5696 N   0  3  0  0  0  0  0  0  0  0  0  0
   -4.4657    0.8946    1.4575 C   0  0  1  0  0  0  0  0  0  0  0  0
   -4.9929   -0.2849    0.8150 O   0  0  0  0  0  0  0  0  0  0  0  0
   -3.9683   -1.2167    0.3985 C   0  0  2  0  0  0  0  0  0  0  0  0
   -3.2628   -1.7891    1.5273 O   0  0  0  0  0  0  0  0  0  0  0  0
   -2.9953   -0.5479   -0.5802 C   0  0  2  0  0  0  0  0  0  0  0  0
   -1.8611   -1.4195   -0.8244 N   0  3  0  0  0  0  0  0  0  0  0  0
   -2.4934    0.7912   -0.0516 C   0  0  1  0  0  0  0  0  0  0  0  0
   -1.7925    1.4776   -1.0772 O   0  0  0  0  0  0  0  0  0  0  0  0
   -3.6058    1.6809    0.4815 C   0  0  2  0  0  0  0  0  0  0  0  0
   -3.0590    2.8223    1.1257 O   0  0  0  0  0  0  0  0  0  0  0  0
   -5.6090    1.8021    1.9026 C   0  0  0  0  0  0  0  0  0  0  0  0
   -6.2327    2.4418    0.7587 N   0  3  0  0  0  0  0  0  0  0  0  0
   -3.4104   -5.4659    3.6624 C   0  0  2  0  0  0  0  0  0  0  0  0
   -4.7110   -4.9015    3.1260 C   0  0  0  0  0  0  0  0  0  0  0  0
   -4.5457   -3.4372    2.7636 C   0  0  1  0  0  0  0  0  0  0  0  0
   -3.4968   -3.2144    1.6732 C   0  0  2  0  0  0  0  0  0  0  0  0
   -2.1730   -3.9325    2.0237 C   0  0  1  0  0  0  0  0  0  0  0  0
   -2.2998   -5.3369    2.6286 C   0  0  1  0  0  0  0  0  0  0  0  0
   -3.5966   -6.8628    4.0060 N   0  3  0  0  0  0  0  0  0  0  0  0
   -5.8302   -2.9058    2.3514 N   0  3  0  0  0  0  0  0  0  0  0  0
   -1.2675   -3.9595    0.8931 O   0  0  0  0  0  0  0  0  0  0  0  0
   -1.0583   -5.7266    3.2065 O   0  0  0  0  0  0  0  0  0  0  0  0
  1  2  1  0  0  0  0
  3  2  1  1  0  0  0
  3  4  1  0  0  0  0
  3  5  1  0  0  0  0
  4  8  1  0  0  0  0
  5  6  1  0  0  0  0
  5 12  1  6  0  0  0
  6  7  1  6  0  0  0
  6  8  1  0  0  0  0
  8 41  1  1  0  0  0
  9 10  1  0  0  0  0
  9 17  1  0  0  0  0
  9 19  1  1  0  0  0
 10 11  1  0  0  0  0
 11 12  1  1  0  0  0
 11 13  1  0  0  0  0
 13 14  1  1  0  0  0
 13 15  1  0  0  0  0
 15 16  1  6  0  0  0
 15 17  1  0  0  0  0
 17 18  1  1  0  0  0
 19 20  1  0  0  0  0
 21 22  1  0  0  0  0
 21 29  1  0  0  0  0
 21 31  1  6  0  0  0
 22 23  1  0  0  0  0
 23 24  1  1  0  0  0
 23 25  1  0  0  0  0
 25 26  1  1  0  0  0
 25 27  1  0  0  0  0
 27 28  1  6  0  0  0
 27 29  1  0  0  0  0
 29 30  1  1  0  0  0
 31 32  1  0  0  0  0
 33 34  1  0  0  0  0
 33 38  1  0  0  0  0
 33 39  1  6  0  0  0
 34 35  1  0  0  0  0
 35 36  1  0  0  0  0
 35 40  1  6  0  0  0
 36 24  1  1  0  0  0
 36 37  1  0  0  0  0
 37 38  1  0  0  0  0
 37 41  1  6  0  0  0
 38 42  1  1  0  0  0
M  CHG  6  14   1  20   1  26   1  32   1  39   1  40   1
M  END
>  <CHROM.1>
-167.64364323,94.47738055,-27.69950746,63.36699873,115.07857107,-161.83771865
155.46969740,-85.81040393,62.09932484,-58.92179108,170.87633113,-72.18101088
113.74058464,-100.11083306,5.42831254,64.39183267,60.71687281,-131.85081856
-67.37108115,-172.10670808,-72.66835911,65.73712214,-4.51402015,-3.25753039
-0.28840234,2.39496529,0.85665800,3.12229955

>  <Name>


>  <RI>
0

>  <Rbt.Current_Directory>
/home/itssahil/PROJECTS/Mol_Feturizer/New_Systems/rnas/1qd3

>  <Rbt.Executable>
rbdock ($Id: //depot/dev/client3/rdock/2013.1/src/exe/rbdock.cxx#4 $)

>  <Rbt.Library>
libRbt.so (2013.1, Build901 2013/11/27)

>  <Rbt.Parameter_File>
/export/apps/rDock/src/rDock_2013.1_src/data/scripts/dock_solv.prm

>  <Rbt.Receptor>
prm/blind_docking_100.prm

>  <SCORE>
-39.0044

>  <SCORE.INTER>
-45.4696

>  <SCORE.INTER.CONST>
1

>  <SCORE.INTER.POLAR>
-5.67297

>  <SCORE.INTER.ROT>
9

>  <SCORE.INTER.SOLV>
40.9985

>  <SCORE.INTER.VDW>
-34.6693

>  <SCORE.INTER.norm>
-1.08261

>  <SCORE.INTRA>
6.44859

>  <SCORE.INTRA.DIHEDRAL>
1.71821

>  <SCORE.INTRA.DIHEDRAL.0>
40.6252

>  <SCORE.INTRA.POLAR>
-1.19788

>  <SCORE.INTRA.POLAR.0>
-1.20161

>  <SCORE.INTRA.REPUL>
-0.115675

>  <SCORE.INTRA.REPUL.0>
0.115675

>  <SCORE.INTRA.SOLV>
3.65207

>  <SCORE.INTRA.SOLV.lig_0>
-154.895

>  <SCORE.INTRA.VDW>
8.4146

>  <SCORE.INTRA.VDW.0>
2.2925

>  <SCORE.INTRA.norm>
0.153538

>  <SCORE.RESTR>
0.0165646

>  <SCORE.RESTR.CAVITY>
0.0165646

>  <SCORE.RESTR.norm>
0.000394394

>  <SCORE.SYSTEM>
0

>  <SCORE.SYSTEM.CONST>
0

>  <SCORE.SYSTEM.DIHEDRAL>
0

>  <SCORE.SYSTEM.SOLV>
0

>  <SCORE.SYSTEM.norm>
0

>  <SCORE.heavy>
42

>  <SCORE.norm>
-0.928677

>  <RMSD>
13.539

$$$$

 OpenBabel11021811413D
libRbt.so/2013.1/901 2013/11/27
 42 45  0  0  0  0  0  0  0  0999 V2000
   -6.4506   -7.1604   -2.3731 O   0  0  0  0  0  0  0  0  0  0  0  0
   -5.5573   -7.6365   -1.3766 C   0  0  0  0  0  0  0  0  0  0  0  0
   -5.7492   -6.8393   -0.0859 C   0  0  1  0  0  0  0  0  0  0  0  0
   -4.9607   -7.3883    0.9924 O   0  0  0  0  0  0  0  0  0  0  0  0
   -5.3274   -5.3844   -0.2069 C   0  0  2  0  0  0  0  0  0  0  0  0
   -5.1517   -5.0240    1.2588 C   0  0  1  0  0  0  0  0  0  0  0  0
   -6.4255   -4.8170    1.8591 O   0  0  0  0  0  0  0  0  0  0  0  0
   -4.5025   -6.2995    1.8335 C   0  0  2  0  0  0  0  0  0  0  0  0
   -4.6913   -1.3449   -0.5507 C   0  0  2  0  0  0  0  0  0  0  0  0
   -5.1448   -2.6582   -0.1887 O   0  0  0  0  0  0  0  0  0  0  0  0
   -5.8516   -3.2989   -1.2662 C   0  0  2  0  0  0  0  0  0  0  0  0
   -6.3430   -4.5903   -0.8510 O   0  0  0  0  0  0  0  0  0  0  0  0
   -4.9444   -3.4441   -2.5000 C   0  0  2  0  0  0  0  0  0  0  0  0
   -3.9984   -4.5297   -2.3187 N   0  3  0  0  0  0  0  0  0  0  0  0
   -4.2107   -2.1470   -2.8609 C   0  0  1  0  0  0  0  0  0  0  0  0
   -5.1065   -1.2677   -3.5221 O   0  0  0  0  0  0  0  0  0  0  0  0
   -3.6257   -1.4529   -1.6339 C   0  0  2  0  0  0  0  0  0  0  0  0
   -2.5067   -2.1858   -1.1489 O   0  0  0  0  0  0  0  0  0  0  0  0
   -4.1514   -0.6067    0.6709 C   0  0  0  0  0  0  0  0  0  0  0  0
   -5.1437   -0.5848    1.7291 N   0  3  0  0  0  0  0  0  0  0  0  0
    0.0024   -4.3142    6.4473 C   0  0  1  0  0  0  0  0  0  0  0  0
   -1.3053   -4.9022    6.6097 O   0  0  0  0  0  0  0  0  0  0  0  0
   -2.0962   -4.8831    5.3991 C   0  0  2  0  0  0  0  0  0  0  0  0
   -1.5253   -5.7208    4.3637 O   0  0  0  0  0  0  0  0  0  0  0  0
   -2.2899   -3.4452    4.9027 C   0  0  2  0  0  0  0  0  0  0  0  0
   -2.8986   -3.4535    3.5855 N   0  3  0  0  0  0  0  0  0  0  0  0
   -0.9689   -2.6865    4.8394 C   0  0  1  0  0  0  0  0  0  0  0  0
   -1.2194   -1.3090    4.6069 O   0  0  0  0  0  0  0  0  0  0  0  0
   -0.1273   -2.8409    6.0968 C   0  0  2  0  0  0  0  0  0  0  0  0
    1.1594   -2.2723    5.9024 O   0  0  0  0  0  0  0  0  0  0  0  0
    0.7850   -4.4123    7.7537 C   0  0  0  0  0  0  0  0  0  0  0  0
    0.1382   -3.6413    8.7996 N   0  3  0  0  0  0  0  0  0  0  0  0
   -2.2256   -9.6865    2.9918 C   0  0  2  0  0  0  0  0  0  0  0  0
   -2.4874   -9.3823    4.4536 C   0  0  0  0  0  0  0  0  0  0  0  0
   -1.8195   -8.0797    4.8534 C   0  0  1  0  0  0  0  0  0  0  0  0
   -2.3448   -6.8807    4.0626 C   0  0  2  0  0  0  0  0  0  0  0  0
   -2.3175   -7.1650    2.5430 C   0  0  1  0  0  0  0  0  0  0  0  0
   -2.7568   -8.5684    2.1050 C   0  0  1  0  0  0  0  0  0  0  0  0
   -2.8689  -10.9373    2.6371 N   0  3  0  0  0  0  0  0  0  0  0  0
   -2.0047   -7.8724    6.2764 N   0  3  0  0  0  0  0  0  0  0  0  0
   -3.0529   -6.1612    1.8011 O   0  0  0  0  0  0  0  0  0  0  0  0
   -2.3632   -8.7974    0.7560 O   0  0  0  0  0  0  0  0  0  0  0  0
  1  2  1  0  0  0  0
  3  2  1  6  0  0  0
  3  4  1  0  0  0  0
  3  5  1  0  0  0  0
  4  8  1  0  0  0  0
  5  6  1  0  0  0  0
  5 12  1  1  0  0  0
  6  7  1  1  0  0  0
  6  8  1  0  0  0  0
  8 41  1  6  0  0  0
  9 10  1  0  0  0  0
  9 17  1  0  0  0  0
  9 19  1  1  0  0  0
 10 11  1  0  0  0  0
 11 12  1  1  0  0  0
 11 13  1  0  0  0  0
 13 14  1  1  0  0  0
 13 15  1  0  0  0  0
 15 16  1  1  0  0  0
 15 17  1  0  0  0  0
 17 18  1  1  0  0  0
 19 20  1  0  0  0  0
 21 22  1  0  0  0  0
 21 29  1  0  0  0  0
 21 31  1  1  0  0  0
 22 23  1  0  0  0  0
 23 24  1  6  0  0  0
 23 25  1  0  0  0  0
 25 26  1  6  0  0  0
 25 27  1  0  0  0  0
 27 28  1  1  0  0  0
 27 29  1  0  0  0  0
 29 30  1  6  0  0  0
 31 32  1  0  0  0  0
 33 34  1  0  0  0  0
 33 38  1  0  0  0  0
 33 39  1  6  0  0  0
 34 35  1  0  0  0  0
 35 36  1  0  0  0  0
 35 40  1  1  0  0  0
 36 24  1  6  0  0  0
 36 37  1  0  0  0  0
 37 38  1  0  0  0  0
 37 41  1  6  0  0  0
 38 42  1  6  0  0  0
M  CHG  6  14   1  20   1  26   1  32   1  39   1  40   1
M  END
>  <CHROM.1>
34.10080261,173.81097890,-166.01689357,65.07161858,-74.62160005,-54.50469336
-48.89262308,75.57725703,-53.93039884,-172.10304162,93.33765809,-63.67159049
112.45804938,-96.12736080,90.73624599,155.90638748,-58.88656772,82.75152517
157.76393774,96.40956368,-77.70873173,70.98594854,-3.20398751,-4.89233363
2.12668777,2.83576766,-1.02931473,-0.18156366

>  <Name>


>  <RI>
0

>  <Rbt.Current_Directory>
/home/itssahil/PROJECTS/Mol_Feturizer/New_Systems/rnas/1qd3

>  <Rbt.Executable>
rbdock ($Id: //depot/dev/client3/rdock/2013.1/src/exe/rbdock.cxx#4 $)

>  <Rbt.Library>
libRbt.so (2013.1, Build901 2013/11/27)

>  <Rbt.Parameter_File>
/export/apps/rDock/src/rDock_2013.1_src/data/scripts/dock_solv.prm

>  <Rbt.Receptor>
prm/blind_docking_20.prm

>  <SCORE>
-38.9819

>  <SCORE.INTER>
-27.6541

>  <SCORE.INTER.CONST>
1

>  <SCORE.INTER.POLAR>
-4.49815

>  <SCORE.INTER.ROT>
9

>  <SCORE.INTER.SOLV>
29.8964

>  <SCORE.INTER.VDW>
-23.0077

>  <SCORE.INTER.norm>
-0.658432

>  <SCORE.INTRA>
-14.5785

>  <SCORE.INTRA.DIHEDRAL>
-9.47751

>  <SCORE.INTRA.DIHEDRAL.0>
40.6252

>  <SCORE.INTRA.POLAR>
-1.25862

>  <SCORE.INTRA.POLAR.0>
-1.20161

>  <SCORE.INTRA.REPUL>
-0.113765

>  <SCORE.INTRA.REPUL.0>
0.115675

>  <SCORE.INTRA.SOLV>
-0.717463

>  <SCORE.INTRA.SOLV.lig_0>
-154.895

>  <SCORE.INTRA.VDW>
-4.63289

>  <SCORE.INTRA.VDW.0>
2.2925

>  <SCORE.INTRA.norm>
-0.347107

>  <SCORE.RESTR>
3.25072

>  <SCORE.RESTR.CAVITY>
3.25072

>  <SCORE.RESTR.norm>
0.077398

>  <SCORE.SYSTEM>
0

>  <SCORE.SYSTEM.CONST>
0

>  <SCORE.SYSTEM.DIHEDRAL>
0

>  <SCORE.SYSTEM.SOLV>
0

>  <SCORE.SYSTEM.norm>
0

>  <SCORE.heavy>
42

>  <SCORE.norm>
-0.928141

>  <RMSD>
13.578

$$$$

 OpenBabel11021811413D
libRbt.so/2013.1/901 2013/11/27
 42 45  0  0  0  0  0  0  0  0999 V2000
   -5.7411   -8.8873   -0.9883 O   0  0  0  0  0  0  0  0  0  0  0  0
   -4.4430   -9.2704   -1.4196 C   0  0  0  0  0  0  0  0  0  0  0  0
   -3.4427   -8.1585   -1.1013 C   0  0  1  0  0  0  0  0  0  0  0  0
   -3.9178   -6.8761   -1.5655 O   0  0  0  0  0  0  0  0  0  0  0  0
   -3.1822   -7.9888    0.3862 C   0  0  2  0  0  0  0  0  0  0  0  0
   -2.6083   -6.5820    0.4083 C   0  0  1  0  0  0  0  0  0  0  0  0
   -1.2554   -6.6076   -0.0333 O   0  0  0  0  0  0  0  0  0  0  0  0
   -3.4852   -5.8548   -0.6314 C   0  0  2  0  0  0  0  0  0  0  0  0
   -2.6958   -8.1430    4.4065 C   0  0  2  0  0  0  0  0  0  0  0  0
   -3.0382   -8.4351    3.0431 O   0  0  0  0  0  0  0  0  0  0  0  0
   -1.8766   -8.7406    2.2507 C   0  0  2  0  0  0  0  0  0  0  0  0
   -2.2489   -8.9716    0.8760 O   0  0  0  0  0  0  0  0  0  0  0  0
   -1.1395   -9.9661    2.8176 C   0  0  2  0  0  0  0  0  0  0  0  0
   -1.8393  -11.1910    2.4765 N   0  3  0  0  0  0  0  0  0  0  0  0
   -0.9115   -9.8814    4.3314 C   0  0  1  0  0  0  0  0  0  0  0  0
    0.1727   -9.0054    4.5961 O   0  0  0  0  0  0  0  0  0  0  0  0
   -2.1526   -9.3983    5.0771 C   0  0  2  0  0  0  0  0  0  0  0  0
   -3.1439  -10.4190    5.0822 O   0  0  0  0  0  0  0  0  0  0  0  0
   -3.9075   -7.6045    5.1619 C   0  0  0  0  0  0  0  0  0  0  0  0
   -4.6994   -8.6975    5.6941 N   0  3  0  0  0  0  0  0  0  0  0  0
   -4.8324    0.4714    0.7621 C   0  0  1  0  0  0  0  0  0  0  0  0
   -4.0741    0.0657   -0.3966 O   0  0  0  0  0  0  0  0  0  0  0  0
   -3.2214   -1.0764   -0.1520 C   0  0  2  0  0  0  0  0  0  0  0  0
   -3.9857   -2.2744    0.1315 O   0  0  0  0  0  0  0  0  0  0  0  0
   -2.2259   -0.7761    0.9752 C   0  0  2  0  0  0  0  0  0  0  0  0
   -1.5240   -1.9889    1.3524 N   0  3  0  0  0  0  0  0  0  0  0  0
   -2.9201   -0.1965    2.2027 C   0  0  1  0  0  0  0  0  0  0  0  0
   -1.9485    0.2823    3.1197 O   0  0  0  0  0  0  0  0  0  0  0  0
   -3.8936    0.9233    1.8688 C   0  0  2  0  0  0  0  0  0  0  0  0
   -4.6398    1.2883    3.0205 O   0  0  0  0  0  0  0  0  0  0  0  0
   -5.7343    1.6508    0.4094 C   0  0  0  0  0  0  0  0  0  0  0  0
   -4.9440    2.8316    0.1130 N   0  3  0  0  0  0  0  0  0  0  0  0
   -6.5969   -3.7774   -2.8722 C   0  0  2  0  0  0  0  0  0  0  0  0
   -5.5034   -2.8164   -3.2953 C   0  0  0  0  0  0  0  0  0  0  0  0
   -4.9444   -2.0833   -2.0900 C   0  0  1  0  0  0  0  0  0  0  0  0
   -4.3154   -3.0279   -1.0648 C   0  0  2  0  0  0  0  0  0  0  0  0
   -5.2809   -4.1827   -0.7108 C   0  0  1  0  0  0  0  0  0  0  0  0
   -6.0613   -4.7997   -1.8789 C   0  0  1  0  0  0  0  0  0  0  0  0
   -7.1174   -4.4600   -4.0414 N   0  3  0  0  0  0  0  0  0  0  0  0
   -3.9758   -1.1035   -2.5418 N   0  3  0  0  0  0  0  0  0  0  0  0
   -4.6113   -5.2232    0.0428 O   0  0  0  0  0  0  0  0  0  0  0  0
   -7.1344   -5.5898   -1.3775 O   0  0  0  0  0  0  0  0  0  0  0  0
  1  2  1  0  0  0  0
  3  2  1  1  0  0  0
  3  4  1  0  0  0  0
  3  5  1  0  0  0  0
  4  8  1  0  0  0  0
  5  6  1  0  0  0  0
  5 12  1  6  0  0  0
  6  7  1  6  0  0  0
  6  8  1  0  0  0  0
  8 41  1  1  0  0  0
  9 10  1  0  0  0  0
  9 17  1  0  0  0  0
  9 19  1  1  0  0  0
 10 11  1  0  0  0  0
 11 12  1  6  0  0  0
 11 13  1  0  0  0  0
 13 14  1  1  0  0  0
 13 15  1  0  0  0  0
 15 16  1  6  0  0  0
 15 17  1  0  0  0  0
 17 18  1  6  0  0  0
 19 20  1  0  0  0  0
 21 22  1  0  0  0  0
 21 29  1  0  0  0  0
 21 31  1  6  0  0  0
 22 23  1  0  0  0  0
 23 24  1  1  0  0  0
 23 25  1  0  0  0  0
 25 26  1  1  0  0  0
 25 27  1  0  0  0  0
 27 28  1  1  0  0  0
 27 29  1  0  0  0  0
 29 30  1  1  0  0  0
 31 32  1  0  0  0  0
 33 34  1  0  0  0  0
 33 38  1  0  0  0  0
 33 39  1  6  0  0  0
 34 35  1  0  0  0  0
 35 36  1  0  0  0  0
 35 40  1  6  0  0  0
 36 24  1  1  0  0  0
 36 37  1  0  0  0  0
 37 38  1  0  0  0  0
 37 41  1  6  0  0  0
 38 42  1  1  0  0  0
M  CHG  6  14   1  20   1  26   1  32   1  39   1  40   1
M  END
>  <CHROM.1>
-63.82407121,-49.81449818,173.72185717,-45.78041169,-81.31025803,86.19277851
44.81649512,88.37184215,61.48969707,-165.27570496,-175.03916866,-67.04756115
89.41398335,-50.80104749,-41.47065784,-69.13175524,-50.52000948,-100.51575673
-54.97587497,-90.50420595,-59.88264757,-171.13397163,-3.69531547,-4.92764643
0.84224808,1.11027384,1.09773827,-3.05798079

>  <Name>


>  <RI>
0

>  <Rbt.Current_Directory>
/home/itssahil/PROJECTS/Mol_Feturizer/New_Systems/rnas/1qd3

>  <Rbt.Executable>
rbdock ($Id: //depot/dev/client3/rdock/2013.1/src/exe/rbdock.cxx#4 $)

>  <Rbt.Library>
libRbt.so (2013.1, Build901 2013/11/27)

>  <Rbt.Parameter_File>
/export/apps/rDock/src/rDock_2013.1_src/data/scripts/dock_solv.prm

>  <Rbt.Receptor>
prm/blind_docking_80.prm

>  <SCORE>
-69.3113

>  <SCORE.INTER>
-61.156

>  <SCORE.INTER.CONST>
1

>  <SCORE.INTER.POLAR>
-9.10708

>  <SCORE.INTER.ROT>
9

>  <SCORE.INTER.SOLV>
30.8701

>  <SCORE.INTER.VDW>
-30.3038

>  <SCORE.INTER.norm>
-1.4561

>  <SCORE.INTRA>
-8.62739

>  <SCORE.INTRA.DIHEDRAL>
-18.616

>  <SCORE.INTRA.DIHEDRAL.0>
40.6252

>  <SCORE.INTRA.POLAR>
0.332834

>  <SCORE.INTRA.POLAR.0>
-1.20161

>  <SCORE.INTRA.REPUL>
-0.115675

>  <SCORE.INTRA.REPUL.0>
0.115675

>  <SCORE.INTRA.SOLV>
-5.46242

>  <SCORE.INTRA.SOLV.lig_0>
-154.895

>  <SCORE.INTRA.VDW>
2.85858

>  <SCORE.INTRA.VDW.0>
2.2925

>  <SCORE.INTRA.norm>
-0.205414

>  <SCORE.RESTR>
0.472116

>  <SCORE.RESTR.CAVITY>
0.472116

>  <SCORE.RESTR.norm>
0.0112409

>  <SCORE.SYSTEM>
0

>  <SCORE.SYSTEM.CONST>
0

>  <SCORE.SYSTEM.DIHEDRAL>
0

>  <SCORE.SYSTEM.SOLV>
0

>  <SCORE.SYSTEM.norm>
0

>  <SCORE.heavy>
42

>  <SCORE.norm>
-1.65027

>  <RMSD>
13.590

$$$$

 OpenBabel11021811413D
libRbt.so/2013.1/901 2013/11/27
 42 45  0  0  0  0  0  0  0  0999 V2000
   -6.3993   -7.2834   -1.4167 O   0  0  0  0  0  0  0  0  0  0  0  0
   -5.1835   -8.0162   -1.4676 C   0  0  0  0  0  0  0  0  0  0  0  0
   -3.9994   -7.0506   -1.5313 C   0  0  1  0  0  0  0  0  0  0  0  0
   -4.3486   -5.8371   -2.2321 O   0  0  0  0  0  0  0  0  0  0  0  0
   -3.5059   -6.6100   -0.1631 C   0  0  2  0  0  0  0  0  0  0  0  0
   -2.7400   -5.3520   -0.5367 C   0  0  1  0  0  0  0  0  0  0  0  0
   -1.4825   -5.7047   -1.1025 O   0  0  0  0  0  0  0  0  0  0  0  0
   -3.6447   -4.7276   -1.6185 C   0  0  2  0  0  0  0  0  0  0  0  0
   -3.8615   -7.7075    3.8921 C   0  0  2  0  0  0  0  0  0  0  0  0
   -3.8630   -7.8723    2.4658 O   0  0  0  0  0  0  0  0  0  0  0  0
   -2.6070   -7.4866    1.8789 C   0  0  2  0  0  0  0  0  0  0  0  0
   -2.6617   -7.6089    0.4423 O   0  0  0  0  0  0  0  0  0  0  0  0
   -1.4587   -8.3400    2.4442 C   0  0  2  0  0  0  0  0  0  0  0  0
   -1.4625   -9.6652    1.8524 N   0  3  0  0  0  0  0  0  0  0  0  0
   -1.4793   -8.4351    3.9743 C   0  0  1  0  0  0  0  0  0  0  0  0
   -0.9669   -7.2333    4.5277 O   0  0  0  0  0  0  0  0  0  0  0  0
   -2.8819   -8.6912    4.5191 C   0  0  2  0  0  0  0  0  0  0  0  0
   -3.2779  -10.0273    4.2317 O   0  0  0  0  0  0  0  0  0  0  0  0
   -5.2653   -7.9037    4.4576 C   0  0  0  0  0  0  0  0  0  0  0  0
   -6.2633   -7.4716    3.4973 N   0  3  0  0  0  0  0  0  0  0  0  0
   -3.0525   -2.1436    1.4576 C   0  0  1  0  0  0  0  0  0  0  0  0
   -4.3036   -2.0779    0.7416 O   0  0  0  0  0  0  0  0  0  0  0  0
   -4.4045   -0.9291   -0.1311 C   0  0  2  0  0  0  0  0  0  0  0  0
   -3.4480   -0.9868   -1.2181 O   0  0  0  0  0  0  0  0  0  0  0  0
   -4.2556    0.3713    0.6680 C   0  0  2  0  0  0  0  0  0  0  0  0
   -4.1472    1.4997   -0.2379 N   0  3  0  0  0  0  0  0  0  0  0  0
   -3.0320    0.3391    1.5769 C   0  0  1  0  0  0  0  0  0  0  0  0
   -3.0642    1.4485    2.4614 O   0  0  0  0  0  0  0  0  0  0  0  0
   -2.9168   -0.9455    2.3831 C   0  0  2  0  0  0  0  0  0  0  0  0
   -1.6696   -0.9930    3.0603 O   0  0  0  0  0  0  0  0  0  0  0  0
   -3.0096   -3.4019    2.3198 C   0  0  0  0  0  0  0  0  0  0  0  0
   -4.1869   -3.4868    3.1645 N   0  3  0  0  0  0  0  0  0  0  0  0
   -6.2958   -2.3459   -4.0716 C   0  0  2  0  0  0  0  0  0  0  0  0
   -5.0596   -1.6332   -4.5834 C   0  0  0  0  0  0  0  0  0  0  0  0
   -4.3768   -0.8784   -3.4577 C   0  0  1  0  0  0  0  0  0  0  0  0
   -3.9080   -1.7989   -2.3300 C   0  0  2  0  0  0  0  0  0  0  0  0
   -5.0510   -2.7305   -1.8647 C   0  0  1  0  0  0  0  0  0  0  0  0
   -5.9323   -3.3304   -2.9682 C   0  0  1  0  0  0  0  0  0  0  0  0
   -6.9318   -3.0537   -5.1663 N   0  3  0  0  0  0  0  0  0  0  0  0
   -3.2608   -0.1294   -4.0015 N   0  3  0  0  0  0  0  0  0  0  0  0
   -4.5603   -3.7811   -0.9961 O   0  0  0  0  0  0  0  0  0  0  0  0
   -7.1192   -3.8706   -2.3967 O   0  0  0  0  0  0  0  0  0  0  0  0
  1  2  1  0  0  0  0
  3  2  1  1  0  0  0
  3  4  1  0  0  0  0
  3  5  1  0  0  0  0
  4  8  1  0  0  0  0
  5  6  1  0  0  0  0
  5 12  1  6  0  0  0
  6  7  1  6  0  0  0
  6  8  1  0  0  0  0
  8 41  1  1  0  0  0
  9 10  1  0  0  0  0
  9 17  1  0  0  0  0
  9 19  1  1  0  0  0
 10 11  1  0  0  0  0
 11 12  1  6  0  0  0
 11 13  1  0  0  0  0
 13 14  1  6  0  0  0
 13 15  1  0  0  0  0
 15 16  1  1  0  0  0
 15 17  1  0  0  0  0
 17 18  1  6  0  0  0
 19 20  1  0  0  0  0
 21 22  1  0  0  0  0
 21 29  1  0  0  0  0
 21 31  1  1  0  0  0
 22 23  1  0  0  0  0
 23 24  1  6  0  0  0
 23 25  1  0  0  0  0
 25 26  1  6  0  0  0
 25 27  1  0  0  0  0
 27 28  1  1  0  0  0
 27 29  1  0  0  0  0
 29 30  1  6  0  0  0
 31 32  1  0  0  0  0
 33 34  1  0  0  0  0
 33 38  1  0  0  0  0
 33 39  1  6  0  0  0
 34 35  1  0  0  0  0
 35 36  1  0  0  0  0
 35 40  1  6  0  0  0
 36 24  1  1  0  0  0
 36 37  1  0  0  0  0
 37 38  1  0  0  0  0
 37 41  1  6  0  0  0
 38 42  1  1  0  0  0
M  CHG  6  14   1  20   1  26   1  32   1  39   1  40   1
M  END
>  <CHROM.1>
-96.51345391,-31.66496214,-157.29598381,-178.66233011,-88.43894336,-31.57531052
70.57363049,81.99729836,-58.18678463,48.69131642,50.95027730,-52.65279191
82.91011315,103.31831402,-51.44180178,-63.90866567,35.18937343,29.92734085
-58.72763234,-78.84755343,-64.74133406,177.66975913,-3.84774100,-4.38535692
0.30607297,1.12569653,1.17053327,2.96348556

>  <Name>


>  <RI>
0

>  <Rbt.Current_Directory>
/home/itssahil/PROJECTS/Mol_Feturizer/New_Systems/rnas/1qd3

>  <Rbt.Executable>
rbdock ($Id: //depot/dev/client3/rdock/2013.1/src/exe/rbdock.cxx#4 $)

>  <Rbt.Library>
libRbt.so (2013.1, Build901 2013/11/27)

>  <Rbt.Parameter_File>
/export/apps/rDock/src/rDock_2013.1_src/data/scripts/dock_solv.prm

>  <Rbt.Receptor>
prm/blind_docking_20.prm

>  <SCORE>
-57.1859

>  <SCORE.INTER>
-47.1318

>  <SCORE.INTER.CONST>
1

>  <SCORE.INTER.POLAR>
-5.55197

>  <SCORE.INTER.ROT>
9

>  <SCORE.INTER.SOLV>
36.4533

>  <SCORE.INTER.VDW>
-34.6657

>  <SCORE.INTER.norm>
-1.12218

>  <SCORE.INTRA>
-10.1064

>  <SCORE.INTRA.DIHEDRAL>
-7.10819

>  <SCORE.INTRA.DIHEDRAL.0>
40.6252

>  <SCORE.INTRA.POLAR>
0.915653

>  <SCORE.INTRA.POLAR.0>
-1.20161

>  <SCORE.INTRA.REPUL>
-0.115675

>  <SCORE.INTRA.REPUL.0>
0.115675

>  <SCORE.INTRA.SOLV>
-9.18325

>  <SCORE.INTRA.SOLV.lig_0>
-154.895

>  <SCORE.INTRA.VDW>
-4.49554

>  <SCORE.INTRA.VDW.0>
2.2925

>  <SCORE.INTRA.norm>
-0.240629

>  <SCORE.RESTR>
0.0522765

>  <SCORE.RESTR.CAVITY>
0.0522765

>  <SCORE.RESTR.norm>
0.00124468

>  <SCORE.SYSTEM>
0

>  <SCORE.SYSTEM.CONST>
0

>  <SCORE.SYSTEM.DIHEDRAL>
0

>  <SCORE.SYSTEM.SOLV>
0

>  <SCORE.SYSTEM.norm>
0

>  <SCORE.heavy>
42

>  <SCORE.norm>
-1.36157

>  <RMSD>
13.596

$$$$

 OpenBabel11021811413D
libRbt.so/2013.1/901 2013/11/27
 42 45  0  0  0  0  0  0  0  0999 V2000
   -5.5757   -8.6013   -1.7112 O   0  0  0  0  0  0  0  0  0  0  0  0
   -4.3210   -9.1573   -1.3448 C   0  0  0  0  0  0  0  0  0  0  0  0
   -3.3354   -8.0363   -1.0122 C   0  0  1  0  0  0  0  0  0  0  0  0
   -3.8219   -6.7562   -1.4708 O   0  0  0  0  0  0  0  0  0  0  0  0
   -3.0869   -7.8739    0.4782 C   0  0  2  0  0  0  0  0  0  0  0  0
   -2.5290   -6.4610    0.5137 C   0  0  1  0  0  0  0  0  0  0  0  0
   -1.1730   -6.4683    0.0811 O   0  0  0  0  0  0  0  0  0  0  0  0
   -3.4072   -5.7365   -0.5269 C   0  0  2  0  0  0  0  0  0  0  0  0
   -2.5225   -8.0573    4.5146 C   0  0  2  0  0  0  0  0  0  0  0  0
   -2.8923   -8.3751    3.1641 O   0  0  0  0  0  0  0  0  0  0  0  0
   -1.7411   -8.5904    2.3280 C   0  0  2  0  0  0  0  0  0  0  0  0
   -2.1458   -8.8496    0.9676 O   0  0  0  0  0  0  0  0  0  0  0  0
   -0.8913   -9.7554    2.8636 C   0  0  2  0  0  0  0  0  0  0  0  0
   -1.5070  -11.0306    2.5456 N   0  3  0  0  0  0  0  0  0  0  0  0
   -0.6139   -9.6533    4.3681 C   0  0  1  0  0  0  0  0  0  0  0  0
    0.4088   -8.6964    4.5945 O   0  0  0  0  0  0  0  0  0  0  0  0
   -1.8596   -9.2670    5.1609 C   0  0  2  0  0  0  0  0  0  0  0  0
   -2.7687  -10.3609    5.2003 O   0  0  0  0  0  0  0  0  0  0  0  0
   -3.7429   -7.6136    5.3162 C   0  0  0  0  0  0  0  0  0  0  0  0
   -4.9586   -8.1283    4.7146 N   0  3  0  0  0  0  0  0  0  0  0  0
   -4.2423    0.1551    1.5541 C   0  0  1  0  0  0  0  0  0  0  0  0
   -4.4116    0.2084    0.1221 O   0  0  0  0  0  0  0  0  0  0  0  0
   -3.9816   -0.9973   -0.5507 C   0  0  2  0  0  0  0  0  0  0  0  0
   -4.8045   -2.1377   -0.2011 O   0  0  0  0  0  0  0  0  0  0  0  0
   -2.5007   -1.2762   -0.2663 C   0  0  2  0  0  0  0  0  0  0  0  0
   -2.1385   -2.5888   -0.7679 N   0  3  0  0  0  0  0  0  0  0  0  0
   -2.1887   -1.2058    1.2244 C   0  0  1  0  0  0  0  0  0  0  0  0
   -0.7833   -1.2336    1.4204 O   0  0  0  0  0  0  0  0  0  0  0  0
   -2.7681    0.0268    1.9014 C   0  0  2  0  0  0  0  0  0  0  0  0
   -2.6062   -0.0614    3.3094 O   0  0  0  0  0  0  0  0  0  0  0  0
   -4.7572    1.4436    2.1892 C   0  0  0  0  0  0  0  0  0  0  0  0
   -3.9438    2.5761    1.7863 N   0  3  0  0  0  0  0  0  0  0  0  0
   -6.8408   -4.7455   -2.8754 C   0  0  2  0  0  0  0  0  0  0  0  0
   -6.0705   -3.5807   -3.4653 C   0  0  0  0  0  0  0  0  0  0  0  0
   -5.7589   -2.5524   -2.3938 C   0  0  1  0  0  0  0  0  0  0  0  0
   -4.8909   -3.1177   -1.2686 C   0  0  2  0  0  0  0  0  0  0  0  0
   -5.4817   -4.4389   -0.7245 C   0  0  1  0  0  0  0  0  0  0  0  0
   -6.0394   -5.4161   -1.7678 C   0  0  1  0  0  0  0  0  0  0  0  0
   -7.1307   -5.7097   -3.9196 N   0  3  0  0  0  0  0  0  0  0  0  0
   -5.1133   -1.4100   -3.0105 N   0  3  0  0  0  0  0  0  0  0  0  0
   -4.5448   -5.1223    0.1439 O   0  0  0  0  0  0  0  0  0  0  0  0
   -6.8405   -6.4020   -1.1250 O   0  0  0  0  0  0  0  0  0  0  0  0
  1  2  1  0  0  0  0
  3  2  1  1  0  0  0
  3  4  1  0  0  0  0
  3  5  1  0  0  0  0
  4  8  1  0  0  0  0
  5  6  1  0  0  0  0
  5 12  1  6  0  0  0
  6  7  1  6  0  0  0
  6  8  1  0  0  0  0
  8 41  1  1  0  0  0
  9 10  1  0  0  0  0
  9 17  1  0  0  0  0
  9 19  1  1  0  0  0
 10 11  1  0  0  0  0
 11 12  1  6  0  0  0
 11 13  1  0  0  0  0
 13 14  1  1  0  0  0
 13 15  1  0  0  0  0
 15 16  1  6  0  0  0
 15 17  1  0  0  0  0
 17 18  1  6  0  0  0
 19 20  1  0  0  0  0
 21 22  1  0  0  0  0
 21 29  1  0  0  0  0
 21 31  1  1  0  0  0
 22 23  1  0  0  0  0
 23 24  1  1  0  0  0
 23 25  1  0  0  0  0
 25 26  1  1  0  0  0
 25 27  1  0  0  0  0
 27 28  1  6  0  0  0
 27 29  1  0  0  0  0
 29 30  1  1  0  0  0
 31 32  1  0  0  0  0
 33 34  1  0  0  0  0
 33 38  1  0  0  0  0
 33 39  1  6  0  0  0
 34 35  1  0  0  0  0
 35 36  1  0  0  0  0
 35 40  1  6  0  0  0
 36 24  1  1  0  0  0
 36 37  1  0  0  0  0
 37 38  1  0  0  0  0
 37 41  1  6  0  0  0
 38 42  1  1  0  0  0
M  CHG  6  14   1  20   1  26   1  32   1  39   1  40   1
M  END
>  <CHROM.1>
79.10719702,-14.28115075,171.21476390,-25.47042069,-61.27409043,22.96479081
49.68785189,49.90243279,-175.89640976,-61.74688583,165.85764638,-65.83023630
150.24795560,-71.80317419,-178.61408094,-42.36513920,65.13834734,50.59949251
-169.85360953,50.65400983,-72.18270134,85.75996612,-3.57797194,-5.13620968
0.76888253,1.12822570,1.02240739,-3.13644910

>  <Name>


>  <RI>
0

>  <Rbt.Current_Directory>
/home/itssahil/PROJECTS/Mol_Feturizer/New_Systems/rnas/1qd3

>  <Rbt.Executable>
rbdock ($Id: //depot/dev/client3/rdock/2013.1/src/exe/rbdock.cxx#4 $)

>  <Rbt.Library>
libRbt.so (2013.1, Build901 2013/11/27)

>  <Rbt.Parameter_File>
/export/apps/rDock/src/rDock_2013.1_src/data/scripts/dock_solv.prm

>  <Rbt.Receptor>
prm/blind_docking_100.prm

>  <SCORE>
-78.4826

>  <SCORE.INTER>
-69.6748

>  <SCORE.INTER.CONST>
1

>  <SCORE.INTER.POLAR>
-10.39

>  <SCORE.INTER.ROT>
9

>  <SCORE.INTER.SOLV>
32.2872

>  <SCORE.INTER.VDW>
-32.1789

>  <SCORE.INTER.norm>
-1.65892

>  <SCORE.INTRA>
-10.6367

>  <SCORE.INTRA.DIHEDRAL>
-12.0925

>  <SCORE.INTRA.DIHEDRAL.0>
40.6252

>  <SCORE.INTRA.POLAR>
0.385078

>  <SCORE.INTRA.POLAR.0>
-1.20161

>  <SCORE.INTRA.REPUL>
-0.0899826

>  <SCORE.INTRA.REPUL.0>
0.115675

>  <SCORE.INTRA.SOLV>
-2.26577

>  <SCORE.INTRA.SOLV.lig_0>
-154.895

>  <SCORE.INTRA.VDW>
-4.31685

>  <SCORE.INTRA.VDW.0>
2.2925

>  <SCORE.INTRA.norm>
-0.253254

>  <SCORE.RESTR>
1.82884

>  <SCORE.RESTR.CAVITY>
1.82884

>  <SCORE.RESTR.norm>
0.0435437

>  <SCORE.SYSTEM>
0

>  <SCORE.SYSTEM.CONST>
0

>  <SCORE.SYSTEM.DIHEDRAL>
0

>  <SCORE.SYSTEM.SOLV>
0

>  <SCORE.SYSTEM.norm>
0

>  <SCORE.heavy>
42

>  <SCORE.norm>
-1.86863

>  <RMSD>
13.603

$$$$

 OpenBabel11021811413D
libRbt.so/2013.1/901 2013/11/27
 42 45  0  0  0  0  0  0  0  0999 V2000
   -3.0478   -9.3571   -0.1659 O   0  0  0  0  0  0  0  0  0  0  0  0
   -4.0437   -8.3611   -0.3501 C   0  0  0  0  0  0  0  0  0  0  0  0
   -3.3887   -7.0473   -0.7786 C   0  0  1  0  0  0  0  0  0  0  0  0
   -4.1656   -6.3813   -1.7977 O   0  0  0  0  0  0  0  0  0  0  0  0
   -3.2487   -6.0450    0.3551 C   0  0  2  0  0  0  0  0  0  0  0  0
   -3.0695   -4.7584   -0.4332 C   0  0  1  0  0  0  0  0  0  0  0  0
   -1.7401   -4.6836   -0.9360 O   0  0  0  0  0  0  0  0  0  0  0  0
   -4.0609   -4.9486   -1.5993 C   0  0  2  0  0  0  0  0  0  0  0  0
   -2.2977   -9.2779    3.3566 C   0  0  2  0  0  0  0  0  0  0  0  0
   -1.9146   -8.4523    2.2461 O   0  0  0  0  0  0  0  0  0  0  0  0
   -2.4663   -7.1270    2.3459 C   0  0  2  0  0  0  0  0  0  0  0  0
   -2.1109   -6.3431    1.1880 O   0  0  0  0  0  0  0  0  0  0  0  0
   -1.9819   -6.4326    3.6303 C   0  0  2  0  0  0  0  0  0  0  0  0
   -0.6113   -5.9781    3.4843 N   0  3  0  0  0  0  0  0  0  0  0  0
   -2.1263   -7.3115    4.8782 C   0  0  1  0  0  0  0  0  0  0  0  0
   -3.4822   -7.3173    5.2959 O   0  0  0  0  0  0  0  0  0  0  0  0
   -1.6609   -8.7444    4.6335 C   0  0  2  0  0  0  0  0  0  0  0  0
   -0.2426   -8.7827    4.5265 O   0  0  0  0  0  0  0  0  0  0  0  0
   -1.8931  -10.7289    3.1128 C   0  0  0  0  0  0  0  0  0  0  0  0
   -2.8831  -11.6314    3.6699 N   0  3  0  0  0  0  0  0  0  0  0  0
   -4.0850   -2.6221    1.5271 C   0  0  1  0  0  0  0  0  0  0  0  0
   -5.1371   -2.1616    0.6535 O   0  0  0  0  0  0  0  0  0  0  0  0
   -4.6860   -1.2024   -0.3303 C   0  0  2  0  0  0  0  0  0  0  0  0
   -3.7571   -1.7890   -1.2752 O   0  0  0  0  0  0  0  0  0  0  0  0
   -4.0761    0.0272    0.3537 C   0  0  2  0  0  0  0  0  0  0  0  0
   -3.4409    0.8795   -0.6341 N   0  3  0  0  0  0  0  0  0  0  0  0
   -3.0501   -0.3651    1.4110 C   0  0  1  0  0  0  0  0  0  0  0  0
   -2.6901    0.7759    2.1743 O   0  0  0  0  0  0  0  0  0  0  0  0
   -3.5392   -1.4623    2.3439 C   0  0  2  0  0  0  0  0  0  0  0  0
   -2.4800   -1.9103    3.1770 O   0  0  0  0  0  0  0  0  0  0  0  0
   -4.6332   -3.6588    2.5035 C   0  0  0  0  0  0  0  0  0  0  0  0
   -6.0515   -3.8738    2.2824 N   0  3  0  0  0  0  0  0  0  0  0  0
   -6.9645   -2.3059   -4.0219 C   0  0  2  0  0  0  0  0  0  0  0  0
   -5.6513   -1.7669   -4.5541 C   0  0  0  0  0  0  0  0  0  0  0  0
   -4.7790   -1.2724   -3.4151 C   0  0  1  0  0  0  0  0  0  0  0  0
   -4.4203   -2.3800   -2.4234 C   0  0  2  0  0  0  0  0  0  0  0  0
   -5.6844   -3.1441   -1.9661 C   0  0  1  0  0  0  0  0  0  0  0  0
   -6.7223   -3.4550   -3.0527 C   0  0  1  0  0  0  0  0  0  0  0  0
   -7.7807   -2.7660   -5.1292 N   0  3  0  0  0  0  0  0  0  0  0  0
   -3.5791   -0.6735   -3.9662 N   0  3  0  0  0  0  0  0  0  0  0  0
   -5.3428   -4.3540   -1.2462 O   0  0  0  0  0  0  0  0  0  0  0  0
   -7.9523   -3.8404   -2.4480 O   0  0  0  0  0  0  0  0  0  0  0  0
  1  2  1  0  0  0  0
  3  2  1  1  0  0  0
  3  4  1  0  0  0  0
  3  5  1  0  0  0  0
  4  8  1  0  0  0  0
  5  6  1  0  0  0  0
  5 12  1  6  0  0  0
  6  7  1  6  0  0  0
  6  8  1  0  0  0  0
  8 41  1  1  0  0  0
  9 10  1  0  0  0  0
  9 17  1  0  0  0  0
  9 19  1  6  0  0  0
 10 11  1  0  0  0  0
 11 12  1  6  0  0  0
 11 13  1  0  0  0  0
 13 14  1  6  0  0  0
 13 15  1  0  0  0  0
 15 16  1  6  0  0  0
 15 17  1  0  0  0  0
 17 18  1  6  0  0  0
 19 20  1  0  0  0  0
 21 22  1  0  0  0  0
 21 29  1  0  0  0  0
 21 31  1  1  0  0  0
 22 23  1  0  0  0  0
 23 24  1  6  0  0  0
 23 25  1  0  0  0  0
 25 26  1  6  0  0  0
 25 27  1  0  0  0  0
 27 28  1  1  0  0  0
 27 29  1  0  0  0  0
 29 30  1  6  0  0  0
 31 32  1  0  0  0  0
 33 34  1  0  0  0  0
 33 38  1  0  0  0  0
 33 39  1  6  0  0  0
 34 35  1  0  0  0  0
 35 36  1  0  0  0  0
 35 40  1  6  0  0  0
 36 24  1  1  0  0  0
 36 37  1  0  0  0  0
 37 38  1  0  0  0  0
 37 41  1  6  0  0  0
 38 42  1  1  0  0  0
M  CHG  6  14   1  20   1  26   1  32   1  39   1  40   1
M  END
>  <CHROM.1>
59.78076702,139.73854141,-95.15936429,65.37943527,-133.80151954,-144.47206361
111.64456414,58.12054637,-58.21215104,-176.41460932,158.05373881,-0.52436565
88.67023449,80.30373720,176.64225214,-171.00968831,177.71929239,87.66658485
66.06801712,165.42473228,-27.39697170,-179.60416249,-3.71794231,-4.61010298
0.46387239,0.79890301,1.08388055,-3.10517354

>  <Name>


>  <RI>
0

>  <Rbt.Current_Directory>
/home/itssahil/PROJECTS/Mol_Feturizer/New_Systems/rnas/1qd3

>  <Rbt.Executable>
rbdock ($Id: //depot/dev/client3/rdock/2013.1/src/exe/rbdock.cxx#4 $)

>  <Rbt.Library>
libRbt.so (2013.1, Build901 2013/11/27)

>  <Rbt.Parameter_File>
/export/apps/rDock/src/rDock_2013.1_src/data/scripts/dock_solv.prm

>  <Rbt.Receptor>
prm/blind_docking_80.prm

>  <SCORE>
-47.3289

>  <SCORE.INTER>
-40.3756

>  <SCORE.INTER.CONST>
1

>  <SCORE.INTER.POLAR>
-5.48218

>  <SCORE.INTER.ROT>
9

>  <SCORE.INTER.SOLV>
31.4432

>  <SCORE.INTER.VDW>
-28.7242

>  <SCORE.INTER.norm>
-0.961324

>  <SCORE.INTRA>
-10.8637

>  <SCORE.INTRA.DIHEDRAL>
3.94282

>  <SCORE.INTRA.DIHEDRAL.0>
40.6252

>  <SCORE.INTRA.POLAR>
0.194778

>  <SCORE.INTRA.POLAR.0>
-1.20161

>  <SCORE.INTRA.REPUL>
-0.115675

>  <SCORE.INTRA.REPUL.0>
0.115675

>  <SCORE.INTRA.SOLV>
-10.4365

>  <SCORE.INTRA.SOLV.lig_0>
-154.895

>  <SCORE.INTRA.VDW>
-7.70079

>  <SCORE.INTRA.VDW.0>
2.2925

>  <SCORE.INTRA.norm>
-0.25866

>  <SCORE.RESTR>
3.91044

>  <SCORE.RESTR.CAVITY>
3.91044

>  <SCORE.RESTR.norm>
0.0931057

>  <SCORE.SYSTEM>
0

>  <SCORE.SYSTEM.CONST>
0

>  <SCORE.SYSTEM.DIHEDRAL>
0

>  <SCORE.SYSTEM.SOLV>
0

>  <SCORE.SYSTEM.norm>
0

>  <SCORE.heavy>
42

>  <SCORE.norm>
-1.12688

>  <RMSD>
13.604

$$$$

 OpenBabel11021811413D
libRbt.so/2013.1/901 2013/11/27
 42 45  0  0  0  0  0  0  0  0999 V2000
   -2.8762   -4.9333    3.3585 O   0  0  0  0  0  0  0  0  0  0  0  0
   -3.6410   -6.1069    3.5940 C   0  0  0  0  0  0  0  0  0  0  0  0
   -4.6046   -6.3391    2.4296 C   0  0  1  0  0  0  0  0  0  0  0  0
   -5.3158   -5.1296    2.0874 O   0  0  0  0  0  0  0  0  0  0  0  0
   -3.9118   -6.7862    1.1530 C   0  0  2  0  0  0  0  0  0  0  0  0
   -4.9783   -6.4463    0.1254 C   0  0  1  0  0  0  0  0  0  0  0  0
   -6.0055   -7.4311    0.1547 O   0  0  0  0  0  0  0  0  0  0  0  0
   -5.5243   -5.1037    0.6526 C   0  0  2  0  0  0  0  0  0  0  0  0
   -2.5939   -9.2792    4.5217 C   0  0  2  0  0  0  0  0  0  0  0  0
   -3.4528   -8.9811    3.4103 O   0  0  0  0  0  0  0  0  0  0  0  0
   -2.7096   -8.5400    2.2598 C   0  0  2  0  0  0  0  0  0  0  0  0
   -3.6045   -8.1939    1.1823 O   0  0  0  0  0  0  0  0  0  0  0  0
   -1.7195   -9.6256    1.8040 C   0  0  2  0  0  0  0  0  0  0  0  0
   -2.4103  -10.6882    1.0968 N   0  3  0  0  0  0  0  0  0  0  0  0
   -0.8872  -10.2001    2.9564 C   0  0  1  0  0  0  0  0  0  0  0  0
    0.1444   -9.2862    3.2933 O   0  0  0  0  0  0  0  0  0  0  0  0
   -1.7342  -10.4927    4.1918 C   0  0  2  0  0  0  0  0  0  0  0  0
   -2.5590  -11.6281    3.9573 O   0  0  0  0  0  0  0  0  0  0  0  0
   -3.4143   -9.5218    5.7854 C   0  0  0  0  0  0  0  0  0  0  0  0
   -4.7408   -8.9510    5.6457 N   0  3  0  0  0  0  0  0  0  0  0  0
   -3.6210    0.9688    0.7378 C   0  0  1  0  0  0  0  0  0  0  0  0
   -3.3369    0.8688   -0.6734 O   0  0  0  0  0  0  0  0  0  0  0  0
   -3.2301   -0.4955   -1.1409 C   0  0  2  0  0  0  0  0  0  0  0  0
   -4.4911   -1.2029   -1.0456 O   0  0  0  0  0  0  0  0  0  0  0  0
   -2.1205   -1.2395   -0.3879 C   0  0  2  0  0  0  0  0  0  0  0  0
   -2.1635   -2.6532   -0.7125 N   0  3  0  0  0  0  0  0  0  0  0  0
   -2.2488   -1.0679    1.1216 C   0  0  1  0  0  0  0  0  0  0  0  0
   -1.0834   -1.5662    1.7601 O   0  0  0  0  0  0  0  0  0  0  0  0
   -2.4775    0.3752    1.5442 C   0  0  2  0  0  0  0  0  0  0  0  0
   -2.7746    0.4421    2.9312 O   0  0  0  0  0  0  0  0  0  0  0  0
   -3.7596    2.4343    1.1402 C   0  0  0  0  0  0  0  0  0  0  0  0
   -4.6080    3.1468    0.2025 N   0  3  0  0  0  0  0  0  0  0  0  0
   -6.3502   -4.1701   -3.4620 C   0  0  2  0  0  0  0  0  0  0  0  0
   -5.2944   -3.2901   -4.1015 C   0  0  0  0  0  0  0  0  0  0  0  0
   -5.0390   -2.0611   -3.2487 C   0  0  1  0  0  0  0  0  0  0  0  0
   -4.5219   -2.4095   -1.8523 C   0  0  2  0  0  0  0  0  0  0  0  0
   -5.4212   -3.4713   -1.1780 C   0  0  1  0  0  0  0  0  0  0  0  0
   -5.9112   -4.6166   -2.0739 C   0  0  1  0  0  0  0  0  0  0  0  0
   -6.5795   -5.3329   -4.2982 N   0  3  0  0  0  0  0  0  0  0  0  0
   -4.1019   -1.1957   -3.9380 N   0  3  0  0  0  0  0  0  0  0  0  0
   -4.8053   -4.0069    0.0189 O   0  0  0  0  0  0  0  0  0  0  0  0
   -6.9778   -5.3078   -1.4323 O   0  0  0  0  0  0  0  0  0  0  0  0
  1  2  1  0  0  0  0
  3  2  1  1  0  0  0
  3  4  1  0  0  0  0
  3  5  1  0  0  0  0
  4  8  1  0  0  0  0
  5  6  1  0  0  0  0
  5 12  1  1  0  0  0
  6  7  1  1  0  0  0
  6  8  1  0  0  0  0
  8 41  1  6  0  0  0
  9 10  1  0  0  0  0
  9 17  1  0  0  0  0
  9 19  1  1  0  0  0
 10 11  1  0  0  0  0
 11 12  1  6  0  0  0
 11 13  1  0  0  0  0
 13 14  1  1  0  0  0
 13 15  1  0  0  0  0
 15 16  1  1  0  0  0
 15 17  1  0  0  0  0
 17 18  1  6  0  0  0
 19 20  1  0  0  0  0
 21 22  1  0  0  0  0
 21 29  1  0  0  0  0
 21 31  1  1  0  0  0
 22 23  1  0  0  0  0
 23 24  1  1  0  0  0
 23 25  1  0  0  0  0
 25 26  1  1  0  0  0
 25 27  1  0  0  0  0
 27 28  1  1  0  0  0
 27 29  1  0  0  0  0
 29 30  1  1  0  0  0
 31 32  1  0  0  0  0
 33 34  1  0  0  0  0
 33 38  1  0  0  0  0
 33 39  1  6  0  0  0
 34 35  1  0  0  0  0
 35 36  1  0  0  0  0
 35 40  1  6  0  0  0
 36 24  1  1  0  0  0
 36 37  1  0  0  0  0
 37 38  1  0  0  0  0
 37 41  1  1  0  0  0
 38 42  1  1  0  0  0
M  CHG  6  14   1  20   1  26   1  32   1  39   1  40   1
M  END
>  <CHROM.1>
-62.91904555,-47.76734729,-61.18282731,154.74748542,-149.91551463,-19.58877620
94.75660265,-176.48492347,-56.16775867,-62.88775850,70.09195656,46.58665651
162.91250134,-89.79887733,173.43405597,-177.21216942,173.84608080,157.20413734
-172.20569583,55.22758696,-174.51261234,59.08300070,-3.75319826,-4.76486399
0.81037448,-1.31895894,-1.04665431,-0.21519970

>  <Name>


>  <RI>
0

>  <Rbt.Current_Directory>
/home/itssahil/PROJECTS/Mol_Feturizer/New_Systems/rnas/1qd3

>  <Rbt.Executable>
rbdock ($Id: //depot/dev/client3/rdock/2013.1/src/exe/rbdock.cxx#4 $)

>  <Rbt.Library>
libRbt.so (2013.1, Build901 2013/11/27)

>  <Rbt.Parameter_File>
/export/apps/rDock/src/rDock_2013.1_src/data/scripts/dock_solv.prm

>  <Rbt.Receptor>
prm/blind_docking_100.prm

>  <SCORE>
-75.8024

>  <SCORE.INTER>
-62.2466

>  <SCORE.INTER.CONST>
1

>  <SCORE.INTER.POLAR>
-8.52238

>  <SCORE.INTER.ROT>
9

>  <SCORE.INTER.SOLV>
33.6823

>  <SCORE.INTER.VDW>
-33.9172

>  <SCORE.INTER.norm>
-1.48206

>  <SCORE.INTRA>
-14.3237

>  <SCORE.INTRA.DIHEDRAL>
-14.2363

>  <SCORE.INTRA.DIHEDRAL.0>
40.6252

>  <SCORE.INTRA.POLAR>
-0.425169

>  <SCORE.INTRA.POLAR.0>
-1.20161

>  <SCORE.INTRA.REPUL>
-0.115675

>  <SCORE.INTRA.REPUL.0>
0.115675

>  <SCORE.INTRA.SOLV>
-6.16584

>  <SCORE.INTRA.SOLV.lig_0>
-154.895

>  <SCORE.INTRA.VDW>
-2.09862

>  <SCORE.INTRA.VDW.0>
2.2925

>  <SCORE.INTRA.norm>
-0.34104

>  <SCORE.RESTR>
0.767881

>  <SCORE.RESTR.CAVITY>
0.767881

>  <SCORE.RESTR.norm>
0.0182829

>  <SCORE.SYSTEM>
0

>  <SCORE.SYSTEM.CONST>
0

>  <SCORE.SYSTEM.DIHEDRAL>
0

>  <SCORE.SYSTEM.SOLV>
0

>  <SCORE.SYSTEM.norm>
0

>  <SCORE.heavy>
42

>  <SCORE.norm>
-1.80482

>  <RMSD>
13.610

$$$$

 OpenBabel11021811413D
libRbt.so/2013.1/901 2013/11/27
 42 45  0  0  0  0  0  0  0  0999 V2000
   -3.3010   -4.2613   -2.3292 O   0  0  0  0  0  0  0  0  0  0  0  0
   -2.4403   -5.2090   -1.7137 C   0  0  0  0  0  0  0  0  0  0  0  0
   -3.2671   -6.2157   -0.9128 C   0  0  1  0  0  0  0  0  0  0  0  0
   -2.6663   -6.4839    0.3728 O   0  0  0  0  0  0  0  0  0  0  0  0
   -4.6790   -5.7374   -0.6172 C   0  0  2  0  0  0  0  0  0  0  0  0
   -5.0414   -6.6457    0.5458 C   0  0  1  0  0  0  0  0  0  0  0  0
   -5.3642   -7.9439    0.0597 O   0  0  0  0  0  0  0  0  0  0  0  0
   -3.7223   -6.6977    1.3434 C   0  0  2  0  0  0  0  0  0  0  0  0
   -7.2080   -2.6781   -2.0280 C   0  0  2  0  0  0  0  0  0  0  0  0
   -6.1550   -3.6537   -2.0600 O   0  0  0  0  0  0  0  0  0  0  0  0
   -6.6393   -4.9770   -1.7684 C   0  0  2  0  0  0  0  0  0  0  0  0
   -5.5490   -5.9218   -1.7513 O   0  0  0  0  0  0  0  0  0  0  0  0
   -7.7010   -5.4052   -2.7960 C   0  0  2  0  0  0  0  0  0  0  0  0
   -7.0793   -5.7822   -4.0521 N   0  3  0  0  0  0  0  0  0  0  0  0
   -8.7761   -4.3370   -3.0281 C   0  0  1  0  0  0  0  0  0  0  0  0
   -9.6969   -4.3534   -1.9488 O   0  0  0  0  0  0  0  0  0  0  0  0
   -8.1809   -2.9389   -3.1708 C   0  0  2  0  0  0  0  0  0  0  0  0
   -7.5112   -2.8215   -4.4207 O   0  0  0  0  0  0  0  0  0  0  0  0
   -6.6356   -1.2660   -2.1133 C   0  0  0  0  0  0  0  0  0  0  0  0
   -7.6952   -0.3033   -2.3486 N   0  3  0  0  0  0  0  0  0  0  0  0
   -4.0975   -0.8407    1.8182 C   0  0  1  0  0  0  0  0  0  0  0  0
   -4.5083   -2.2204    1.9168 O   0  0  0  0  0  0  0  0  0  0  0  0
   -3.3985   -3.1455    1.9786 C   0  0  2  0  0  0  0  0  0  0  0  0
   -2.6231   -2.9837    3.1920 O   0  0  0  0  0  0  0  0  0  0  0  0
   -2.5124   -3.0104    0.7342 C   0  0  2  0  0  0  0  0  0  0  0  0
   -1.2976   -3.7855    0.9046 N   0  3  0  0  0  0  0  0  0  0  0  0
   -2.1448   -1.5569    0.4573 C   0  0  1  0  0  0  0  0  0  0  0  0
   -1.5319   -1.4536   -0.8186 O   0  0  0  0  0  0  0  0  0  0  0  0
   -3.3361   -0.6137    0.5224 C   0  0  2  0  0  0  0  0  0  0  0  0
   -2.9019    0.7361    0.4437 O   0  0  0  0  0  0  0  0  0  0  0  0
   -5.3226    0.0691    1.8010 C   0  0  0  0  0  0  0  0  0  0  0  0
   -4.9331    1.4588    1.9550 N   0  3  0  0  0  0  0  0  0  0  0  0
   -0.7514   -6.5476    4.5686 C   0  0  2  0  0  0  0  0  0  0  0  0
   -1.0181   -5.4481    5.5776 C   0  0  0  0  0  0  0  0  0  0  0  0
   -1.3020   -4.1356    4.8708 C   0  0  1  0  0  0  0  0  0  0  0  0
   -2.5375   -4.2050    3.9721 C   0  0  2  0  0  0  0  0  0  0  0  0
   -2.4681   -5.4287    3.0295 C   0  0  1  0  0  0  0  0  0  0  0  0
   -1.9481   -6.7342    3.6457 C   0  0  1  0  0  0  0  0  0  0  0  0
   -0.4776   -7.7881    5.2687 N   0  3  0  0  0  0  0  0  0  0  0  0
   -1.4517   -3.0889    5.8630 N   0  3  0  0  0  0  0  0  0  0  0  0
   -3.7357   -5.6629    2.3683 O   0  0  0  0  0  0  0  0  0  0  0  0
   -1.6186   -7.6570    2.6128 O   0  0  0  0  0  0  0  0  0  0  0  0
  1  2  1  0  0  0  0
  3  2  1  1  0  0  0
  3  4  1  0  0  0  0
  3  5  1  0  0  0  0
  4  8  1  0  0  0  0
  5  6  1  0  0  0  0
  5 12  1  6  0  0  0
  6  7  1  6  0  0  0
  6  8  1  0  0  0  0
  8 41  1  1  0  0  0
  9 10  1  0  0  0  0
  9 17  1  0  0  0  0
  9 19  1  6  0  0  0
 10 11  1  0  0  0  0
 11 12  1  6  0  0  0
 11 13  1  0  0  0  0
 13 14  1  6  0  0  0
 13 15  1  0  0  0  0
 15 16  1  1  0  0  0
 15 17  1  0  0  0  0
 17 18  1  6  0  0  0
 19 20  1  0  0  0  0
 21 22  1  0  0  0  0
 21 29  1  0  0  0  0
 21 31  1  6  0  0  0
 22 23  1  0  0  0  0
 23 24  1  1  0  0  0
 23 25  1  0  0  0  0
 25 26  1  1  0  0  0
 25 27  1  0  0  0  0
 27 28  1  6  0  0  0
 27 29  1  0  0  0  0
 29 30  1  1  0  0  0
 31 32  1  0  0  0  0
 33 34  1  0  0  0  0
 33 38  1  0  0  0  0
 33 39  1  1  0  0  0
 34 35  1  0  0  0  0
 35 36  1  0  0  0  0
 35 40  1  1  0  0  0
 36 24  1  6  0  0  0
 36 37  1  0  0  0  0
 37 38  1  0  0  0  0
 37 41  1  1  0  0  0
 38 42  1  6  0  0  0
M  CHG  6  14   1  20   1  26   1  32   1  39   1  40   1
M  END
>  <CHROM.1>
-76.49183031,-136.76479285,-152.94530772,61.74389384,-52.09845160,168.65314436
70.06804928,-39.97581077,52.23200240,56.43392611,-73.67012132,169.30707340
122.64361372,157.16053535,87.02255857,58.32517797,-173.80369505,177.06560542
-56.67349763,-55.00037643,173.08248992,-54.40920257,-4.16941346,-3.96898749
0.48979944,2.99545779,-0.86903746,0.09138082

>  <Name>


>  <RI>
0

>  <Rbt.Current_Directory>
/home/itssahil/PROJECTS/Mol_Feturizer/New_Systems/rnas/1qd3

>  <Rbt.Executable>
rbdock ($Id: //depot/dev/client3/rdock/2013.1/src/exe/rbdock.cxx#4 $)

>  <Rbt.Library>
libRbt.so (2013.1, Build901 2013/11/27)

>  <Rbt.Parameter_File>
/export/apps/rDock/src/rDock_2013.1_src/data/scripts/dock_solv.prm

>  <Rbt.Receptor>
prm/blind_docking_60.prm

>  <SCORE>
-47.2532

>  <SCORE.INTER>
-35.487

>  <SCORE.INTER.CONST>
1

>  <SCORE.INTER.POLAR>
-4.4801

>  <SCORE.INTER.ROT>
9

>  <SCORE.INTER.SOLV>
33.9881

>  <SCORE.INTER.VDW>
-29.6537

>  <SCORE.INTER.norm>
-0.844928

>  <SCORE.INTRA>
-15.6267

>  <SCORE.INTRA.DIHEDRAL>
-16.18

>  <SCORE.INTRA.DIHEDRAL.0>
40.6252

>  <SCORE.INTRA.POLAR>
-0.429076

>  <SCORE.INTRA.POLAR.0>
-1.20161

>  <SCORE.INTRA.REPUL>
-0.103154

>  <SCORE.INTRA.REPUL.0>
0.115675

>  <SCORE.INTRA.SOLV>
-3.37401

>  <SCORE.INTRA.SOLV.lig_0>
-154.895

>  <SCORE.INTRA.VDW>
-3.87512

>  <SCORE.INTRA.VDW.0>
2.2925

>  <SCORE.INTRA.norm>
-0.372065

>  <SCORE.RESTR>
3.86054

>  <SCORE.RESTR.CAVITY>
3.86054

>  <SCORE.RESTR.norm>
0.0919175

>  <SCORE.SYSTEM>
0

>  <SCORE.SYSTEM.CONST>
0

>  <SCORE.SYSTEM.DIHEDRAL>
0

>  <SCORE.SYSTEM.SOLV>
0

>  <SCORE.SYSTEM.norm>
0

>  <SCORE.heavy>
42

>  <SCORE.norm>
-1.12508

>  <RMSD>
13.635

$$$$

 OpenBabel11021811413D
libRbt.so/2013.1/901 2013/11/27
 42 45  0  0  0  0  0  0  0  0999 V2000
   -3.3835   -8.4162   -0.9727 O   0  0  0  0  0  0  0  0  0  0  0  0
   -3.9090   -7.1433   -1.3209 C   0  0  0  0  0  0  0  0  0  0  0  0
   -2.8792   -6.0559   -1.0116 C   0  0  1  0  0  0  0  0  0  0  0  0
   -3.3502   -4.7543   -1.4233 O   0  0  0  0  0  0  0  0  0  0  0  0
   -2.5604   -5.9306    0.4690 C   0  0  2  0  0  0  0  0  0  0  0  0
   -1.9629   -4.5339    0.5064 C   0  0  1  0  0  0  0  0  0  0  0  0
   -0.6282   -4.5685    0.0134 O   0  0  0  0  0  0  0  0  0  0  0  0
   -2.8661   -3.7654   -0.4796 C   0  0  2  0  0  0  0  0  0  0  0  0
   -2.4863   -6.4341    4.4117 C   0  0  2  0  0  0  0  0  0  0  0  0
   -2.3871   -6.1724    3.0034 O   0  0  0  0  0  0  0  0  0  0  0  0
   -1.7623   -7.2596    2.2974 C   0  0  2  0  0  0  0  0  0  0  0  0
   -1.6257   -6.9406    0.8969 O   0  0  0  0  0  0  0  0  0  0  0  0
   -2.5703   -8.5568    2.4733 C   0  0  2  0  0  0  0  0  0  0  0  0
   -3.7571   -8.5415    1.6381 N   0  3  0  0  0  0  0  0  0  0  0  0
   -2.9447   -8.8367    3.9336 C   0  0  1  0  0  0  0  0  0  0  0  0
   -1.8144   -9.3518    4.6191 O   0  0  0  0  0  0  0  0  0  0  0  0
   -3.4517   -7.5881    4.6501 C   0  0  2  0  0  0  0  0  0  0  0  0
   -4.7487   -7.2480    4.1741 O   0  0  0  0  0  0  0  0  0  0  0  0
   -2.9387   -5.1837    5.1604 C   0  0  0  0  0  0  0  0  0  0  0  0
   -2.1496   -4.0362    4.7536 N   0  3  0  0  0  0  0  0  0  0  0  0
   -3.3738    0.2466    0.9902 C   0  0  1  0  0  0  0  0  0  0  0  0
   -4.5867   -0.5323    0.9260 O   0  0  0  0  0  0  0  0  0  0  0  0
   -5.3522   -0.3020   -0.2792 C   0  0  2  0  0  0  0  0  0  0  0  0
   -4.6507   -0.7549   -1.4634 O   0  0  0  0  0  0  0  0  0  0  0  0
   -5.7407    1.1767   -0.3983 C   0  0  2  0  0  0  0  0  0  0  0  0
   -6.3202    1.4330   -1.7038 N   0  3  0  0  0  0  0  0  0  0  0  0
   -4.5405    2.0945   -0.1940 C   0  0  1  0  0  0  0  0  0  0  0  0
   -4.9811    3.4385   -0.0770 O   0  0  0  0  0  0  0  0  0  0  0  0
   -3.7064    1.7293    1.0243 C   0  0  2  0  0  0  0  0  0  0  0  0
   -2.5109    2.4953    1.0515 O   0  0  0  0  0  0  0  0  0  0  0  0
   -2.6068   -0.0855    2.2670 C   0  0  0  0  0  0  0  0  0  0  0  0
   -1.7901   -1.2711    2.0825 N   0  3  0  0  0  0  0  0  0  0  0  0
   -7.0734   -4.2478   -1.6365 C   0  0  2  0  0  0  0  0  0  0  0  0
   -6.6541   -3.6067   -2.9447 C   0  0  0  0  0  0  0  0  0  0  0  0
   -6.1593   -2.1917   -2.7086 C   0  0  1  0  0  0  0  0  0  0  0  0
   -4.9364   -2.1399   -1.7916 C   0  0  2  0  0  0  0  0  0  0  0  0
   -5.1811   -2.9486   -0.4967 C   0  0  1  0  0  0  0  0  0  0  0  0
   -5.9066   -4.2909   -0.6591 C   0  0  1  0  0  0  0  0  0  0  0  0
   -7.5468   -5.5952   -1.8902 N   0  3  0  0  0  0  0  0  0  0  0  0
   -5.8636   -1.5763   -3.9877 N   0  3  0  0  0  0  0  0  0  0  0  0
   -3.9556   -3.1349    0.2532 O   0  0  0  0  0  0  0  0  0  0  0  0
   -6.3601   -4.7503    0.6100 O   0  0  0  0  0  0  0  0  0  0  0  0
  1  2  1  0  0  0  0
  3  2  1  1  0  0  0
  3  4  1  0  0  0  0
  3  5  1  0  0  0  0
  4  8  1  0  0  0  0
  5  6  1  0  0  0  0
  5 12  1  6  0  0  0
  6  7  1  6  0  0  0
  6  8  1  0  0  0  0
  8 41  1  1  0  0  0
  9 10  1  0  0  0  0
  9 17  1  0  0  0  0
  9 19  1  1  0  0  0
 10 11  1  0  0  0  0
 11 12  1  6  0  0  0
 11 13  1  0  0  0  0
 13 14  1  6  0  0  0
 13 15  1  0  0  0  0
 15 16  1  1  0  0  0
 15 17  1  0  0  0  0
 17 18  1  6  0  0  0
 19 20  1  0  0  0  0
 21 22  1  0  0  0  0
 21 29  1  0  0  0  0
 21 31  1  1  0  0  0
 22 23  1  0  0  0  0
 23 24  1  6  0  0  0
 23 25  1  0  0  0  0
 25 26  1  6  0  0  0
 25 27  1  0  0  0  0
 27 28  1  1  0  0  0
 27 29  1  0  0  0  0
 29 30  1  6  0  0  0
 31 32  1  0  0  0  0
 33 34  1  0  0  0  0
 33 38  1  0  0  0  0
 33 39  1  6  0  0  0
 34 35  1  0  0  0  0
 35 36  1  0  0  0  0
 35 40  1  6  0  0  0
 36 24  1  1  0  0  0
 36 37  1  0  0  0  0
 37 38  1  0  0  0  0
 37 41  1  6  0  0  0
 38 42  1  1  0  0  0
M  CHG  6  14   1  20   1  26   1  32   1  39   1  40   1
M  END
>  <CHROM.1>
-170.24341694,176.74958786,-153.19912873,-19.36897061,-34.49842258,-48.61039021
-22.61623154,80.54506212,-47.07161640,-56.31146464,42.01841965,83.80291967
89.68279701,89.17274679,51.88148977,-57.16514508,-89.56805306,48.88290149
167.06857918,-168.03304584,-55.98160542,56.84707982,-3.89924913,-3.72118809
0.63591875,1.12034643,1.01463158,3.14031130

>  <Name>


>  <RI>
0

>  <Rbt.Current_Directory>
/home/itssahil/PROJECTS/Mol_Feturizer/New_Systems/rnas/1qd3

>  <Rbt.Executable>
rbdock ($Id: //depot/dev/client3/rdock/2013.1/src/exe/rbdock.cxx#4 $)

>  <Rbt.Library>
libRbt.so (2013.1, Build901 2013/11/27)

>  <Rbt.Parameter_File>
/export/apps/rDock/src/rDock_2013.1_src/data/scripts/dock_solv.prm

>  <Rbt.Receptor>
prm/blind_docking_20.prm

>  <SCORE>
-52.4778

>  <SCORE.INTER>
-43.1692

>  <SCORE.INTER.CONST>
1

>  <SCORE.INTER.POLAR>
-5.94854

>  <SCORE.INTER.ROT>
9

>  <SCORE.INTER.SOLV>
26.3614

>  <SCORE.INTER.VDW>
-27.3381

>  <SCORE.INTER.norm>
-1.02784

>  <SCORE.INTRA>
-9.89773

>  <SCORE.INTRA.DIHEDRAL>
-6.67481

>  <SCORE.INTRA.DIHEDRAL.0>
40.6252

>  <SCORE.INTRA.POLAR>
-0.306977

>  <SCORE.INTRA.POLAR.0>
-1.20161

>  <SCORE.INTRA.REPUL>
-0.0820388

>  <SCORE.INTRA.REPUL.0>
0.115675

>  <SCORE.INTRA.SOLV>
0.283428

>  <SCORE.INTRA.SOLV.lig_0>
-154.895

>  <SCORE.INTRA.VDW>
-5.24812

>  <SCORE.INTRA.VDW.0>
2.2925

>  <SCORE.INTRA.norm>
-0.23566

>  <SCORE.RESTR>
0.58915

>  <SCORE.RESTR.CAVITY>
0.58915

>  <SCORE.RESTR.norm>
0.0140274

>  <SCORE.SYSTEM>
0

>  <SCORE.SYSTEM.CONST>
0

>  <SCORE.SYSTEM.DIHEDRAL>
0

>  <SCORE.SYSTEM.SOLV>
0

>  <SCORE.SYSTEM.norm>
0

>  <SCORE.heavy>
42

>  <SCORE.norm>
-1.24947

>  <RMSD>
13.648

$$$$

 OpenBabel11021811413D
libRbt.so/2013.1/901 2013/11/27
 42 45  0  0  0  0  0  0  0  0999 V2000
   -2.9188   -9.0634    0.0217 O   0  0  0  0  0  0  0  0  0  0  0  0
   -3.6787   -8.1195   -0.7196 C   0  0  0  0  0  0  0  0  0  0  0  0
   -2.9013   -6.8080   -0.8384 C   0  0  1  0  0  0  0  0  0  0  0  0
   -3.6249   -5.8385   -1.6271 O   0  0  0  0  0  0  0  0  0  0  0  0
   -2.6391   -6.1386    0.5004 C   0  0  2  0  0  0  0  0  0  0  0  0
   -2.3443   -4.7185    0.0471 C   0  0  1  0  0  0  0  0  0  0  0  0
   -1.0236   -4.6459   -0.4785 O   0  0  0  0  0  0  0  0  0  0  0  0
   -3.3711   -4.5172   -1.0860 C   0  0  2  0  0  0  0  0  0  0  0  0
   -3.5129   -7.4983    4.1533 C   0  0  2  0  0  0  0  0  0  0  0  0
   -3.1913   -7.3015    2.7679 O   0  0  0  0  0  0  0  0  0  0  0  0
   -1.7994   -6.9895    2.5781 C   0  0  2  0  0  0  0  0  0  0  0  0
   -1.5226   -6.7410    1.1841 O   0  0  0  0  0  0  0  0  0  0  0  0
   -0.9108   -8.1299    3.1041 C   0  0  2  0  0  0  0  0  0  0  0  0
   -0.9073   -9.2482    2.1791 N   0  3  0  0  0  0  0  0  0  0  0  0
   -1.3046   -8.5971    4.5103 C   0  0  1  0  0  0  0  0  0  0  0  0
   -0.8202   -7.6690    5.4678 O   0  0  0  0  0  0  0  0  0  0  0  0
   -2.8150   -8.7513    4.6667 C   0  0  2  0  0  0  0  0  0  0  0  0
   -3.2639   -9.8925    3.9452 O   0  0  0  0  0  0  0  0  0  0  0  0
   -5.0233   -7.6003    4.3456 C   0  0  0  0  0  0  0  0  0  0  0  0
   -5.7149   -7.2522    3.1186 N   0  3  0  0  0  0  0  0  0  0  0  0
   -5.2512    1.6647   -0.4131 C   0  0  1  0  0  0  0  0  0  0  0  0
   -4.8546    1.2521   -1.7377 O   0  0  0  0  0  0  0  0  0  0  0  0
   -4.2657   -0.0683   -1.7740 C   0  0  2  0  0  0  0  0  0  0  0  0
   -5.2207   -1.0991   -1.4203 O   0  0  0  0  0  0  0  0  0  0  0  0
   -3.0252   -0.1317   -0.8747 C   0  0  2  0  0  0  0  0  0  0  0  0
   -2.5704   -1.5044   -0.7542 N   0  3  0  0  0  0  0  0  0  0  0  0
   -3.3061    0.4270    0.5158 C   0  0  1  0  0  0  0  0  0  0  0  0
   -2.0875    0.5676    1.2295 O   0  0  0  0  0  0  0  0  0  0  0  0
   -4.0328    1.7629    0.4902 C   0  0  2  0  0  0  0  0  0  0  0  0
   -4.4290    2.1344    1.8024 O   0  0  0  0  0  0  0  0  0  0  0  0
   -5.8993    3.0451   -0.4682 C   0  0  0  0  0  0  0  0  0  0  0  0
   -4.9548    4.0378   -0.9470 N   0  3  0  0  0  0  0  0  0  0  0  0
   -6.8241   -4.3919   -3.5850 C   0  0  2  0  0  0  0  0  0  0  0  0
   -6.1988   -3.2582   -4.3735 C   0  0  0  0  0  0  0  0  0  0  0  0
   -6.0539   -2.0228   -3.5043 C   0  0  1  0  0  0  0  0  0  0  0  0
   -5.1489   -2.2564   -2.2938 C   0  0  2  0  0  0  0  0  0  0  0  0
   -5.5746   -3.5266   -1.5216 C   0  0  1  0  0  0  0  0  0  0  0  0
   -5.9708   -4.7401   -2.3729 C   0  0  1  0  0  0  0  0  0  0  0  0
   -6.9567   -5.5570   -4.4388 N   0  3  0  0  0  0  0  0  0  0  0  0
   -5.5485   -0.9324   -4.3155 N   0  3  0  0  0  0  0  0  0  0  0  0
   -4.5790   -3.9118   -0.5421 O   0  0  0  0  0  0  0  0  0  0  0  0
   -6.6516   -5.6942   -1.5645 O   0  0  0  0  0  0  0  0  0  0  0  0
  1  2  1  0  0  0  0
  3  2  1  1  0  0  0
  3  4  1  0  0  0  0
  3  5  1  0  0  0  0
  4  8  1  0  0  0  0
  5  6  1  0  0  0  0
  5 12  1  6  0  0  0
  6  7  1  6  0  0  0
  6  8  1  0  0  0  0
  8 41  1  1  0  0  0
  9 10  1  0  0  0  0
  9 17  1  0  0  0  0
  9 19  1  6  0  0  0
 10 11  1  0  0  0  0
 11 12  1  6  0  0  0
 11 13  1  0  0  0  0
 13 14  1  6  0  0  0
 13 15  1  0  0  0  0
 15 16  1  1  0  0  0
 15 17  1  0  0  0  0
 17 18  1  6  0  0  0
 19 20  1  0  0  0  0
 21 22  1  0  0  0  0
 21 29  1  0  0  0  0
 21 31  1  6  0  0  0
 22 23  1  0  0  0  0
 23 24  1  1  0  0  0
 23 25  1  0  0  0  0
 25 26  1  1  0  0  0
 25 27  1  0  0  0  0
 27 28  1  6  0  0  0
 27 29  1  0  0  0  0
 29 30  1  1  0  0  0
 31 32  1  0  0  0  0
 33 34  1  0  0  0  0
 33 38  1  0  0  0  0
 33 39  1  6  0  0  0
 34 35  1  0  0  0  0
 35 36  1  0  0  0  0
 35 40  1  6  0  0  0
 36 24  1  1  0  0  0
 36 37  1  0  0  0  0
 37 38  1  0  0  0  0
 37 41  1  1  0  0  0
 38 42  1  1  0  0  0
M  CHG  6  14   1  20   1  26   1  32   1  39   1  40   1
M  END
>  <CHROM.1>
-177.43249420,177.99571051,-134.44524007,-169.09979348,-69.77703166,-9.36801157
32.52209101,146.57831387,-72.81218084,-176.76016621,-52.27577665,-62.37702579
136.29345818,-87.49880049,-48.67097182,170.62689745,-66.39860780,-168.45505956
-170.67051215,-68.43868224,-74.09665470,65.77816438,-3.86230978,-4.05381981
0.12525973,1.05497298,1.07098281,-3.12977257

>  <Name>


>  <RI>
0

>  <Rbt.Current_Directory>
/home/itssahil/PROJECTS/Mol_Feturizer/New_Systems/rnas/1qd3

>  <Rbt.Executable>
rbdock ($Id: //depot/dev/client3/rdock/2013.1/src/exe/rbdock.cxx#4 $)

>  <Rbt.Library>
libRbt.so (2013.1, Build901 2013/11/27)

>  <Rbt.Parameter_File>
/export/apps/rDock/src/rDock_2013.1_src/data/scripts/dock_solv.prm

>  <Rbt.Receptor>
prm/blind_docking_20.prm

>  <SCORE>
-61.5209

>  <SCORE.INTER>
-50.9069

>  <SCORE.INTER.CONST>
1

>  <SCORE.INTER.POLAR>
-6.02545

>  <SCORE.INTER.ROT>
9

>  <SCORE.INTER.SOLV>
25.6792

>  <SCORE.INTER.VDW>
-32.0128

>  <SCORE.INTER.norm>
-1.21207

>  <SCORE.INTRA>
-11.9532

>  <SCORE.INTRA.DIHEDRAL>
-8.19231

>  <SCORE.INTRA.DIHEDRAL.0>
40.6252

>  <SCORE.INTRA.POLAR>
0.219674

>  <SCORE.INTRA.POLAR.0>
-1.20161

>  <SCORE.INTRA.REPUL>
-0.115675

>  <SCORE.INTRA.REPUL.0>
0.115675

>  <SCORE.INTRA.SOLV>
-0.344596

>  <SCORE.INTRA.SOLV.lig_0>
-154.895

>  <SCORE.INTRA.VDW>
-7.85321

>  <SCORE.INTRA.VDW.0>
2.2925

>  <SCORE.INTRA.norm>
-0.284599

>  <SCORE.RESTR>
1.3391

>  <SCORE.RESTR.CAVITY>
1.3391

>  <SCORE.RESTR.norm>
0.0318833

>  <SCORE.SYSTEM>
0

>  <SCORE.SYSTEM.CONST>
0

>  <SCORE.SYSTEM.DIHEDRAL>
0

>  <SCORE.SYSTEM.SOLV>
0

>  <SCORE.SYSTEM.norm>
0

>  <SCORE.heavy>
42

>  <SCORE.norm>
-1.46478

>  <RMSD>
13.658

$$$$

 OpenBabel11021811413D
libRbt.so/2013.1/901 2013/11/27
 42 45  0  0  0  0  0  0  0  0999 V2000
   -2.6319   -3.6065    3.7507 O   0  0  0  0  0  0  0  0  0  0  0  0
   -2.7271   -4.6261    2.7663 C   0  0  0  0  0  0  0  0  0  0  0  0
   -4.1778   -4.7644    2.3030 C   0  0  1  0  0  0  0  0  0  0  0  0
   -4.5617   -3.6680    1.4449 O   0  0  0  0  0  0  0  0  0  0  0  0
   -4.4367   -6.0280    1.4995 C   0  0  2  0  0  0  0  0  0  0  0  0
   -5.7256   -5.6466    0.7908 C   0  0  1  0  0  0  0  0  0  0  0  0
   -6.8205   -5.7522    1.6941 O   0  0  0  0  0  0  0  0  0  0  0  0
   -5.4786   -4.1657    0.4377 C   0  0  2  0  0  0  0  0  0  0  0  0
   -2.7721   -8.4943    5.2325 C   0  0  2  0  0  0  0  0  0  0  0  0
   -3.8008   -8.3695    4.2387 O   0  0  0  0  0  0  0  0  0  0  0  0
   -3.5194   -7.3127    3.3034 C   0  0  2  0  0  0  0  0  0  0  0  0
   -4.5984   -7.1762    2.3554 O   0  0  0  0  0  0  0  0  0  0  0  0
   -2.1935   -7.5763    2.5693 C   0  0  2  0  0  0  0  0  0  0  0  0
   -2.3636   -8.5938    1.5485 N   0  3  0  0  0  0  0  0  0  0  0  0
   -1.0479   -7.9520    3.5166 C   0  0  1  0  0  0  0  0  0  0  0  0
   -0.5580   -6.7812    4.1507 O   0  0  0  0  0  0  0  0  0  0  0  0
   -1.4805   -8.9632    4.5748 C   0  0  2  0  0  0  0  0  0  0  0  0
   -1.6710  -10.2402    3.9770 O   0  0  0  0  0  0  0  0  0  0  0  0
   -3.2024   -9.4591    6.3338 C   0  0  0  0  0  0  0  0  0  0  0  0
   -4.6330   -9.6924    6.2725 N   0  3  0  0  0  0  0  0  0  0  0  0
   -3.3737    1.5650   -0.5218 C   0  0  1  0  0  0  0  0  0  0  0  0
   -2.8309    0.7392   -1.5733 O   0  0  0  0  0  0  0  0  0  0  0  0
   -2.9060   -0.6762   -1.2866 C   0  0  2  0  0  0  0  0  0  0  0  0
   -4.2754   -1.1459   -1.2233 O   0  0  0  0  0  0  0  0  0  0  0  0
   -2.1479   -1.0071    0.0047 C   0  0  2  0  0  0  0  0  0  0  0  0
   -2.4058   -2.3815    0.3924 N   0  3  0  0  0  0  0  0  0  0  0  0
   -2.5473   -0.0806    1.1477 C   0  0  1  0  0  0  0  0  0  0  0  0
   -1.6628   -0.2632    2.2424 O   0  0  0  0  0  0  0  0  0  0  0  0
   -2.5638    1.3879    0.7521 C   0  0  2  0  0  0  0  0  0  0  0  0
   -3.1208    2.1739    1.7955 O   0  0  0  0  0  0  0  0  0  0  0  0
   -3.2953    3.0361   -0.9198 C   0  0  0  0  0  0  0  0  0  0  0  0
   -3.7461    3.8871    0.1661 N   0  3  0  0  0  0  0  0  0  0  0  0
   -6.8933   -3.0394   -3.9912 C   0  0  2  0  0  0  0  0  0  0  0  0
   -5.7953   -2.1515   -4.5428 C   0  0  0  0  0  0  0  0  0  0  0  0
   -5.2330   -1.2607   -3.4505 C   0  0  1  0  0  0  0  0  0  0  0  0
   -4.6085   -2.0567   -2.3036 C   0  0  2  0  0  0  0  0  0  0  0  0
   -5.5793   -3.1467   -1.7935 C   0  0  1  0  0  0  0  0  0  0  0  0
   -6.3626   -3.9164   -2.8651 C   0  0  1  0  0  0  0  0  0  0  0  0
   -7.4169   -3.8753   -5.0546 N   0  3  0  0  0  0  0  0  0  0  0  0
   -4.2598   -0.3576   -4.0333 N   0  3  0  0  0  0  0  0  0  0  0  0
   -4.9147   -4.0756   -0.9022 O   0  0  0  0  0  0  0  0  0  0  0  0
   -7.4394   -4.6242   -2.2597 O   0  0  0  0  0  0  0  0  0  0  0  0
  1  2  1  0  0  0  0
  3  2  1  6  0  0  0
  3  4  1  0  0  0  0
  3  5  1  0  0  0  0
  4  8  1  0  0  0  0
  5  6  1  0  0  0  0
  5 12  1  1  0  0  0
  6  7  1  1  0  0  0
  6  8  1  0  0  0  0
  8 41  1  6  0  0  0
  9 10  1  0  0  0  0
  9 17  1  0  0  0  0
  9 19  1  1  0  0  0
 10 11  1  0  0  0  0
 11 12  1  6  0  0  0
 11 13  1  0  0  0  0
 13 14  1  6  0  0  0
 13 15  1  0  0  0  0
 15 16  1  1  0  0  0
 15 17  1  0  0  0  0
 17 18  1  6  0  0  0
 19 20  1  0  0  0  0
 21 22  1  0  0  0  0
 21 29  1  0  0  0  0
 21 31  1  6  0  0  0
 22 23  1  0  0  0  0
 23 24  1  1  0  0  0
 23 25  1  0  0  0  0
 25 26  1  1  0  0  0
 25 27  1  0  0  0  0
 27 28  1  1  0  0  0
 27 29  1  0  0  0  0
 29 30  1  1  0  0  0
 31 32  1  0  0  0  0
 33 34  1  0  0  0  0
 33 38  1  0  0  0  0
 33 39  1  6  0  0  0
 34 35  1  0  0  0  0
 35 36  1  0  0  0  0
 35 40  1  6  0  0  0
 36 24  1  1  0  0  0
 36 37  1  0  0  0  0
 37 38  1  0  0  0  0
 37 41  1  6  0  0  0
 38 42  1  1  0  0  0
M  CHG  6  14   1  20   1  26   1  32   1  39   1  40   1
M  END
>  <CHROM.1>
-62.18478140,74.21492038,-51.38186441,54.35435922,-113.75014132,-15.54062989
173.01865215,173.10005100,-140.86535520,-170.69467841,-177.31084631,-175.79824704
112.93854984,-93.83935116,-175.89093884,-166.93478006,-147.59338815,-172.27740138
-66.10054509,85.79141961,121.01475959,-63.40118508,-3.85208883,-3.81483109
0.80490896,-1.34994156,-0.94157995,-0.42502688

>  <Name>


>  <RI>
0

>  <Rbt.Current_Directory>
/home/itssahil/PROJECTS/Mol_Feturizer/New_Systems/rnas/1qd3

>  <Rbt.Executable>
rbdock ($Id: //depot/dev/client3/rdock/2013.1/src/exe/rbdock.cxx#4 $)

>  <Rbt.Library>
libRbt.so (2013.1, Build901 2013/11/27)

>  <Rbt.Parameter_File>
/export/apps/rDock/src/rDock_2013.1_src/data/scripts/dock_solv.prm

>  <Rbt.Receptor>
prm/blind_docking_20.prm

>  <SCORE>
-55.9974

>  <SCORE.INTER>
-45.8726

>  <SCORE.INTER.CONST>
1

>  <SCORE.INTER.POLAR>
-7.3598

>  <SCORE.INTER.ROT>
9

>  <SCORE.INTER.SOLV>
28.704

>  <SCORE.INTER.VDW>
-25.2171

>  <SCORE.INTER.norm>
-1.0922

>  <SCORE.INTRA>
-10.4627

>  <SCORE.INTRA.DIHEDRAL>
4.15503

>  <SCORE.INTRA.DIHEDRAL.0>
40.6252

>  <SCORE.INTRA.POLAR>
-1.29031

>  <SCORE.INTRA.POLAR.0>
-1.20161

>  <SCORE.INTRA.REPUL>
-0.115675

>  <SCORE.INTRA.REPUL.0>
0.115675

>  <SCORE.INTRA.SOLV>
-2.49438

>  <SCORE.INTRA.SOLV.lig_0>
-154.895

>  <SCORE.INTRA.VDW>
-6.32755

>  <SCORE.INTRA.VDW.0>
2.2925

>  <SCORE.INTRA.norm>
-0.249111

>  <SCORE.RESTR>
0.337884

>  <SCORE.RESTR.CAVITY>
0.337884

>  <SCORE.RESTR.norm>
0.00804486

>  <SCORE.SYSTEM>
0

>  <SCORE.SYSTEM.CONST>
0

>  <SCORE.SYSTEM.DIHEDRAL>
0

>  <SCORE.SYSTEM.SOLV>
0

>  <SCORE.SYSTEM.norm>
0

>  <SCORE.heavy>
42

>  <SCORE.norm>
-1.33327

>  <RMSD>
13.663

$$$$

 OpenBabel11021811413D
libRbt.so/2013.1/901 2013/11/27
 42 45  0  0  0  0  0  0  0  0999 V2000
   -1.8666    0.9112    1.1306 O   0  0  0  0  0  0  0  0  0  0  0  0
   -2.8120   -0.1450    1.2218 C   0  0  0  0  0  0  0  0  0  0  0  0
   -2.0838   -1.4888    1.2700 C   0  0  1  0  0  0  0  0  0  0  0  0
   -1.4725   -1.7088    2.5598 O   0  0  0  0  0  0  0  0  0  0  0  0
   -2.9990   -2.6796    1.0381 C   0  0  2  0  0  0  0  0  0  0  0  0
   -2.1540   -3.7972    1.6263 C   0  0  1  0  0  0  0  0  0  0  0  0
   -1.1226   -4.1524    0.7120 O   0  0  0  0  0  0  0  0  0  0  0  0
   -1.5416   -3.1234    2.8711 C   0  0  2  0  0  0  0  0  0  0  0  0
   -6.5159   -3.7625   -1.7874 C   0  0  2  0  0  0  0  0  0  0  0  0
   -5.2962   -3.0341   -1.5789 O   0  0  0  0  0  0  0  0  0  0  0  0
   -4.4579   -3.6609   -0.5913 C   0  0  2  0  0  0  0  0  0  0  0  0
   -3.2700   -2.8742   -0.3640 O   0  0  0  0  0  0  0  0  0  0  0  0
   -4.0791   -5.0868   -1.0268 C   0  0  2  0  0  0  0  0  0  0  0  0
   -3.0510   -5.0563   -2.0508 N   0  3  0  0  0  0  0  0  0  0  0  0
   -5.2835   -5.9095   -1.4993 C   0  0  1  0  0  0  0  0  0  0  0  0
   -6.0166   -6.3614   -0.3718 O   0  0  0  0  0  0  0  0  0  0  0  0
   -6.2030   -5.1122   -2.4205 C   0  0  2  0  0  0  0  0  0  0  0  0
   -5.5801   -4.9269   -3.6863 O   0  0  0  0  0  0  0  0  0  0  0  0
   -7.4774   -2.9623   -2.6614 C   0  0  0  0  0  0  0  0  0  0  0  0
   -8.8167   -3.5138   -2.5773 N   0  3  0  0  0  0  0  0  0  0  0  0
   -5.0803   -5.4980    2.6259 C   0  0  1  0  0  0  0  0  0  0  0  0
   -4.5353   -4.9450    3.8422 O   0  0  0  0  0  0  0  0  0  0  0  0
   -3.8187   -5.9141    4.6413 C   0  0  2  0  0  0  0  0  0  0  0  0
   -2.6232   -6.3904    3.9752 O   0  0  0  0  0  0  0  0  0  0  0  0
   -4.7369   -7.0795    5.0293 C   0  0  2  0  0  0  0  0  0  0  0  0
   -3.9596   -8.1388    5.6454 N   0  3  0  0  0  0  0  0  0  0  0  0
   -5.4793   -7.6404    3.8215 C   0  0  1  0  0  0  0  0  0  0  0  0
   -6.4820   -8.5462    4.2551 O   0  0  0  0  0  0  0  0  0  0  0  0
   -6.1130   -6.5640    2.9537 C   0  0  2  0  0  0  0  0  0  0  0  0
   -6.6223   -7.1321    1.7560 O   0  0  0  0  0  0  0  0  0  0  0  0
   -5.7811   -4.4054    1.8235 C   0  0  0  0  0  0  0  0  0  0  0  0
   -5.6692   -3.1231    2.4942 N   0  3  0  0  0  0  0  0  0  0  0  0
    0.0490   -4.5415    6.7211 C   0  0  2  0  0  0  0  0  0  0  0  0
    0.5564   -5.7250    5.9212 C   0  0  0  0  0  0  0  0  0  0  0  0
   -0.6034   -6.4946    5.3167 C   0  0  1  0  0  0  0  0  0  0  0  0
   -1.4347   -5.6471    4.3526 C   0  0  2  0  0  0  0  0  0  0  0  0
   -1.8378   -4.3037    5.0033 C   0  0  1  0  0  0  0  0  0  0  0  0
   -0.7591   -3.6006    5.8378 C   0  0  1  0  0  0  0  0  0  0  0  0
    1.1750   -3.8273    7.2920 N   0  3  0  0  0  0  0  0  0  0  0  0
   -0.0888   -7.6726    4.6460 N   0  3  0  0  0  0  0  0  0  0  0  0
   -2.3875   -3.3844    4.0277 O   0  0  0  0  0  0  0  0  0  0  0  0
   -1.3547   -2.5843    6.6376 O   0  0  0  0  0  0  0  0  0  0  0  0
  1  2  1  0  0  0  0
  3  2  1  1  0  0  0
  3  4  1  0  0  0  0
  3  5  1  0  0  0  0
  4  8  1  0  0  0  0
  5  6  1  0  0  0  0
  5 12  1  6  0  0  0
  6  7  1  6  0  0  0
  6  8  1  0  0  0  0
  8 41  1  1  0  0  0
  9 10  1  0  0  0  0
  9 17  1  0  0  0  0
  9 19  1  6  0  0  0
 10 11  1  0  0  0  0
 11 12  1  6  0  0  0
 11 13  1  0  0  0  0
 13 14  1  6  0  0  0
 13 15  1  0  0  0  0
 15 16  1  1  0  0  0
 15 17  1  0  0  0  0
 17 18  1  6  0  0  0
 19 20  1  0  0  0  0
 21 22  1  0  0  0  0
 21 29  1  0  0  0  0
 21 31  1  1  0  0  0
 22 23  1  0  0  0  0
 23 24  1  6  0  0  0
 23 25  1  0  0  0  0
 25 26  1  6  0  0  0
 25 27  1  0  0  0  0
 27 28  1  1  0  0  0
 27 29  1  0  0  0  0
 29 30  1  6  0  0  0
 31 32  1  0  0  0  0
 33 34  1  0  0  0  0
 33 38  1  0  0  0  0
 33 39  1  6  0  0  0
 34 35  1  0  0  0  0
 35 36  1  0  0  0  0
 35 40  1  6  0  0  0
 36 24  1  1  0  0  0
 36 37  1  0  0  0  0
 37 38  1  0  0  0  0
 37 41  1  6  0  0  0
 38 42  1  1  0  0  0
M  CHG  6  14   1  20   1  26   1  32   1  39   1  40   1
M  END
>  <CHROM.1>
62.76885908,74.50665758,-159.82103366,68.71696326,-134.32105075,-164.61363929
132.47847118,-175.73912600,178.63627409,-68.86549789,-163.98222073,1.45851739
94.08343809,104.25858240,-53.42447840,146.45585005,90.09187246,-48.33169824
-151.69207724,55.71003461,-54.60470621,-49.16424201,-3.57599759,-4.56315213
2.13140829,-2.42609007,0.73266194,2.33786283

>  <Name>


>  <RI>
0

>  <Rbt.Current_Directory>
/home/itssahil/PROJECTS/Mol_Feturizer/New_Systems/rnas/1qd3

>  <Rbt.Executable>
rbdock ($Id: //depot/dev/client3/rdock/2013.1/src/exe/rbdock.cxx#4 $)

>  <Rbt.Library>
libRbt.so (2013.1, Build901 2013/11/27)

>  <Rbt.Parameter_File>
/export/apps/rDock/src/rDock_2013.1_src/data/scripts/dock_solv.prm

>  <Rbt.Receptor>
prm/blind_docking_40.prm

>  <SCORE>
-19.8107

>  <SCORE.INTER>
-22.0724

>  <SCORE.INTER.CONST>
1

>  <SCORE.INTER.POLAR>
-6.00947

>  <SCORE.INTER.ROT>
9

>  <SCORE.INTER.SOLV>
41.1445

>  <SCORE.INTER.VDW>
-17.9982

>  <SCORE.INTER.norm>
-0.525533

>  <SCORE.INTRA>
-0.442407

>  <SCORE.INTRA.DIHEDRAL>
5.6034

>  <SCORE.INTRA.DIHEDRAL.0>
40.6252

>  <SCORE.INTRA.POLAR>
1.06566

>  <SCORE.INTRA.POLAR.0>
-1.20161

>  <SCORE.INTRA.REPUL>
-0.0972461

>  <SCORE.INTRA.REPUL.0>
0.115675

>  <SCORE.INTRA.SOLV>
-5.75081

>  <SCORE.INTRA.SOLV.lig_0>
-154.895

>  <SCORE.INTRA.VDW>
-3.50572

>  <SCORE.INTRA.VDW.0>
2.2925

>  <SCORE.INTRA.norm>
-0.0105335

>  <SCORE.RESTR>
2.7041

>  <SCORE.RESTR.CAVITY>
2.7041

>  <SCORE.RESTR.norm>
0.0643834

>  <SCORE.SYSTEM>
0

>  <SCORE.SYSTEM.CONST>
0

>  <SCORE.SYSTEM.DIHEDRAL>
0

>  <SCORE.SYSTEM.SOLV>
0

>  <SCORE.SYSTEM.norm>
0

>  <SCORE.heavy>
42

>  <SCORE.norm>
-0.471683

>  <RMSD>
13.707

$$$$

 OpenBabel11021811413D
libRbt.so/2013.1/901 2013/11/27
 42 45  0  0  0  0  0  0  0  0999 V2000
   -2.6773   -0.1561   -0.7591 O   0  0  0  0  0  0  0  0  0  0  0  0
   -2.2316   -0.3857    0.5699 C   0  0  0  0  0  0  0  0  0  0  0  0
   -1.7106   -1.8174    0.7012 C   0  0  1  0  0  0  0  0  0  0  0  0
   -1.2351   -2.0826    2.0388 O   0  0  0  0  0  0  0  0  0  0  0  0
   -2.7682   -2.8723    0.4220 C   0  0  2  0  0  0  0  0  0  0  0  0
   -2.1394   -4.0802    1.0961 C   0  0  1  0  0  0  0  0  0  0  0  0
   -1.1050   -4.6066    0.2723 O   0  0  0  0  0  0  0  0  0  0  0  0
   -1.5305   -3.4627    2.3715 C   0  0  2  0  0  0  0  0  0  0  0  0
   -5.9709   -2.6991   -3.0286 C   0  0  2  0  0  0  0  0  0  0  0  0
   -4.5827   -2.6508   -2.6652 O   0  0  0  0  0  0  0  0  0  0  0  0
   -4.3525   -3.1860   -1.3494 C   0  0  2  0  0  0  0  0  0  0  0  0
   -2.9594   -3.0692   -0.9929 O   0  0  0  0  0  0  0  0  0  0  0  0
   -4.8017   -4.6554   -1.2747 C   0  0  2  0  0  0  0  0  0  0  0  0
   -3.8360   -5.5225   -1.9243 N   0  3  0  0  0  0  0  0  0  0  0  0
   -6.2032   -4.8842   -1.8527 C   0  0  1  0  0  0  0  0  0  0  0  0
   -7.1758   -4.4545   -0.9134 O   0  0  0  0  0  0  0  0  0  0  0  0
   -6.4105   -4.1503   -3.1748 C   0  0  2  0  0  0  0  0  0  0  0  0
   -5.6642   -4.7867   -4.2056 O   0  0  0  0  0  0  0  0  0  0  0  0
   -6.2160   -1.9245   -4.3204 C   0  0  0  0  0  0  0  0  0  0  0  0
   -7.6238   -1.9542   -4.6696 N   0  3  0  0  0  0  0  0  0  0  0  0
   -2.0721   -9.0482    1.6113 C   0  0  1  0  0  0  0  0  0  0  0  0
   -1.4940   -7.7560    1.3317 O   0  0  0  0  0  0  0  0  0  0  0  0
   -2.3934   -6.6558    1.6005 C   0  0  2  0  0  0  0  0  0  0  0  0
   -2.7026   -6.5389    3.0113 O   0  0  0  0  0  0  0  0  0  0  0  0
   -3.6716   -6.7859    0.7633 C   0  0  2  0  0  0  0  0  0  0  0  0
   -4.6477   -5.8019    1.1932 N   0  3  0  0  0  0  0  0  0  0  0  0
   -4.2814   -8.1787    0.8756 C   0  0  1  0  0  0  0  0  0  0  0  0
   -5.3136   -8.3277   -0.0870 O   0  0  0  0  0  0  0  0  0  0  0  0
   -3.2636   -9.2954    0.7006 C   0  0  2  0  0  0  0  0  0  0  0  0
   -3.8530  -10.5519    1.0013 O   0  0  0  0  0  0  0  0  0  0  0  0
   -1.0482  -10.1475    1.3430 C   0  0  0  0  0  0  0  0  0  0  0  0
    0.1492   -9.9395    2.1364 N   0  3  0  0  0  0  0  0  0  0  0  0
   -0.8357   -5.0812    6.5453 C   0  0  2  0  0  0  0  0  0  0  0  0
   -0.1377   -6.1844    5.7746 C   0  0  0  0  0  0  0  0  0  0  0  0
   -1.1006   -6.8487    4.8080 C   0  0  1  0  0  0  0  0  0  0  0  0
   -1.6530   -5.8767    3.7645 C   0  0  2  0  0  0  0  0  0  0  0  0
   -2.2115   -4.6013    4.4371 C   0  0  1  0  0  0  0  0  0  0  0  0
   -1.3867   -4.0259    5.5959 C   0  0  1  0  0  0  0  0  0  0  0  0
    0.1032   -4.4672    7.4647 N   0  3  0  0  0  0  0  0  0  0  0  0
   -0.4292   -7.9607    4.1638 N   0  3  0  0  0  0  0  0  0  0  0  0
   -2.4890   -3.5650    3.4635 O   0  0  0  0  0  0  0  0  0  0  0  0
   -2.1698   -3.0863    6.3248 O   0  0  0  0  0  0  0  0  0  0  0  0
  1  2  1  0  0  0  0
  3  2  1  1  0  0  0
  3  4  1  0  0  0  0
  3  5  1  0  0  0  0
  4  8  1  0  0  0  0
  5  6  1  0  0  0  0
  5 12  1  6  0  0  0
  6  7  1  6  0  0  0
  6  8  1  0  0  0  0
  8 41  1  1  0  0  0
  9 10  1  0  0  0  0
  9 17  1  0  0  0  0
  9 19  1  6  0  0  0
 10 11  1  0  0  0  0
 11 12  1  6  0  0  0
 11 13  1  0  0  0  0
 13 14  1  6  0  0  0
 13 15  1  0  0  0  0
 15 16  1  1  0  0  0
 15 17  1  0  0  0  0
 17 18  1  6  0  0  0
 19 20  1  0  0  0  0
 21 22  1  0  0  0  0
 21 29  1  0  0  0  0
 21 31  1  6  0  0  0
 22 23  1  0  0  0  0
 23 24  1  1  0  0  0
 23 25  1  0  0  0  0
 25 26  1  1  0  0  0
 25 27  1  0  0  0  0
 27 28  1  6  0  0  0
 27 29  1  0  0  0  0
 29 30  1  1  0  0  0
 31 32  1  0  0  0  0
 33 34  1  0  0  0  0
 33 38  1  0  0  0  0
 33 39  1  1  0  0  0
 34 35  1  0  0  0  0
 35 36  1  0  0  0  0
 35 40  1  6  0  0  0
 36 24  1  1  0  0  0
 36 37  1  0  0  0  0
 37 38  1  0  0  0  0
 37 41  1  6  0  0  0
 38 42  1  1  0  0  0
M  CHG  6  14   1  20   1  26   1  32   1  39   1  40   1
M  END
>  <CHROM.1>
64.77355055,179.40119189,-137.45430350,171.69856525,-139.36625098,-178.89352892
148.02385434,-143.35114836,-177.48786132,169.63506459,-61.17827786,57.34148975
79.78164177,-118.04949322,-46.72835378,-55.67682236,165.15030550,-160.58947688
-177.07360998,63.51961419,-37.95688191,-176.64112417,-3.06516367,-5.10937394
1.02518323,-2.78366125,1.01029179,3.13732569

>  <Name>


>  <RI>
0

>  <Rbt.Current_Directory>
/home/itssahil/PROJECTS/Mol_Feturizer/New_Systems/rnas/1qd3

>  <Rbt.Executable>
rbdock ($Id: //depot/dev/client3/rdock/2013.1/src/exe/rbdock.cxx#4 $)

>  <Rbt.Library>
libRbt.so (2013.1, Build901 2013/11/27)

>  <Rbt.Parameter_File>
/export/apps/rDock/src/rDock_2013.1_src/data/scripts/dock_solv.prm

>  <Rbt.Receptor>
prm/blind_docking_40.prm

>  <SCORE>
-17.9015

>  <SCORE.INTER>
-20.667

>  <SCORE.INTER.CONST>
1

>  <SCORE.INTER.POLAR>
-4.35398

>  <SCORE.INTER.ROT>
9

>  <SCORE.INTER.SOLV>
25.2687

>  <SCORE.INTER.VDW>
-17.2876

>  <SCORE.INTER.norm>
-0.492071

>  <SCORE.INTRA>
-1.64991

>  <SCORE.INTRA.DIHEDRAL>
-8.19492

>  <SCORE.INTRA.DIHEDRAL.0>
40.6252

>  <SCORE.INTRA.POLAR>
1.08424

>  <SCORE.INTRA.POLAR.0>
-1.20161

>  <SCORE.INTRA.REPUL>
-0.115675

>  <SCORE.INTRA.REPUL.0>
0.115675

>  <SCORE.INTRA.SOLV>
8.75721

>  <SCORE.INTRA.SOLV.lig_0>
-154.895

>  <SCORE.INTRA.VDW>
-5.03908

>  <SCORE.INTRA.VDW.0>
2.2925

>  <SCORE.INTRA.norm>
-0.0392836

>  <SCORE.RESTR>
4.41539

>  <SCORE.RESTR.CAVITY>
4.41539

>  <SCORE.RESTR.norm>
0.105128

>  <SCORE.SYSTEM>
0

>  <SCORE.SYSTEM.CONST>
0

>  <SCORE.SYSTEM.DIHEDRAL>
0

>  <SCORE.SYSTEM.SOLV>
0

>  <SCORE.SYSTEM.norm>
0

>  <SCORE.heavy>
42

>  <SCORE.norm>
-0.426227

>  <RMSD>
13.713

$$$$

 OpenBabel11021811413D
libRbt.so/2013.1/901 2013/11/27
 42 45  0  0  0  0  0  0  0  0999 V2000
   -5.6195   -6.7676   -0.1842 O   0  0  0  0  0  0  0  0  0  0  0  0
   -4.5492   -7.2932   -0.9562 C   0  0  0  0  0  0  0  0  0  0  0  0
   -3.4267   -6.2596   -1.0560 C   0  0  1  0  0  0  0  0  0  0  0  0
   -3.9116   -5.0074   -1.5876 O   0  0  0  0  0  0  0  0  0  0  0  0
   -2.7959   -5.9224    0.2849 C   0  0  2  0  0  0  0  0  0  0  0  0
   -2.1383   -4.5928   -0.0448 C   0  0  1  0  0  0  0  0  0  0  0  0
   -0.9414   -4.8179   -0.7815 O   0  0  0  0  0  0  0  0  0  0  0  0
   -3.1921   -3.9222   -0.9494 C   0  0  2  0  0  0  0  0  0  0  0  0
   -3.1414   -7.5401    4.0463 C   0  0  2  0  0  0  0  0  0  0  0  0
   -3.1271   -7.4045    2.6170 O   0  0  0  0  0  0  0  0  0  0  0  0
   -1.8097   -7.1111    2.1180 C   0  0  2  0  0  0  0  0  0  0  0  0
   -1.8410   -6.9238    0.6878 O   0  0  0  0  0  0  0  0  0  0  0  0
   -0.8263   -8.2346    2.4882 C   0  0  2  0  0  0  0  0  0  0  0  0
   -1.0204   -9.3911    1.6331 N   0  3  0  0  0  0  0  0  0  0  0  0
   -0.9060   -8.6390    3.9650 C   0  0  1  0  0  0  0  0  0  0  0  0
   -0.2280   -7.6748    4.7545 O   0  0  0  0  0  0  0  0  0  0  0  0
   -2.3466   -8.7753    4.4503 C   0  0  2  0  0  0  0  0  0  0  0  0
   -2.9386   -9.9427    3.8923 O   0  0  0  0  0  0  0  0  0  0  0  0
   -4.5744   -7.6227    4.5644 C   0  0  0  0  0  0  0  0  0  0  0  0
   -4.5828   -7.8270    6.0008 N   0  3  0  0  0  0  0  0  0  0  0  0
   -4.0738    0.7194    0.5287 C   0  0  1  0  0  0  0  0  0  0  0  0
   -5.1943    0.5099   -0.3559 O   0  0  0  0  0  0  0  0  0  0  0  0
   -4.8163    0.4269   -1.7494 C   0  0  2  0  0  0  0  0  0  0  0  0
   -4.0046   -0.7418   -2.0235 O   0  0  0  0  0  0  0  0  0  0  0  0
   -4.1049    1.7107   -2.1938 C   0  0  2  0  0  0  0  0  0  0  0  0
   -3.5474    1.5338   -3.5218 N   0  3  0  0  0  0  0  0  0  0  0  0
   -2.9899    2.1014   -1.2302 C   0  0  1  0  0  0  0  0  0  0  0  0
   -2.5217    3.4039   -1.5439 O   0  0  0  0  0  0  0  0  0  0  0  0
   -3.4149    2.0561    0.2295 C   0  0  2  0  0  0  0  0  0  0  0  0
   -2.2910    2.2446    1.0768 O   0  0  0  0  0  0  0  0  0  0  0  0
   -4.5513    0.7526    1.9777 C   0  0  0  0  0  0  0  0  0  0  0  0
   -5.5276    1.8087    2.1732 N   0  3  0  0  0  0  0  0  0  0  0  0
   -7.5258   -3.1132   -1.7451 C   0  0  2  0  0  0  0  0  0  0  0  0
   -7.0148   -2.7570   -3.1272 C   0  0  0  0  0  0  0  0  0  0  0  0
   -6.0269   -1.6078   -3.0488 C   0  0  1  0  0  0  0  0  0  0  0  0
   -4.7952   -1.9455   -2.2075 C   0  0  2  0  0  0  0  0  0  0  0  0
   -5.2051   -2.5219   -0.8326 C   0  0  1  0  0  0  0  0  0  0  0  0
   -6.3752   -3.5146   -0.8320 C   0  0  1  0  0  0  0  0  0  0  0  0
   -8.4710   -4.2086   -1.8484 N   0  3  0  0  0  0  0  0  0  0  0  0
   -5.6376   -1.2284   -4.3930 N   0  3  0  0  0  0  0  0  0  0  0  0
   -4.0704   -3.0926   -0.1358 O   0  0  0  0  0  0  0  0  0  0  0  0
   -6.8559   -3.6920    0.4963 O   0  0  0  0  0  0  0  0  0  0  0  0
  1  2  1  0  0  0  0
  3  2  1  1  0  0  0
  3  4  1  0  0  0  0
  3  5  1  0  0  0  0
  4  8  1  0  0  0  0
  5  6  1  0  0  0  0
  5 12  1  6  0  0  0
  6  7  1  6  0  0  0
  6  8  1  0  0  0  0
  8 41  1  1  0  0  0
  9 10  1  0  0  0  0
  9 17  1  0  0  0  0
  9 19  1  6  0  0  0
 10 11  1  0  0  0  0
 11 12  1  6  0  0  0
 11 13  1  0  0  0  0
 13 14  1  6  0  0  0
 13 15  1  0  0  0  0
 15 16  1  1  0  0  0
 15 17  1  0  0  0  0
 17 18  1  6  0  0  0
 19 20  1  0  0  0  0
 21 22  1  0  0  0  0
 21 29  1  0  0  0  0
 21 31  1  1  0  0  0
 22 23  1  0  0  0  0
 23 24  1  1  0  0  0
 23 25  1  0  0  0  0
 25 26  1  6  0  0  0
 25 27  1  0  0  0  0
 27 28  1  6  0  0  0
 27 29  1  0  0  0  0
 29 30  1  1  0  0  0
 31 32  1  0  0  0  0
 33 34  1  0  0  0  0
 33 38  1  0  0  0  0
 33 39  1  6  0  0  0
 34 35  1  0  0  0  0
 35 36  1  0  0  0  0
 35 40  1  6  0  0  0
 36 24  1  1  0  0  0
 36 37  1  0  0  0  0
 37 38  1  0  0  0  0
 37 41  1  6  0  0  0
 38 42  1  1  0  0  0
M  CHG  6  14   1  20   1  26   1  32   1  39   1  40   1
M  END
>  <CHROM.1>
69.96940225,-55.47243600,-146.23271928,178.10432669,-56.31699977,177.14104431
54.58065922,173.35919778,178.79103340,-53.52962031,-169.91035057,-58.78761444
82.06346399,41.66559190,-179.25871636,176.63452267,64.20154892,71.50663335
61.75384866,-13.78766056,-44.34174882,177.49589684,-3.88133519,-3.64341198
0.29336511,1.24680494,0.89936182,2.92776929

>  <Name>


>  <RI>
0

>  <Rbt.Current_Directory>
/home/itssahil/PROJECTS/Mol_Feturizer/New_Systems/rnas/1qd3

>  <Rbt.Executable>
rbdock ($Id: //depot/dev/client3/rdock/2013.1/src/exe/rbdock.cxx#4 $)

>  <Rbt.Library>
libRbt.so (2013.1, Build901 2013/11/27)

>  <Rbt.Parameter_File>
/export/apps/rDock/src/rDock_2013.1_src/data/scripts/dock_solv.prm

>  <Rbt.Receptor>
prm/blind_docking_20.prm

>  <SCORE>
-67.1629

>  <SCORE.INTER>
-48.6834

>  <SCORE.INTER.CONST>
1

>  <SCORE.INTER.POLAR>
-7.21724

>  <SCORE.INTER.ROT>
9

>  <SCORE.INTER.SOLV>
39.618

>  <SCORE.INTER.VDW>
-31.2041

>  <SCORE.INTER.norm>
-1.15913

>  <SCORE.INTRA>
-19.1651

>  <SCORE.INTRA.DIHEDRAL>
-24.7068

>  <SCORE.INTRA.DIHEDRAL.0>
40.6252

>  <SCORE.INTRA.POLAR>
1.06604

>  <SCORE.INTRA.POLAR.0>
-1.20161

>  <SCORE.INTRA.REPUL>
-0.115675

>  <SCORE.INTRA.REPUL.0>
0.115675

>  <SCORE.INTRA.SOLV>
-8.95129

>  <SCORE.INTRA.SOLV.lig_0>
-154.895

>  <SCORE.INTRA.VDW>
-5.38221

>  <SCORE.INTRA.VDW.0>
2.2925

>  <SCORE.INTRA.norm>
-0.456312

>  <SCORE.RESTR>
0.685608

>  <SCORE.RESTR.CAVITY>
0.685608

>  <SCORE.RESTR.norm>
0.016324

>  <SCORE.SYSTEM>
0

>  <SCORE.SYSTEM.CONST>
0

>  <SCORE.SYSTEM.DIHEDRAL>
0

>  <SCORE.SYSTEM.SOLV>
0

>  <SCORE.SYSTEM.norm>
0

>  <SCORE.heavy>
42

>  <SCORE.norm>
-1.59912

>  <RMSD>
13.745

$$$$

 OpenBabel11021811413D
libRbt.so/2013.1/901 2013/11/27
 42 45  0  0  0  0  0  0  0  0999 V2000
   -3.5375   -4.6469    2.7458 O   0  0  0  0  0  0  0  0  0  0  0  0
   -4.2312   -5.8535    3.0295 C   0  0  0  0  0  0  0  0  0  0  0  0
   -4.2211   -6.7585    1.7969 C   0  0  1  0  0  0  0  0  0  0  0  0
   -5.2016   -6.3336    0.8255 O   0  0  0  0  0  0  0  0  0  0  0  0
   -2.8897   -6.7652    1.0642 C   0  0  2  0  0  0  0  0  0  0  0  0
   -3.3235   -7.2911   -0.2938 C   0  0  1  0  0  0  0  0  0  0  0  0
   -3.5236   -8.6985   -0.2230 O   0  0  0  0  0  0  0  0  0  0  0  0
   -4.6756   -6.5794   -0.5033 C   0  0  2  0  0  0  0  0  0  0  0  0
   -3.2850  -10.9740    2.2956 C   0  0  2  0  0  0  0  0  0  0  0  0
   -2.6099   -9.8979    1.6264 O   0  0  0  0  0  0  0  0  0  0  0  0
   -2.5663   -8.7067    2.4326 C   0  0  2  0  0  0  0  0  0  0  0  0
   -1.9343   -7.6299    1.7096 O   0  0  0  0  0  0  0  0  0  0  0  0
   -1.8232   -8.9718    3.7532 C   0  0  2  0  0  0  0  0  0  0  0  0
   -0.3889   -9.0189    3.5364 N   0  3  0  0  0  0  0  0  0  0  0  0
   -2.3009  -10.2427    4.4654 C   0  0  1  0  0  0  0  0  0  0  0  0
   -3.5338   -9.9822    5.1173 O   0  0  0  0  0  0  0  0  0  0  0  0
   -2.4693  -11.4160    3.5038 C   0  0  2  0  0  0  0  0  0  0  0  0
   -1.1937  -11.8892    3.0871 O   0  0  0  0  0  0  0  0  0  0  0  0
   -3.5161  -12.1409    1.3397 C   0  0  0  0  0  0  0  0  0  0  0  0
   -4.2326  -11.6948    0.1596 N   0  3  0  0  0  0  0  0  0  0  0  0
   -4.2072    0.3928    0.3057 C   0  0  1  0  0  0  0  0  0  0  0  0
   -3.7643   -0.2112   -0.9276 O   0  0  0  0  0  0  0  0  0  0  0  0
   -3.3932   -1.6015   -0.7836 C   0  0  2  0  0  0  0  0  0  0  0  0
   -4.5285   -2.4344   -0.4411 O   0  0  0  0  0  0  0  0  0  0  0  0
   -2.2645   -1.7560    0.2430 C   0  0  2  0  0  0  0  0  0  0  0  0
   -2.0476   -3.1612    0.5331 N   0  3  0  0  0  0  0  0  0  0  0  0
   -2.5761   -1.0188    1.5407 C   0  0  1  0  0  0  0  0  0  0  0  0
   -1.4198   -0.9888    2.3629 O   0  0  0  0  0  0  0  0  0  0  0  0
   -3.0748    0.4009    1.3195 C   0  0  2  0  0  0  0  0  0  0  0  0
   -3.5226    0.9632    2.5442 O   0  0  0  0  0  0  0  0  0  0  0  0
   -4.6188    1.8415    0.0595 C   0  0  0  0  0  0  0  0  0  0  0  0
   -5.9948    2.0611    0.4657 N   0  3  0  0  0  0  0  0  0  0  0  0
   -7.8037   -4.0979   -2.5870 C   0  0  2  0  0  0  0  0  0  0  0  0
   -7.2560   -2.7616   -3.0476 C   0  0  0  0  0  0  0  0  0  0  0  0
   -6.3942   -2.1386   -1.9650 C   0  0  1  0  0  0  0  0  0  0  0  0
   -5.1829   -3.0007   -1.6067 C   0  0  2  0  0  0  0  0  0  0  0  0
   -5.6078   -4.4587   -1.3159 C   0  0  1  0  0  0  0  0  0  0  0  0
   -6.6706   -5.0567   -2.2472 C   0  0  1  0  0  0  0  0  0  0  0  0
   -8.6272   -4.6686   -3.6359 N   0  3  0  0  0  0  0  0  0  0  0  0
   -5.9717   -0.8212   -2.3988 N   0  3  0  0  0  0  0  0  0  0  0  0
   -4.4616   -5.3415   -1.2403 O   0  0  0  0  0  0  0  0  0  0  0  0
   -7.2033   -6.2445   -1.6706 O   0  0  0  0  0  0  0  0  0  0  0  0
  1  2  1  0  0  0  0
  3  2  1  1  0  0  0
  3  4  1  0  0  0  0
  3  5  1  0  0  0  0
  4  8  1  0  0  0  0
  5  6  1  0  0  0  0
  5 12  1  1  0  0  0
  6  7  1  1  0  0  0
  6  8  1  0  0  0  0
  8 41  1  1  0  0  0
  9 10  1  0  0  0  0
  9 17  1  0  0  0  0
  9 19  1  6  0  0  0
 10 11  1  0  0  0  0
 11 12  1  6  0  0  0
 11 13  1  0  0  0  0
 13 14  1  6  0  0  0
 13 15  1  0  0  0  0
 15 16  1  6  0  0  0
 15 17  1  0  0  0  0
 17 18  1  6  0  0  0
 19 20  1  0  0  0  0
 21 22  1  0  0  0  0
 21 29  1  0  0  0  0
 21 31  1  6  0  0  0
 22 23  1  0  0  0  0
 23 24  1  1  0  0  0
 23 25  1  0  0  0  0
 25 26  1  1  0  0  0
 25 27  1  0  0  0  0
 27 28  1  1  0  0  0
 27 29  1  0  0  0  0
 29 30  1  1  0  0  0
 31 32  1  0  0  0  0
 33 34  1  0  0  0  0
 33 38  1  0  0  0  0
 33 39  1  6  0  0  0
 34 35  1  0  0  0  0
 35 36  1  0  0  0  0
 35 40  1  6  0  0  0
 36 24  1  1  0  0  0
 36 37  1  0  0  0  0
 37 38  1  0  0  0  0
 37 41  1  6  0  0  0
 38 42  1  1  0  0  0
M  CHG  6  14   1  20   1  26   1  32   1  39   1  40   1
M  END
>  <CHROM.1>
176.90082270,-78.43319747,27.50772613,-170.07199850,-53.22350613,-55.20730903
96.09551326,-36.02758799,80.26261337,-67.15920548,-158.97693268,122.51293865
92.28308003,-97.58682506,-73.40991790,-49.13163623,-51.50759158,29.03983949
-65.65937208,-46.05003149,158.07163350,56.78952466,-3.99955750,-5.23539496
0.64959680,-1.24467451,-0.83629099,-0.05756764

>  <Name>


>  <RI>
0

>  <Rbt.Current_Directory>
/home/itssahil/PROJECTS/Mol_Feturizer/New_Systems/rnas/1qd3

>  <Rbt.Executable>
rbdock ($Id: //depot/dev/client3/rdock/2013.1/src/exe/rbdock.cxx#4 $)

>  <Rbt.Library>
libRbt.so (2013.1, Build901 2013/11/27)

>  <Rbt.Parameter_File>
/export/apps/rDock/src/rDock_2013.1_src/data/scripts/dock_solv.prm

>  <Rbt.Receptor>
prm/blind_docking_80.prm

>  <SCORE>
-54.3626

>  <SCORE.INTER>
-46.0175

>  <SCORE.INTER.CONST>
1

>  <SCORE.INTER.POLAR>
-5.67741

>  <SCORE.INTER.ROT>
9

>  <SCORE.INTER.SOLV>
23.1737

>  <SCORE.INTER.VDW>
-29.0782

>  <SCORE.INTER.norm>
-1.09565

>  <SCORE.INTRA>
-10.1764

>  <SCORE.INTRA.DIHEDRAL>
-3.74605

>  <SCORE.INTRA.DIHEDRAL.0>
40.6252

>  <SCORE.INTRA.POLAR>
-0.939831

>  <SCORE.INTRA.POLAR.0>
-1.20161

>  <SCORE.INTRA.REPUL>
0.083415

>  <SCORE.INTRA.REPUL.0>
0.115675

>  <SCORE.INTRA.SOLV>
-2.40833

>  <SCORE.INTRA.SOLV.lig_0>
-154.895

>  <SCORE.INTRA.VDW>
-4.32085

>  <SCORE.INTRA.VDW.0>
2.2925

>  <SCORE.INTRA.norm>
-0.242295

>  <SCORE.RESTR>
1.83129

>  <SCORE.RESTR.CAVITY>
1.83129

>  <SCORE.RESTR.norm>
0.0436022

>  <SCORE.SYSTEM>
0

>  <SCORE.SYSTEM.CONST>
0

>  <SCORE.SYSTEM.DIHEDRAL>
0

>  <SCORE.SYSTEM.SOLV>
0

>  <SCORE.SYSTEM.norm>
0

>  <SCORE.heavy>
42

>  <SCORE.norm>
-1.29435

>  <RMSD>
13.769

$$$$

 OpenBabel11021811413D
libRbt.so/2013.1/901 2013/11/27
 42 45  0  0  0  0  0  0  0  0999 V2000
   -6.5585   -6.5028   -1.6464 O   0  0  0  0  0  0  0  0  0  0  0  0
   -5.3427   -6.4279   -0.9157 C   0  0  0  0  0  0  0  0  0  0  0  0
   -5.5567   -5.6182    0.3638 C   0  0  1  0  0  0  0  0  0  0  0  0
   -5.1351   -6.3583    1.5301 O   0  0  0  0  0  0  0  0  0  0  0  0
   -4.7711   -4.3177    0.3934 C   0  0  2  0  0  0  0  0  0  0  0  0
   -4.7752   -4.0255    1.8845 C   0  0  1  0  0  0  0  0  0  0  0  0
   -6.0432   -3.5057    2.2692 O   0  0  0  0  0  0  0  0  0  0  0  0
   -4.5775   -5.4287    2.4933 C   0  0  2  0  0  0  0  0  0  0  0  0
   -4.1533   -1.1483   -3.0476 C   0  0  2  0  0  0  0  0  0  0  0  0
   -5.0793   -1.9419   -2.2898 O   0  0  0  0  0  0  0  0  0  0  0  0
   -4.4887   -2.4470   -1.0786 C   0  0  2  0  0  0  0  0  0  0  0  0
   -5.4253   -3.2862   -0.3714 O   0  0  0  0  0  0  0  0  0  0  0  0
   -4.0227   -1.2900   -0.1783 C   0  0  2  0  0  0  0  0  0  0  0  0
   -5.1522   -0.6716    0.4913 N   0  3  0  0  0  0  0  0  0  0  0  0
   -3.2025   -0.2365   -0.9320 C   0  0  1  0  0  0  0  0  0  0  0  0
   -1.8837   -0.7203   -1.1310 O   0  0  0  0  0  0  0  0  0  0  0  0
   -3.8230    0.1247   -2.2789 C   0  0  2  0  0  0  0  0  0  0  0  0
   -5.0017    0.8961   -2.0792 O   0  0  0  0  0  0  0  0  0  0  0  0
   -4.7270   -0.8192   -4.4229 C   0  0  0  0  0  0  0  0  0  0  0  0
   -6.1222   -0.4373   -4.3116 N   0  3  0  0  0  0  0  0  0  0  0  0
   -1.3377   -4.3057    3.9286 C   0  0  1  0  0  0  0  0  0  0  0  0
   -1.0337   -5.6384    4.3908 O   0  0  0  0  0  0  0  0  0  0  0  0
   -1.5647   -5.9238    5.7054 C   0  0  2  0  0  0  0  0  0  0  0  0
   -3.0137   -5.9340    5.7158 O   0  0  0  0  0  0  0  0  0  0  0  0
   -1.0113   -4.9345    6.7382 C   0  0  2  0  0  0  0  0  0  0  0  0
   -1.7074   -5.0958    8.0012 N   0  3  0  0  0  0  0  0  0  0  0  0
   -1.1519   -3.4906    6.2694 C   0  0  1  0  0  0  0  0  0  0  0  0
   -0.4227   -2.6340    7.1347 O   0  0  0  0  0  0  0  0  0  0  0  0
   -0.6860   -3.2764    4.8375 C   0  0  2  0  0  0  0  0  0  0  0  0
   -1.0155   -1.9655    4.4022 O   0  0  0  0  0  0  0  0  0  0  0  0
   -0.7808   -4.1008    2.5227 C   0  0  0  0  0  0  0  0  0  0  0  0
   -0.5600   -5.3763    1.8662 N   0  3  0  0  0  0  0  0  0  0  0  0
   -2.9192   -9.4250    3.2861 C   0  0  2  0  0  0  0  0  0  0  0  0
   -3.8397   -9.4206    4.4906 C   0  0  0  0  0  0  0  0  0  0  0  0
   -3.4599   -8.3043    5.4458 C   0  0  1  0  0  0  0  0  0  0  0  0
   -3.5761   -6.9186    4.8093 C   0  0  2  0  0  0  0  0  0  0  0  0
   -2.8362   -6.8690    3.4525 C   0  0  1  0  0  0  0  0  0  0  0  0
   -2.9942   -8.0966    2.5456 C   0  0  1  0  0  0  0  0  0  0  0  0
   -3.2992  -10.5030    2.3931 N   0  3  0  0  0  0  0  0  0  0  0  0
   -4.2928   -8.3930    6.6293 N   0  3  0  0  0  0  0  0  0  0  0  0
   -3.1573   -5.6636    2.7157 O   0  0  0  0  0  0  0  0  0  0  0  0
   -2.0113   -8.0648    1.5160 O   0  0  0  0  0  0  0  0  0  0  0  0
  1  2  1  0  0  0  0
  3  2  1  6  0  0  0
  3  4  1  0  0  0  0
  3  5  1  0  0  0  0
  4  8  1  0  0  0  0
  5  6  1  0  0  0  0
  5 12  1  6  0  0  0
  6  7  1  1  0  0  0
  6  8  1  0  0  0  0
  8 41  1  6  0  0  0
  9 10  1  0  0  0  0
  9 17  1  0  0  0  0
  9 19  1  6  0  0  0
 10 11  1  0  0  0  0
 11 12  1  1  0  0  0
 11 13  1  0  0  0  0
 13 14  1  6  0  0  0
 13 15  1  0  0  0  0
 15 16  1  6  0  0  0
 15 17  1  0  0  0  0
 17 18  1  1  0  0  0
 19 20  1  0  0  0  0
 21 22  1  0  0  0  0
 21 29  1  0  0  0  0
 21 31  1  6  0  0  0
 22 23  1  0  0  0  0
 23 24  1  6  0  0  0
 23 25  1  0  0  0  0
 25 26  1  1  0  0  0
 25 27  1  0  0  0  0
 27 28  1  1  0  0  0
 27 29  1  0  0  0  0
 29 30  1  6  0  0  0
 31 32  1  0  0  0  0
 33 34  1  0  0  0  0
 33 38  1  0  0  0  0
 33 39  1  6  0  0  0
 34 35  1  0  0  0  0
 35 36  1  0  0  0  0
 35 40  1  1  0  0  0
 36 24  1  1  0  0  0
 36 37  1  0  0  0  0
 37 38  1  0  0  0  0
 37 41  1  6  0  0  0
 38 42  1  6  0  0  0
M  CHG  6  14   1  20   1  26   1  32   1  39   1  40   1
M  END
>  <CHROM.1>
-55.26239118,125.99742333,-142.66852820,-30.04841004,-71.22657855,43.29105771
150.09654580,160.45918500,68.52720934,-135.89213033,51.21925468,21.05000386
59.25055121,77.22750694,15.94467030,62.61653098,57.79862963,-174.11297393
-166.70025453,51.64948328,-54.81469644,-47.60825899,-3.41149784,-4.46949336
1.97736084,2.07524108,-1.00780846,-0.49460998

>  <Name>


>  <RI>
0

>  <Rbt.Current_Directory>
/home/itssahil/PROJECTS/Mol_Feturizer/New_Systems/rnas/1qd3

>  <Rbt.Executable>
rbdock ($Id: //depot/dev/client3/rdock/2013.1/src/exe/rbdock.cxx#4 $)

>  <Rbt.Library>
libRbt.so (2013.1, Build901 2013/11/27)

>  <Rbt.Parameter_File>
/export/apps/rDock/src/rDock_2013.1_src/data/scripts/dock_solv.prm

>  <Rbt.Receptor>
prm/blind_docking_20.prm

>  <SCORE>
-42.0155

>  <SCORE.INTER>
-38.4053

>  <SCORE.INTER.CONST>
1

>  <SCORE.INTER.POLAR>
-6.52119

>  <SCORE.INTER.ROT>
9

>  <SCORE.INTER.SOLV>
29.5262

>  <SCORE.INTER.VDW>
-23.3083

>  <SCORE.INTER.norm>
-0.914412

>  <SCORE.INTRA>
-6.09232

>  <SCORE.INTRA.DIHEDRAL>
-2.08117

>  <SCORE.INTRA.DIHEDRAL.0>
40.6252

>  <SCORE.INTRA.POLAR>
-0.584911

>  <SCORE.INTRA.POLAR.0>
-1.20161

>  <SCORE.INTRA.REPUL>
0.051395

>  <SCORE.INTRA.REPUL.0>
0.115675

>  <SCORE.INTRA.SOLV>
-4.71165

>  <SCORE.INTRA.SOLV.lig_0>
-154.895

>  <SCORE.INTRA.VDW>
-0.964188

>  <SCORE.INTRA.VDW.0>
2.2925

>  <SCORE.INTRA.norm>
-0.145055

>  <SCORE.RESTR>
2.48211

>  <SCORE.RESTR.CAVITY>
2.48211

>  <SCORE.RESTR.norm>
0.0590979

>  <SCORE.SYSTEM>
0

>  <SCORE.SYSTEM.CONST>
0

>  <SCORE.SYSTEM.DIHEDRAL>
0

>  <SCORE.SYSTEM.SOLV>
0

>  <SCORE.SYSTEM.norm>
0

>  <SCORE.heavy>
42

>  <SCORE.norm>
-1.00037

>  <RMSD>
13.771

$$$$

 OpenBabel11021811413D
libRbt.so/2013.1/901 2013/11/27
 42 45  0  0  0  0  0  0  0  0999 V2000
   -6.3174   -8.4525   -2.0278 O   0  0  0  0  0  0  0  0  0  0  0  0
   -5.2672   -8.9294   -1.1986 C   0  0  0  0  0  0  0  0  0  0  0  0
   -4.1303   -7.9074   -1.1641 C   0  0  1  0  0  0  0  0  0  0  0  0
   -4.5537   -6.6328   -1.6949 O   0  0  0  0  0  0  0  0  0  0  0  0
   -3.6183   -7.6215    0.2379 C   0  0  2  0  0  0  0  0  0  0  0  0
   -2.9209   -6.2905    0.0121 C   0  0  1  0  0  0  0  0  0  0  0  0
   -1.6654   -6.5069   -0.6225 O   0  0  0  0  0  0  0  0  0  0  0  0
   -3.8834   -5.5778   -0.9597 C   0  0  2  0  0  0  0  0  0  0  0  0
   -2.7782   -7.3783    4.1163 C   0  0  2  0  0  0  0  0  0  0  0  0
   -3.2296   -7.6715    2.7853 O   0  0  0  0  0  0  0  0  0  0  0  0
   -2.2532   -8.4203    2.0392 C   0  0  2  0  0  0  0  0  0  0  0  0
   -2.7129   -8.6473    0.6906 O   0  0  0  0  0  0  0  0  0  0  0  0
   -1.9501   -9.7595    2.7328 C   0  0  2  0  0  0  0  0  0  0  0  0
   -3.0234  -10.7102    2.5080 N   0  3  0  0  0  0  0  0  0  0  0  0
   -1.6718   -9.6084    4.2329 C   0  0  1  0  0  0  0  0  0  0  0  0
   -0.3530   -9.1199    4.4203 O   0  0  0  0  0  0  0  0  0  0  0  0
   -2.6654   -8.6712    4.9140 C   0  0  2  0  0  0  0  0  0  0  0  0
   -3.9382   -9.2999    5.0104 O   0  0  0  0  0  0  0  0  0  0  0  0
   -3.7257   -6.3979    4.8018 C   0  0  0  0  0  0  0  0  0  0  0  0
   -3.8044   -5.1596    4.0498 N   0  3  0  0  0  0  0  0  0  0  0  0
   -4.2699    0.4460    1.4966 C   0  0  1  0  0  0  0  0  0  0  0  0
   -4.3137    0.5329    0.0569 O   0  0  0  0  0  0  0  0  0  0  0  0
   -3.9608   -0.7048   -0.6026 C   0  0  2  0  0  0  0  0  0  0  0  0
   -4.9268   -1.7533   -0.3433 O   0  0  0  0  0  0  0  0  0  0  0  0
   -2.5468   -1.1451   -0.2047 C   0  0  2  0  0  0  0  0  0  0  0  0
   -2.2866   -2.4836   -0.7012 N   0  3  0  0  0  0  0  0  0  0  0  0
   -2.3532   -1.1252    1.3074 C   0  0  1  0  0  0  0  0  0  0  0  0
   -0.9799   -1.3068    1.6160 O   0  0  0  0  0  0  0  0  0  0  0  0
   -2.8516    0.1553    1.9595 C   0  0  2  0  0  0  0  0  0  0  0  0
   -2.8169    0.0348    3.3740 O   0  0  0  0  0  0  0  0  0  0  0  0
   -4.6950    1.7756    2.1133 C   0  0  0  0  0  0  0  0  0  0  0  0
   -3.7881    2.8382    1.7195 N   0  3  0  0  0  0  0  0  0  0  0  0
   -7.1730   -4.0663   -3.1189 C   0  0  2  0  0  0  0  0  0  0  0  0
   -6.3557   -2.9075   -3.6549 C   0  0  0  0  0  0  0  0  0  0  0  0
   -5.9599   -1.9705   -2.5288 C   0  0  1  0  0  0  0  0  0  0  0  0
   -5.0950   -2.6544   -1.4690 C   0  0  2  0  0  0  0  0  0  0  0  0
   -5.7430   -3.9756   -0.9942 C   0  0  1  0  0  0  0  0  0  0  0  0
   -6.3808   -4.8504   -2.0815 C   0  0  1  0  0  0  0  0  0  0  0  0
   -7.5428   -4.9424   -4.2142 N   0  3  0  0  0  0  0  0  0  0  0  0
   -5.2690   -0.8256   -3.0892 N   0  3  0  0  0  0  0  0  0  0  0  0
   -4.8226   -4.7638   -0.2002 O   0  0  0  0  0  0  0  0  0  0  0  0
   -7.2177   -5.8329   -1.4803 O   0  0  0  0  0  0  0  0  0  0  0  0
  1  2  1  0  0  0  0
  3  2  1  1  0  0  0
  3  4  1  0  0  0  0
  3  5  1  0  0  0  0
  4  8  1  0  0  0  0
  5  6  1  0  0  0  0
  5 12  1  6  0  0  0
  6  7  1  6  0  0  0
  6  8  1  0  0  0  0
  8 41  1  1  0  0  0
  9 10  1  0  0  0  0
  9 17  1  0  0  0  0
  9 19  1  1  0  0  0
 10 11  1  0  0  0  0
 11 12  1  6  0  0  0
 11 13  1  0  0  0  0
 13 14  1  1  0  0  0
 13 15  1  0  0  0  0
 15 16  1  6  0  0  0
 15 17  1  0  0  0  0
 17 18  1  6  0  0  0
 19 20  1  0  0  0  0
 21 22  1  0  0  0  0
 21 29  1  0  0  0  0
 21 31  1  1  0  0  0
 22 23  1  0  0  0  0
 23 24  1  1  0  0  0
 23 25  1  0  0  0  0
 25 26  1  1  0  0  0
 25 27  1  0  0  0  0
 27 28  1  6  0  0  0
 27 29  1  0  0  0  0
 29 30  1  1  0  0  0
 31 32  1  0  0  0  0
 33 34  1  0  0  0  0
 33 38  1  0  0  0  0
 33 39  1  6  0  0  0
 34 35  1  0  0  0  0
 35 36  1  0  0  0  0
 35 40  1  6  0  0  0
 36 24  1  1  0  0  0
 36 37  1  0  0  0  0
 37 38  1  0  0  0  0
 37 41  1  6  0  0  0
 38 42  1  1  0  0  0
M  CHG  6  14   1  20   1  26   1  32   1  39   1  40   1
M  END
>  <CHROM.1>
63.71631944,13.96530267,-177.86688465,-168.17390430,-66.43196527,-59.40452597
27.55069805,-90.06697100,-167.87987225,-55.23300530,120.80198169,-61.66433380
146.33705565,-76.96196385,67.28634895,-6.38496157,173.88093929,52.98378090
-44.87063293,-66.13185388,-82.48930113,162.46846084,-3.94083746,-4.72112093
0.57169802,1.23737758,1.03354528,3.09544426

>  <Name>


>  <RI>
0

>  <Rbt.Current_Directory>
/home/itssahil/PROJECTS/Mol_Feturizer/New_Systems/rnas/1qd3

>  <Rbt.Executable>
rbdock ($Id: //depot/dev/client3/rdock/2013.1/src/exe/rbdock.cxx#4 $)

>  <Rbt.Library>
libRbt.so (2013.1, Build901 2013/11/27)

>  <Rbt.Parameter_File>
/export/apps/rDock/src/rDock_2013.1_src/data/scripts/dock_solv.prm

>  <Rbt.Receptor>
prm/blind_docking_80.prm

>  <SCORE>
-64.6215

>  <SCORE.INTER>
-57.5535

>  <SCORE.INTER.CONST>
1

>  <SCORE.INTER.POLAR>
-7.49333

>  <SCORE.INTER.ROT>
9

>  <SCORE.INTER.SOLV>
29.7662

>  <SCORE.INTER.VDW>
-32.9133

>  <SCORE.INTER.norm>
-1.37032

>  <SCORE.INTRA>
-8.32352

>  <SCORE.INTRA.DIHEDRAL>
-5.48265

>  <SCORE.INTRA.DIHEDRAL.0>
40.6252

>  <SCORE.INTRA.POLAR>
0.0919455

>  <SCORE.INTRA.POLAR.0>
-1.20161

>  <SCORE.INTRA.REPUL>
-0.115675

>  <SCORE.INTRA.REPUL.0>
0.115675

>  <SCORE.INTRA.SOLV>
-4.49887

>  <SCORE.INTRA.SOLV.lig_0>
-154.895

>  <SCORE.INTRA.VDW>
-3.067

>  <SCORE.INTRA.VDW.0>
2.2925

>  <SCORE.INTRA.norm>
-0.198179

>  <SCORE.RESTR>
1.25553

>  <SCORE.RESTR.CAVITY>
1.25553

>  <SCORE.RESTR.norm>
0.0298935

>  <SCORE.SYSTEM>
0

>  <SCORE.SYSTEM.CONST>
0

>  <SCORE.SYSTEM.DIHEDRAL>
0

>  <SCORE.SYSTEM.SOLV>
0

>  <SCORE.SYSTEM.norm>
0

>  <SCORE.heavy>
42

>  <SCORE.norm>
-1.53861

>  <RMSD>
13.777

$$$$

 OpenBabel11021811413D
libRbt.so/2013.1/901 2013/11/27
 42 45  0  0  0  0  0  0  0  0999 V2000
   -5.9053   -8.0891   -1.0396 O   0  0  0  0  0  0  0  0  0  0  0  0
   -4.5720   -8.4136   -1.4067 C   0  0  0  0  0  0  0  0  0  0  0  0
   -3.7254   -7.1413   -1.4597 C   0  0  1  0  0  0  0  0  0  0  0  0
   -4.3606   -6.1210   -2.2605 O   0  0  0  0  0  0  0  0  0  0  0  0
   -3.4955   -6.5122   -0.0956 C   0  0  2  0  0  0  0  0  0  0  0  0
   -3.1087   -5.1005   -0.5031 C   0  0  1  0  0  0  0  0  0  0  0  0
   -1.7620   -5.0848   -0.9636 O   0  0  0  0  0  0  0  0  0  0  0  0
   -4.0679   -4.8252   -1.6790 C   0  0  2  0  0  0  0  0  0  0  0  0
   -3.8869   -7.3453    3.9806 C   0  0  2  0  0  0  0  0  0  0  0  0
   -3.7347   -7.5821    2.5726 O   0  0  0  0  0  0  0  0  0  0  0  0
   -2.5374   -6.9770    2.0520 C   0  0  2  0  0  0  0  0  0  0  0  0
   -2.4450   -7.1838    0.6272 O   0  0  0  0  0  0  0  0  0  0  0  0
   -1.2925   -7.5438    2.7559 C   0  0  2  0  0  0  0  0  0  0  0  0
   -0.9790   -8.8707    2.2582 N   0  3  0  0  0  0  0  0  0  0  0  0
   -1.4224   -7.5599    4.2835 C   0  0  1  0  0  0  0  0  0  0  0  0
   -1.2115   -6.2508    4.7879 O   0  0  0  0  0  0  0  0  0  0  0  0
   -2.7854   -8.0709    4.7426 C   0  0  2  0  0  0  0  0  0  0  0  0
   -2.8782   -9.4733    4.5205 O   0  0  0  0  0  0  0  0  0  0  0  0
   -5.2648   -7.7969    4.4561 C   0  0  0  0  0  0  0  0  0  0  0  0
   -6.2657   -7.5223    3.4424 N   0  3  0  0  0  0  0  0  0  0  0  0
   -5.0116    1.5736    0.0759 C   0  0  1  0  0  0  0  0  0  0  0  0
   -4.1531    1.0961   -0.9809 O   0  0  0  0  0  0  0  0  0  0  0  0
   -3.7574   -0.2852   -0.8175 C   0  0  2  0  0  0  0  0  0  0  0  0
   -4.8844   -1.1897   -0.9250 O   0  0  0  0  0  0  0  0  0  0  0  0
   -3.0158   -0.4815    0.5104 C   0  0  2  0  0  0  0  0  0  0  0  0
   -2.8120   -1.8964    0.7596 N   0  3  0  0  0  0  0  0  0  0  0  0
   -3.7803    0.1283    1.6801 C   0  0  1  0  0  0  0  0  0  0  0  0
   -2.9584    0.1344    2.8371 O   0  0  0  0  0  0  0  0  0  0  0  0
   -4.2731    1.5405    1.4040 C   0  0  2  0  0  0  0  0  0  0  0  0
   -5.1307    1.9769    2.4483 O   0  0  0  0  0  0  0  0  0  0  0  0
   -5.4161    3.0202   -0.1931 C   0  0  0  0  0  0  0  0  0  0  0  0
   -6.5925    3.0758   -1.0415 N   0  3  0  0  0  0  0  0  0  0  0  0
   -6.6696   -2.7829   -4.4427 C   0  0  2  0  0  0  0  0  0  0  0  0
   -5.5799   -1.7418   -4.6063 C   0  0  0  0  0  0  0  0  0  0  0  0
   -5.3485   -1.0048   -3.3001 C   0  0  1  0  0  0  0  0  0  0  0  0
   -4.8931   -1.9322   -2.1725 C   0  0  2  0  0  0  0  0  0  0  0  0
   -5.8297   -3.1564   -2.0505 C   0  0  1  0  0  0  0  0  0  0  0  0
   -6.2929   -3.7931   -3.3675 C   0  0  1  0  0  0  0  0  0  0  0  0
   -6.8749   -3.4679   -5.7047 N   0  3  0  0  0  0  0  0  0  0  0  0
   -4.3754    0.0476   -3.5188 N   0  3  0  0  0  0  0  0  0  0  0  0
   -5.2692   -4.1699   -1.1800 O   0  0  0  0  0  0  0  0  0  0  0  0
   -7.3917   -4.6644   -3.1212 O   0  0  0  0  0  0  0  0  0  0  0  0
  1  2  1  0  0  0  0
  3  2  1  1  0  0  0
  3  4  1  0  0  0  0
  3  5  1  0  0  0  0
  4  8  1  0  0  0  0
  5  6  1  0  0  0  0
  5 12  1  6  0  0  0
  6  7  1  6  0  0  0
  6  8  1  0  0  0  0
  8 41  1  1  0  0  0
  9 10  1  0  0  0  0
  9 17  1  0  0  0  0
  9 19  1  1  0  0  0
 10 11  1  0  0  0  0
 11 12  1  6  0  0  0
 11 13  1  0  0  0  0
 13 14  1  6  0  0  0
 13 15  1  0  0  0  0
 15 16  1  6  0  0  0
 15 17  1  0  0  0  0
 17 18  1  6  0  0  0
 19 20  1  0  0  0  0
 21 22  1  0  0  0  0
 21 29  1  0  0  0  0
 21 31  1  6  0  0  0
 22 23  1  0  0  0  0
 23 24  1  1  0  0  0
 23 25  1  0  0  0  0
 25 26  1  1  0  0  0
 25 27  1  0  0  0  0
 27 28  1  1  0  0  0
 27 29  1  0  0  0  0
 29 30  1  1  0  0  0
 31 32  1  0  0  0  0
 33 34  1  0  0  0  0
 33 38  1  0  0  0  0
 33 39  1  6  0  0  0
 34 35  1  0  0  0  0
 35 36  1  0  0  0  0
 35 40  1  6  0  0  0
 36 24  1  1  0  0  0
 36 37  1  0  0  0  0
 37 38  1  0  0  0  0
 37 41  1  1  0  0  0
 38 42  1  1  0  0  0
M  CHG  6  14   1  20   1  26   1  32   1  39   1  40   1
M  END
>  <CHROM.1>
-62.67975481,-50.80030857,-157.80009885,52.81140465,-100.05906435,-36.61259796
65.21352085,-179.62880785,56.14615931,177.25162766,156.38197510,86.44825812
106.61872029,-75.49960888,56.70159041,-58.55873761,-63.70585860,60.70806951
-147.20490979,162.79779004,-67.08125186,64.55761006,-4.20185238,-3.85856121
0.08910316,0.91229742,1.17771541,-2.99908049

>  <Name>


>  <RI>
0

>  <Rbt.Current_Directory>
/home/itssahil/PROJECTS/Mol_Feturizer/New_Systems/rnas/1qd3

>  <Rbt.Executable>
rbdock ($Id: //depot/dev/client3/rdock/2013.1/src/exe/rbdock.cxx#4 $)

>  <Rbt.Library>
libRbt.so (2013.1, Build901 2013/11/27)

>  <Rbt.Parameter_File>
/export/apps/rDock/src/rDock_2013.1_src/data/scripts/dock_solv.prm

>  <Rbt.Receptor>
prm/blind_docking_20.prm

>  <SCORE>
-58.6344

>  <SCORE.INTER>
-40.3717

>  <SCORE.INTER.CONST>
1

>  <SCORE.INTER.POLAR>
-4.20375

>  <SCORE.INTER.ROT>
9

>  <SCORE.INTER.SOLV>
29.9463

>  <SCORE.INTER.VDW>
-32.484

>  <SCORE.INTER.norm>
-0.96123

>  <SCORE.INTRA>
-18.7702

>  <SCORE.INTRA.DIHEDRAL>
-14.2576

>  <SCORE.INTRA.DIHEDRAL.0>
40.6252

>  <SCORE.INTRA.POLAR>
0.00764418

>  <SCORE.INTRA.POLAR.0>
-1.20161

>  <SCORE.INTRA.REPUL>
-0.115675

>  <SCORE.INTRA.REPUL.0>
0.115675

>  <SCORE.INTRA.SOLV>
-8.23745

>  <SCORE.INTRA.SOLV.lig_0>
-154.895

>  <SCORE.INTRA.VDW>
-6.97027

>  <SCORE.INTRA.VDW.0>
2.2925

>  <SCORE.INTRA.norm>
-0.44691

>  <SCORE.RESTR>
0.507465

>  <SCORE.RESTR.CAVITY>
0.507465

>  <SCORE.RESTR.norm>
0.0120825

>  <SCORE.SYSTEM>
0

>  <SCORE.SYSTEM.CONST>
0

>  <SCORE.SYSTEM.DIHEDRAL>
0

>  <SCORE.SYSTEM.SOLV>
0

>  <SCORE.SYSTEM.norm>
0

>  <SCORE.heavy>
42

>  <SCORE.norm>
-1.39606

>  <RMSD>
13.789

$$$$

 OpenBabel11021811413D
libRbt.so/2013.1/901 2013/11/27
 42 45  0  0  0  0  0  0  0  0999 V2000
   -6.2345   -8.7256   -1.8885 O   0  0  0  0  0  0  0  0  0  0  0  0
   -5.1161   -9.0182   -1.0631 C   0  0  0  0  0  0  0  0  0  0  0  0
   -4.2049   -7.7935   -0.9727 C   0  0  1  0  0  0  0  0  0  0  0  0
   -4.7050   -6.7062   -1.7811 O   0  0  0  0  0  0  0  0  0  0  0  0
   -4.0797   -7.2372    0.4360 C   0  0  2  0  0  0  0  0  0  0  0  0
   -3.5832   -5.8328    0.1361 C   0  0  1  0  0  0  0  0  0  0  0  0
   -2.1985   -5.8718   -0.1908 O   0  0  0  0  0  0  0  0  0  0  0  0
   -4.4060   -5.4547   -1.1124 C   0  0  2  0  0  0  0  0  0  0  0  0
   -3.1394   -8.2998    4.8649 C   0  0  2  0  0  0  0  0  0  0  0  0
   -3.1213   -8.6973    3.4853 O   0  0  0  0  0  0  0  0  0  0  0  0
   -3.1002   -7.5635    2.5994 C   0  0  2  0  0  0  0  0  0  0  0  0
   -3.1413   -7.9962    1.2237 O   0  0  0  0  0  0  0  0  0  0  0  0
   -1.8514   -6.7011    2.8510 C   0  0  2  0  0  0  0  0  0  0  0  0
   -0.6726   -7.3217    2.2750 N   0  3  0  0  0  0  0  0  0  0  0  0
   -1.6249   -6.3926    4.3357 C   0  0  1  0  0  0  0  0  0  0  0  0
   -2.5154   -5.3666    4.7446 O   0  0  0  0  0  0  0  0  0  0  0  0
   -1.8218   -7.6219    5.2185 C   0  0  2  0  0  0  0  0  0  0  0  0
   -0.7403   -8.5285    5.0367 O   0  0  0  0  0  0  0  0  0  0  0  0
   -3.3906   -9.5038    5.7683 C   0  0  0  0  0  0  0  0  0  0  0  0
   -4.4015   -9.1904    6.7606 N   0  3  0  0  0  0  0  0  0  0  0  0
   -4.1021    0.2413    1.3840 C   0  0  1  0  0  0  0  0  0  0  0  0
   -4.0340    0.3620   -0.0523 O   0  0  0  0  0  0  0  0  0  0  0  0
   -3.6470   -0.8651   -0.7125 C   0  0  2  0  0  0  0  0  0  0  0  0
   -4.6431   -1.9054   -0.5532 O   0  0  0  0  0  0  0  0  0  0  0  0
   -2.2733   -1.3347   -0.2184 C   0  0  2  0  0  0  0  0  0  0  0  0
   -1.9925   -2.6649   -0.7256 N   0  3  0  0  0  0  0  0  0  0  0  0
   -2.1962   -1.3524    1.3042 C   0  0  1  0  0  0  0  0  0  0  0  0
   -0.8530   -1.5607    1.7124 O   0  0  0  0  0  0  0  0  0  0  0  0
   -2.7272   -0.0803    1.9468 C   0  0  2  0  0  0  0  0  0  0  0  0
   -2.8028   -0.2339    3.3565 O   0  0  0  0  0  0  0  0  0  0  0  0
   -4.5566    1.5622    1.9982 C   0  0  0  0  0  0  0  0  0  0  0  0
   -5.6992    2.0967    1.2802 N   0  3  0  0  0  0  0  0  0  0  0  0
   -6.9350   -3.1708   -3.9067 C   0  0  2  0  0  0  0  0  0  0  0  0
   -5.6771   -2.3658   -4.1670 C   0  0  0  0  0  0  0  0  0  0  0  0
   -5.2201   -1.6689   -2.8988 C   0  0  1  0  0  0  0  0  0  0  0  0
   -4.8793   -2.6505   -1.7766 C   0  0  2  0  0  0  0  0  0  0  0  0
   -6.0257   -3.6657   -1.5623 C   0  0  1  0  0  0  0  0  0  0  0  0
   -6.6908   -4.2190   -2.8295 C   0  0  1  0  0  0  0  0  0  0  0  0
   -7.3535   -3.8212   -5.1338 N   0  3  0  0  0  0  0  0  0  0  0  0
   -4.0778   -0.8308   -3.2072 N   0  3  0  0  0  0  0  0  0  0  0  0
   -5.6159   -4.7561   -0.7009 O   0  0  0  0  0  0  0  0  0  0  0  0
   -7.9191   -4.8545   -2.4908 O   0  0  0  0  0  0  0  0  0  0  0  0
  1  2  1  0  0  0  0
  3  2  1  1  0  0  0
  3  4  1  0  0  0  0
  3  5  1  0  0  0  0
  4  8  1  0  0  0  0
  5  6  1  0  0  0  0
  5 12  1  1  0  0  0
  6  7  1  6  0  0  0
  6  8  1  0  0  0  0
  8 41  1  1  0  0  0
  9 10  1  0  0  0  0
  9 17  1  0  0  0  0
  9 19  1  1  0  0  0
 10 11  1  0  0  0  0
 11 12  1  6  0  0  0
 11 13  1  0  0  0  0
 13 14  1  1  0  0  0
 13 15  1  0  0  0  0
 15 16  1  1  0  0  0
 15 17  1  0  0  0  0
 17 18  1  6  0  0  0
 19 20  1  0  0  0  0
 21 22  1  0  0  0  0
 21 29  1  0  0  0  0
 21 31  1  1  0  0  0
 22 23  1  0  0  0  0
 23 24  1  1  0  0  0
 23 25  1  0  0  0  0
 25 26  1  1  0  0  0
 25 27  1  0  0  0  0
 27 28  1  6  0  0  0
 27 29  1  0  0  0  0
 29 30  1  1  0  0  0
 31 32  1  0  0  0  0
 33 34  1  0  0  0  0
 33 38  1  0  0  0  0
 33 39  1  6  0  0  0
 34 35  1  0  0  0  0
 35 36  1  0  0  0  0
 35 40  1  6  0  0  0
 36 24  1  1  0  0  0
 36 37  1  0  0  0  0
 37 38  1  0  0  0  0
 37 41  1  6  0  0  0
 38 42  1  1  0  0  0
M  CHG  6  14   1  20   1  26   1  32   1  39   1  40   1
M  END
>  <CHROM.1>
57.04272940,-2.00413650,-174.55756456,-46.68353016,-100.82184030,-133.41470682
134.62602660,-138.80875728,177.49089796,54.77864815,163.77995033,46.28451063
137.62187749,-53.83847495,55.29581136,-153.48470837,175.13480615,78.23372214
-69.92808807,34.85626657,-53.74758186,-176.38839332,-3.89439430,-4.47854089
0.60511419,0.99550630,1.06696771,2.96812207

>  <Name>


>  <RI>
0

>  <Rbt.Current_Directory>
/home/itssahil/PROJECTS/Mol_Feturizer/New_Systems/rnas/1qd3

>  <Rbt.Executable>
rbdock ($Id: //depot/dev/client3/rdock/2013.1/src/exe/rbdock.cxx#4 $)

>  <Rbt.Library>
libRbt.so (2013.1, Build901 2013/11/27)

>  <Rbt.Parameter_File>
/export/apps/rDock/src/rDock_2013.1_src/data/scripts/dock_solv.prm

>  <Rbt.Receptor>
prm/blind_docking_40.prm

>  <SCORE>
-62.0823

>  <SCORE.INTER>
-65.7796

>  <SCORE.INTER.CONST>
1

>  <SCORE.INTER.POLAR>
-9.73638

>  <SCORE.INTER.ROT>
9

>  <SCORE.INTER.SOLV>
39.1316

>  <SCORE.INTER.VDW>
-34.0423

>  <SCORE.INTER.norm>
-1.56618

>  <SCORE.INTRA>
-3.196

>  <SCORE.INTRA.DIHEDRAL>
-1.65186

>  <SCORE.INTRA.DIHEDRAL.0>
40.6252

>  <SCORE.INTRA.POLAR>
1.1566

>  <SCORE.INTRA.POLAR.0>
-1.20161

>  <SCORE.INTRA.REPUL>
-0.0180531

>  <SCORE.INTRA.REPUL.0>
0.115675

>  <SCORE.INTRA.SOLV>
-6.98452

>  <SCORE.INTRA.SOLV.lig_0>
-154.895

>  <SCORE.INTRA.VDW>
-2.71997

>  <SCORE.INTRA.VDW.0>
2.2925

>  <SCORE.INTRA.norm>
-0.0760953

>  <SCORE.RESTR>
6.89334

>  <SCORE.RESTR.CAVITY>
6.89334

>  <SCORE.RESTR.norm>
0.164127

>  <SCORE.SYSTEM>
0

>  <SCORE.SYSTEM.CONST>
0

>  <SCORE.SYSTEM.DIHEDRAL>
0

>  <SCORE.SYSTEM.SOLV>
0

>  <SCORE.SYSTEM.norm>
0

>  <SCORE.heavy>
42

>  <SCORE.norm>
-1.47815

>  <RMSD>
13.809

$$$$

 OpenBabel11021811413D
libRbt.so/2013.1/901 2013/11/27
 42 45  0  0  0  0  0  0  0  0999 V2000
   -5.9170   -7.8202   -2.0232 O   0  0  0  0  0  0  0  0  0  0  0  0
   -4.7301   -8.3139   -1.4189 C   0  0  0  0  0  0  0  0  0  0  0  0
   -4.7862   -8.0878    0.0925 C   0  0  1  0  0  0  0  0  0  0  0  0
   -3.6938   -8.7526    0.7637 O   0  0  0  0  0  0  0  0  0  0  0  0
   -4.6843   -6.6240    0.4878 C   0  0  2  0  0  0  0  0  0  0  0  0
   -4.2676   -6.7583    1.9429 C   0  0  1  0  0  0  0  0  0  0  0  0
   -5.3971   -7.1050    2.7365 O   0  0  0  0  0  0  0  0  0  0  0  0
   -3.2797   -7.9415    1.8922 C   0  0  2  0  0  0  0  0  0  0  0  0
   -7.6173   -4.4618   -2.5539 C   0  0  2  0  0  0  0  0  0  0  0  0
   -7.4556   -5.0620   -1.2596 O   0  0  0  0  0  0  0  0  0  0  0  0
   -6.0707   -5.2898   -0.9419 C   0  0  2  0  0  0  0  0  0  0  0  0
   -5.9469   -5.9456    0.3373 O   0  0  0  0  0  0  0  0  0  0  0  0
   -5.2890   -3.9650   -0.9408 C   0  0  2  0  0  0  0  0  0  0  0  0
   -5.5627   -3.2066    0.2660 N   0  3  0  0  0  0  0  0  0  0  0  0
   -5.5565   -3.1097   -2.1849 C   0  0  1  0  0  0  0  0  0  0  0  0
   -4.8261   -3.6337   -3.2825 O   0  0  0  0  0  0  0  0  0  0  0  0
   -7.0400   -3.0522   -2.5390 C   0  0  2  0  0  0  0  0  0  0  0  0
   -7.7344   -2.2484   -1.5923 O   0  0  0  0  0  0  0  0  0  0  0  0
   -9.0889   -4.4421   -2.9575 C   0  0  0  0  0  0  0  0  0  0  0  0
   -9.5649   -5.7903   -3.2036 N   0  3  0  0  0  0  0  0  0  0  0  0
   -2.6241   -1.9383    2.2911 C   0  0  1  0  0  0  0  0  0  0  0  0
   -3.4763   -3.0905    2.4593 O   0  0  0  0  0  0  0  0  0  0  0  0
   -2.8473   -4.3309    2.0627 C   0  0  2  0  0  0  0  0  0  0  0  0
   -1.7263   -4.6690    2.9163 O   0  0  0  0  0  0  0  0  0  0  0  0
   -2.4235   -4.2752    0.5899 C   0  0  2  0  0  0  0  0  0  0  0  0
   -1.6116   -5.4329    0.2639 N   0  3  0  0  0  0  0  0  0  0  0  0
   -1.6374   -3.0072    0.2756 C   0  0  1  0  0  0  0  0  0  0  0  0
   -1.4727   -2.8826   -1.1285 O   0  0  0  0  0  0  0  0  0  0  0  0
   -2.2897   -1.7461    0.8209 C   0  0  2  0  0  0  0  0  0  0  0  0
   -1.4223   -0.6331    0.6611 O   0  0  0  0  0  0  0  0  0  0  0  0
   -3.3447   -0.6814    2.7703 C   0  0  0  0  0  0  0  0  0  0  0  0
   -4.4578   -0.3618    1.8954 N   0  3  0  0  0  0  0  0  0  0  0  0
   -0.5087   -8.0354    5.2153 C   0  0  2  0  0  0  0  0  0  0  0  0
   -1.3925   -6.9999    5.8822 C   0  0  0  0  0  0  0  0  0  0  0  0
   -1.3945   -5.7093    5.0839 C   0  0  1  0  0  0  0  0  0  0  0  0
   -1.9397   -5.8932    3.6669 C   0  0  2  0  0  0  0  0  0  0  0  0
   -1.2431   -7.0760    2.9551 C   0  0  1  0  0  0  0  0  0  0  0  0
   -0.9959   -8.3307    3.8031 C   0  0  1  0  0  0  0  0  0  0  0  0
   -0.5196   -9.2554    5.9997 N   0  3  0  0  0  0  0  0  0  0  0  0
   -2.1655   -4.7127    5.8013 N   0  3  0  0  0  0  0  0  0  0  0  0
   -1.9246   -7.4335    1.7277 O   0  0  0  0  0  0  0  0  0  0  0  0
   -0.0659   -9.1829    3.1428 O   0  0  0  0  0  0  0  0  0  0  0  0
  1  2  1  0  0  0  0
  3  2  1  6  0  0  0
  3  4  1  0  0  0  0
  3  5  1  0  0  0  0
  4  8  1  0  0  0  0
  5  6  1  0  0  0  0
  5 12  1  1  0  0  0
  6  7  1  1  0  0  0
  6  8  1  0  0  0  0
  8 41  1  6  0  0  0
  9 10  1  0  0  0  0
  9 17  1  0  0  0  0
  9 19  1  1  0  0  0
 10 11  1  0  0  0  0
 11 12  1  1  0  0  0
 11 13  1  0  0  0  0
 13 14  1  1  0  0  0
 13 15  1  0  0  0  0
 15 16  1  6  0  0  0
 15 17  1  0  0  0  0
 17 18  1  1  0  0  0
 19 20  1  0  0  0  0
 21 22  1  0  0  0  0
 21 29  1  0  0  0  0
 21 31  1  6  0  0  0
 22 23  1  0  0  0  0
 23 24  1  1  0  0  0
 23 25  1  0  0  0  0
 25 26  1  1  0  0  0
 25 27  1  0  0  0  0
 27 28  1  6  0  0  0
 27 29  1  0  0  0  0
 29 30  1  1  0  0  0
 31 32  1  0  0  0  0
 33 34  1  0  0  0  0
 33 38  1  0  0  0  0
 33 39  1  1  0  0  0
 34 35  1  0  0  0  0
 35 36  1  0  0  0  0
 35 40  1  1  0  0  0
 36 24  1  6  0  0  0
 36 37  1  0  0  0  0
 37 38  1  0  0  0  0
 37 41  1  6  0  0  0
 38 42  1  6  0  0  0
M  CHG  6  14   1  20   1  26   1  32   1  39   1  40   1
M  END
>  <CHROM.1>
175.86510639,171.38007352,-94.07952210,58.06040936,-157.03081870,-68.48111633
158.77509364,-161.37425217,56.79192067,-59.98784535,-166.53756325,-68.07478387
115.81566566,-139.97346210,51.65822156,-175.51056985,-156.57836185,58.43912143
-169.51895541,49.82631493,-64.54566981,67.60047424,-3.83396830,-5.16485599
0.99702051,2.69183737,-0.79081579,-0.14668681

>  <Name>


>  <RI>
0

>  <Rbt.Current_Directory>
/home/itssahil/PROJECTS/Mol_Feturizer/New_Systems/rnas/1qd3

>  <Rbt.Executable>
rbdock ($Id: //depot/dev/client3/rdock/2013.1/src/exe/rbdock.cxx#4 $)

>  <Rbt.Library>
libRbt.so (2013.1, Build901 2013/11/27)

>  <Rbt.Parameter_File>
/export/apps/rDock/src/rDock_2013.1_src/data/scripts/dock_solv.prm

>  <Rbt.Receptor>
prm/blind_docking_40.prm

>  <SCORE>
-39.9356

>  <SCORE.INTER>
-25.0078

>  <SCORE.INTER.CONST>
1

>  <SCORE.INTER.POLAR>
-4.01041

>  <SCORE.INTER.ROT>
9

>  <SCORE.INTER.SOLV>
25.9655

>  <SCORE.INTER.VDW>
-21.559

>  <SCORE.INTER.norm>
-0.595424

>  <SCORE.INTRA>
-17.4689

>  <SCORE.INTRA.DIHEDRAL>
-11.2494

>  <SCORE.INTRA.DIHEDRAL.0>
40.6252

>  <SCORE.INTRA.POLAR>
-0.732116

>  <SCORE.INTRA.POLAR.0>
-1.20161

>  <SCORE.INTRA.REPUL>
-0.115675

>  <SCORE.INTRA.REPUL.0>
0.115675

>  <SCORE.INTRA.SOLV>
2.70512

>  <SCORE.INTRA.SOLV.lig_0>
-154.895

>  <SCORE.INTRA.VDW>
-10.1293

>  <SCORE.INTRA.VDW.0>
2.2925

>  <SCORE.INTRA.norm>
-0.415927

>  <SCORE.RESTR>
2.54117

>  <SCORE.RESTR.CAVITY>
2.54117

>  <SCORE.RESTR.norm>
0.060504

>  <SCORE.SYSTEM>
0

>  <SCORE.SYSTEM.CONST>
0

>  <SCORE.SYSTEM.DIHEDRAL>
0

>  <SCORE.SYSTEM.SOLV>
0

>  <SCORE.SYSTEM.norm>
0

>  <SCORE.heavy>
42

>  <SCORE.norm>
-0.950847

>  <RMSD>
13.816

$$$$

 OpenBabel11021811413D
libRbt.so/2013.1/901 2013/11/27
 42 45  0  0  0  0  0  0  0  0999 V2000
   -2.9938    1.3687    1.4575 O   0  0  0  0  0  0  0  0  0  0  0  0
   -3.6272    0.2268    2.0166 C   0  0  0  0  0  0  0  0  0  0  0  0
   -2.8034   -1.0244    1.7095 C   0  0  1  0  0  0  0  0  0  0  0  0
   -2.2099   -1.5695    2.9080 O   0  0  0  0  0  0  0  0  0  0  0  0
   -3.6222   -2.1525    1.1042 C   0  0  2  0  0  0  0  0  0  0  0  0
   -2.7121   -3.3366    1.3841 C   0  0  1  0  0  0  0  0  0  0  0  0
   -1.6348   -3.3456    0.4539 O   0  0  0  0  0  0  0  0  0  0  0  0
   -2.1822   -3.0150    2.7964 C   0  0  2  0  0  0  0  0  0  0  0  0
   -6.6366   -2.5715   -2.5769 C   0  0  2  0  0  0  0  0  0  0  0  0
   -5.3446   -2.1361   -2.1269 O   0  0  0  0  0  0  0  0  0  0  0  0
   -5.1241   -2.4510   -0.7401 C   0  0  2  0  0  0  0  0  0  0  0  0
   -3.8431   -1.9493   -0.3054 O   0  0  0  0  0  0  0  0  0  0  0  0
   -5.2099   -3.9692   -0.5079 C   0  0  2  0  0  0  0  0  0  0  0  0
   -4.0035   -4.6299   -0.9712 N   0  3  0  0  0  0  0  0  0  0  0  0
   -6.4499   -4.6047   -1.1477 C   0  0  1  0  0  0  0  0  0  0  0  0
   -7.5860   -4.3352   -0.3419 O   0  0  0  0  0  0  0  0  0  0  0  0
   -6.6957   -4.0936   -2.5648 C   0  0  2  0  0  0  0  0  0  0  0  0
   -5.7188   -4.6287   -3.4502 O   0  0  0  0  0  0  0  0  0  0  0  0
   -6.9318   -2.0274   -3.9718 C   0  0  0  0  0  0  0  0  0  0  0  0
   -8.2739   -2.3925   -4.3844 N   0  3  0  0  0  0  0  0  0  0  0  0
   -1.9983   -6.9706    2.4559 C   0  0  1  0  0  0  0  0  0  0  0  0
   -3.2825   -6.3194    2.5510 O   0  0  0  0  0  0  0  0  0  0  0  0
   -4.0702   -6.7682    3.6777 C   0  0  2  0  0  0  0  0  0  0  0  0
   -3.4641   -6.4062    4.9432 O   0  0  0  0  0  0  0  0  0  0  0  0
   -4.3185   -8.2793    3.5959 C   0  0  2  0  0  0  0  0  0  0  0  0
   -4.9228   -8.7495    4.8286 N   0  3  0  0  0  0  0  0  0  0  0  0
   -3.0280   -9.0512    3.3443 C   0  0  1  0  0  0  0  0  0  0  0  0
   -3.3315  -10.4043    3.0421 O   0  0  0  0  0  0  0  0  0  0  0  0
   -2.1844   -8.4613    2.2246 C   0  0  2  0  0  0  0  0  0  0  0  0
   -0.9204   -9.1059    2.1668 O   0  0  0  0  0  0  0  0  0  0  0  0
   -1.2161   -6.4121    1.2706 C   0  0  0  0  0  0  0  0  0  0  0  0
   -1.9167   -6.6685    0.0255 N   0  3  0  0  0  0  0  0  0  0  0  0
   -0.1428   -4.0826    6.2351 C   0  0  2  0  0  0  0  0  0  0  0  0
    0.1012   -5.5350    5.8759 C   0  0  0  0  0  0  0  0  0  0  0  0
   -1.2090   -6.2995    5.8340 C   0  0  1  0  0  0  0  0  0  0  0  0
   -2.1776   -5.7526    4.7844 C   0  0  2  0  0  0  0  0  0  0  0  0
   -2.3428   -4.2219    4.9281 C   0  0  1  0  0  0  0  0  0  0  0  0
   -1.0651   -3.4235    5.2184 C   0  0  1  0  0  0  0  0  0  0  0  0
    1.1237   -3.3765    6.2739 N   0  3  0  0  0  0  0  0  0  0  0  0
   -0.9293   -7.7008    5.5884 N   0  3  0  0  0  0  0  0  0  0  0  0
   -3.0353   -3.6529    3.7899 O   0  0  0  0  0  0  0  0  0  0  0  0
   -1.4053   -2.1127    5.6577 O   0  0  0  0  0  0  0  0  0  0  0  0
  1  2  1  0  0  0  0
  3  2  1  1  0  0  0
  3  4  1  0  0  0  0
  3  5  1  0  0  0  0
  4  8  1  0  0  0  0
  5  6  1  0  0  0  0
  5 12  1  6  0  0  0
  6  7  1  6  0  0  0
  6  8  1  0  0  0  0
  8 41  1  1  0  0  0
  9 10  1  0  0  0  0
  9 17  1  0  0  0  0
  9 19  1  6  0  0  0
 10 11  1  0  0  0  0
 11 12  1  6  0  0  0
 11 13  1  0  0  0  0
 13 14  1  6  0  0  0
 13 15  1  0  0  0  0
 15 16  1  1  0  0  0
 15 17  1  0  0  0  0
 17 18  1  6  0  0  0
 19 20  1  0  0  0  0
 21 22  1  0  0  0  0
 21 29  1  0  0  0  0
 21 31  1  6  0  0  0
 22 23  1  0  0  0  0
 23 24  1  1  0  0  0
 23 25  1  0  0  0  0
 25 26  1  1  0  0  0
 25 27  1  0  0  0  0
 27 28  1  6  0  0  0
 27 29  1  0  0  0  0
 29 30  1  1  0  0  0
 31 32  1  0  0  0  0
 33 34  1  0  0  0  0
 33 38  1  0  0  0  0
 33 39  1  6  0  0  0
 34 35  1  0  0  0  0
 35 36  1  0  0  0  0
 35 40  1  6  0  0  0
 36 24  1  1  0  0  0
 36 37  1  0  0  0  0
 37 38  1  0  0  0  0
 37 41  1  6  0  0  0
 38 42  1  1  0  0  0
M  CHG  6  14   1  20   1  26   1  32   1  39   1  40   1
M  END
>  <CHROM.1>
-61.27998122,111.67215667,-146.43168108,165.96606274,-102.43791909,-176.07025154
175.59071471,159.44797851,55.45752546,46.93476543,56.43837645,-61.85245201
-3.43240235,-138.09936625,-63.69156196,-175.90206190,58.27152596,-97.19974090
-101.93436420,88.84100611,-100.31376832,176.71196150,-3.31208699,-4.59213923
1.85632655,-2.57525982,0.94455716,2.96613218

>  <Name>


>  <RI>
0

>  <Rbt.Current_Directory>
/home/itssahil/PROJECTS/Mol_Feturizer/New_Systems/rnas/1qd3

>  <Rbt.Executable>
rbdock ($Id: //depot/dev/client3/rdock/2013.1/src/exe/rbdock.cxx#4 $)

>  <Rbt.Library>
libRbt.so (2013.1, Build901 2013/11/27)

>  <Rbt.Parameter_File>
/export/apps/rDock/src/rDock_2013.1_src/data/scripts/dock_solv.prm

>  <Rbt.Receptor>
prm/blind_docking_80.prm

>  <SCORE>
-28.9274

>  <SCORE.INTER>
-28.2166

>  <SCORE.INTER.CONST>
1

>  <SCORE.INTER.POLAR>
-3.80359

>  <SCORE.INTER.ROT>
9

>  <SCORE.INTER.SOLV>
32.0226

>  <SCORE.INTER.VDW>
-26.4067

>  <SCORE.INTER.norm>
-0.671825

>  <SCORE.INTRA>
-1.72115

>  <SCORE.INTRA.DIHEDRAL>
3.6263

>  <SCORE.INTRA.DIHEDRAL.0>
40.6252

>  <SCORE.INTRA.POLAR>
-0.124264

>  <SCORE.INTRA.POLAR.0>
-1.20161

>  <SCORE.INTRA.REPUL>
-0.106429

>  <SCORE.INTRA.REPUL.0>
0.115675

>  <SCORE.INTRA.SOLV>
3.27019

>  <SCORE.INTRA.SOLV.lig_0>
-154.895

>  <SCORE.INTRA.VDW>
-4.21475

>  <SCORE.INTRA.VDW.0>
2.2925

>  <SCORE.INTRA.norm>
-0.0409797

>  <SCORE.RESTR>
1.01035

>  <SCORE.RESTR.CAVITY>
1.01035

>  <SCORE.RESTR.norm>
0.0240559

>  <SCORE.SYSTEM>
0

>  <SCORE.SYSTEM.CONST>
0

>  <SCORE.SYSTEM.DIHEDRAL>
0

>  <SCORE.SYSTEM.SOLV>
0

>  <SCORE.SYSTEM.norm>
0

>  <SCORE.heavy>
42

>  <SCORE.norm>
-0.688749

>  <RMSD>
13.822

$$$$

 OpenBabel11021811413D
libRbt.so/2013.1/901 2013/11/27
 42 45  0  0  0  0  0  0  0  0999 V2000
   -3.3420   -9.8247   -1.8095 O   0  0  0  0  0  0  0  0  0  0  0  0
   -4.7120   -9.4509   -1.8426 C   0  0  0  0  0  0  0  0  0  0  0  0
   -5.0587   -8.6436   -0.5910 C   0  0  1  0  0  0  0  0  0  0  0  0
   -4.0946   -8.8659    0.4610 O   0  0  0  0  0  0  0  0  0  0  0  0
   -5.0743   -7.1423   -0.8265 C   0  0  2  0  0  0  0  0  0  0  0  0
   -4.9363   -6.6367    0.5997 C   0  0  1  0  0  0  0  0  0  0  0  0
   -6.1852   -6.7498    1.2730 O   0  0  0  0  0  0  0  0  0  0  0  0
   -3.9239   -7.6316    1.2028 C   0  0  2  0  0  0  0  0  0  0  0  0
   -7.0891   -4.1804   -3.9561 C   0  0  2  0  0  0  0  0  0  0  0  0
   -7.2484   -5.3408   -3.1257 O   0  0  0  0  0  0  0  0  0  0  0  0
   -6.1412   -5.5115   -2.2224 C   0  0  2  0  0  0  0  0  0  0  0  0
   -6.3043   -6.7159   -1.4450 O   0  0  0  0  0  0  0  0  0  0  0  0
   -6.0039   -4.2917   -1.2953 C   0  0  2  0  0  0  0  0  0  0  0  0
   -7.0121   -4.3222   -0.2517 N   0  3  0  0  0  0  0  0  0  0  0  0
   -6.0510   -2.9573   -2.0488 C   0  0  1  0  0  0  0  0  0  0  0  0
   -4.7988   -2.7251   -2.6740 O   0  0  0  0  0  0  0  0  0  0  0  0
   -7.1596   -2.9241   -3.0974 C   0  0  2  0  0  0  0  0  0  0  0  0
   -8.4286   -2.8372   -2.4598 O   0  0  0  0  0  0  0  0  0  0  0  0
   -8.1532   -4.1515   -5.0496 C   0  0  0  0  0  0  0  0  0  0  0  0
   -8.2113   -5.4295   -5.7339 N   0  3  0  0  0  0  0  0  0  0  0  0
   -1.9865   -4.3347    0.0983 C   0  0  1  0  0  0  0  0  0  0  0  0
   -1.0746   -4.8097    1.1106 O   0  0  0  0  0  0  0  0  0  0  0  0
   -1.3516   -4.2774    2.4264 C   0  0  2  0  0  0  0  0  0  0  0  0
   -2.6257   -4.7371    2.9414 O   0  0  0  0  0  0  0  0  0  0  0  0
   -1.2798   -2.7456    2.4159 C   0  0  2  0  0  0  0  0  0  0  0  0
   -1.7629   -2.2183    3.6785 N   0  3  0  0  0  0  0  0  0  0  0  0
   -2.0998   -2.1493    1.2772 C   0  0  1  0  0  0  0  0  0  0  0  0
   -1.8182   -0.7633    1.1602 O   0  0  0  0  0  0  0  0  0  0  0  0
   -1.8521   -2.8290   -0.0607 C   0  0  2  0  0  0  0  0  0  0  0  0
   -2.7752   -2.3584   -1.0318 O   0  0  0  0  0  0  0  0  0  0  0  0
   -1.6530   -4.9740   -1.2466 C   0  0  0  0  0  0  0  0  0  0  0  0
   -2.8289   -5.0279   -2.0958 N   0  3  0  0  0  0  0  0  0  0  0  0
   -0.7516   -8.3560    4.1626 C   0  0  2  0  0  0  0  0  0  0  0  0
   -1.6925   -7.6771    5.1383 C   0  0  0  0  0  0  0  0  0  0  0  0
   -1.9442   -6.2399    4.7213 C   0  0  1  0  0  0  0  0  0  0  0  0
   -2.5999   -6.1317    3.3439 C   0  0  2  0  0  0  0  0  0  0  0  0
   -1.8287   -6.9682    2.2967 C   0  0  1  0  0  0  0  0  0  0  0  0
   -1.3348   -8.3464    2.7561 C   0  0  1  0  0  0  0  0  0  0  0  0
   -0.5232   -9.7243    4.5863 N   0  3  0  0  0  0  0  0  0  0  0  0
   -2.7638   -5.5938    5.7280 N   0  3  0  0  0  0  0  0  0  0  0  0
   -2.5768   -7.0956    1.0627 O   0  0  0  0  0  0  0  0  0  0  0  0
   -0.3717   -8.8452    1.8336 O   0  0  0  0  0  0  0  0  0  0  0  0
  1  2  1  0  0  0  0
  3  2  1  6  0  0  0
  3  4  1  0  0  0  0
  3  5  1  0  0  0  0
  4  8  1  0  0  0  0
  5  6  1  0  0  0  0
  5 12  1  1  0  0  0
  6  7  1  1  0  0  0
  6  8  1  0  0  0  0
  8 41  1  6  0  0  0
  9 10  1  0  0  0  0
  9 17  1  0  0  0  0
  9 19  1  6  0  0  0
 10 11  1  0  0  0  0
 11 12  1  1  0  0  0
 11 13  1  0  0  0  0
 13 14  1  1  0  0  0
 13 15  1  0  0  0  0
 15 16  1  6  0  0  0
 15 17  1  0  0  0  0
 17 18  1  1  0  0  0
 19 20  1  0  0  0  0
 21 22  1  0  0  0  0
 21 29  1  0  0  0  0
 21 31  1  6  0  0  0
 22 23  1  0  0  0  0
 23 24  1  6  0  0  0
 23 25  1  0  0  0  0
 25 26  1  1  0  0  0
 25 27  1  0  0  0  0
 27 28  1  6  0  0  0
 27 29  1  0  0  0  0
 29 30  1  6  0  0  0
 31 32  1  0  0  0  0
 33 34  1  0  0  0  0
 33 38  1  0  0  0  0
 33 39  1  1  0  0  0
 34 35  1  0  0  0  0
 35 36  1  0  0  0  0
 35 40  1  1  0  0  0
 36 24  1  6  0  0  0
 36 37  1  0  0  0  0
 37 38  1  0  0  0  0
 37 41  1  6  0  0  0
 38 42  1  6  0  0  0
M  CHG  6  14   1  20   1  26   1  32   1  39   1  40   1
M  END
>  <CHROM.1>
-48.86791727,-19.85608064,-153.11510853,82.06229601,-119.41257777,-49.74878037
162.87760757,-171.78847665,-79.50716837,-59.32758027,-172.62782855,153.88754914
72.97836564,79.39325825,65.75127474,178.33215097,-94.40186834,59.55728147
61.43333190,56.58436673,-54.82420754,-176.01406963,-3.81760926,-5.52816953
0.25385685,2.80141920,-0.87074214,-0.10922111

>  <Name>


>  <RI>
0

>  <Rbt.Current_Directory>
/home/itssahil/PROJECTS/Mol_Feturizer/New_Systems/rnas/1qd3

>  <Rbt.Executable>
rbdock ($Id: //depot/dev/client3/rdock/2013.1/src/exe/rbdock.cxx#4 $)

>  <Rbt.Library>
libRbt.so (2013.1, Build901 2013/11/27)

>  <Rbt.Parameter_File>
/export/apps/rDock/src/rDock_2013.1_src/data/scripts/dock_solv.prm

>  <Rbt.Receptor>
prm/blind_docking_40.prm

>  <SCORE>
-53.3622

>  <SCORE.INTER>
-37.3273

>  <SCORE.INTER.CONST>
1

>  <SCORE.INTER.POLAR>
-5.71398

>  <SCORE.INTER.ROT>
9

>  <SCORE.INTER.SOLV>
33.7283

>  <SCORE.INTER.VDW>
-26.6811

>  <SCORE.INTER.norm>
-0.888746

>  <SCORE.INTRA>
-18.1307

>  <SCORE.INTRA.DIHEDRAL>
-8.37374

>  <SCORE.INTRA.DIHEDRAL.0>
40.6252

>  <SCORE.INTRA.POLAR>
-1.76334

>  <SCORE.INTRA.POLAR.0>
-1.20161

>  <SCORE.INTRA.REPUL>
-0.115675

>  <SCORE.INTRA.REPUL.0>
0.115675

>  <SCORE.INTRA.SOLV>
-1.88982

>  <SCORE.INTRA.SOLV.lig_0>
-154.895

>  <SCORE.INTRA.VDW>
-6.42517

>  <SCORE.INTRA.VDW.0>
2.2925

>  <SCORE.INTRA.norm>
-0.431683

>  <SCORE.RESTR>
2.09581

>  <SCORE.RESTR.CAVITY>
2.09581

>  <SCORE.RESTR.norm>
0.0499003

>  <SCORE.SYSTEM>
0

>  <SCORE.SYSTEM.CONST>
0

>  <SCORE.SYSTEM.DIHEDRAL>
0

>  <SCORE.SYSTEM.SOLV>
0

>  <SCORE.SYSTEM.norm>
0

>  <SCORE.heavy>
42

>  <SCORE.norm>
-1.27053

>  <RMSD>
13.826

$$$$

 OpenBabel11021811413D
libRbt.so/2013.1/901 2013/11/27
 42 45  0  0  0  0  0  0  0  0999 V2000
   -6.0687   -9.1574   -2.5649 O   0  0  0  0  0  0  0  0  0  0  0  0
   -5.6898   -8.8704   -1.2263 C   0  0  0  0  0  0  0  0  0  0  0  0
   -4.4809   -7.9340   -1.2200 C   0  0  1  0  0  0  0  0  0  0  0  0
   -4.8173   -6.6384   -1.7620 O   0  0  0  0  0  0  0  0  0  0  0  0
   -3.9300   -7.6693    0.1714 C   0  0  2  0  0  0  0  0  0  0  0  0
   -3.1404   -6.3958   -0.0808 C   0  0  1  0  0  0  0  0  0  0  0  0
   -1.9130   -6.7113   -0.7287 O   0  0  0  0  0  0  0  0  0  0  0  0
   -4.0616   -5.6265   -1.0495 C   0  0  2  0  0  0  0  0  0  0  0  0
   -3.0162   -7.5968    4.0910 C   0  0  2  0  0  0  0  0  0  0  0  0
   -3.5405   -7.8981    2.7888 O   0  0  0  0  0  0  0  0  0  0  0  0
   -2.5550   -8.5173    1.9425 C   0  0  2  0  0  0  0  0  0  0  0  0
   -3.0958   -8.7531    0.6259 O   0  0  0  0  0  0  0  0  0  0  0  0
   -2.0600   -9.8360    2.5607 C   0  0  2  0  0  0  0  0  0  0  0  0
   -3.0436  -10.8885    2.3843 N   0  3  0  0  0  0  0  0  0  0  0  0
   -1.6789   -9.6993    4.0395 C   0  0  1  0  0  0  0  0  0  0  0  0
   -0.4071   -9.0791    4.1427 O   0  0  0  0  0  0  0  0  0  0  0  0
   -2.7063   -8.8928    4.8293 C   0  0  2  0  0  0  0  0  0  0  0  0
   -3.8952   -9.6556    5.0001 O   0  0  0  0  0  0  0  0  0  0  0  0
   -4.0019   -6.7426    4.8832 C   0  0  0  0  0  0  0  0  0  0  0  0
   -5.3287   -7.3281    4.8397 N   0  3  0  0  0  0  0  0  0  0  0  0
   -3.4268    0.8789    0.0605 C   0  0  1  0  0  0  0  0  0  0  0  0
   -2.9810    0.0573   -1.0388 O   0  0  0  0  0  0  0  0  0  0  0  0
   -3.0983   -1.3604   -0.7786 C   0  0  2  0  0  0  0  0  0  0  0  0
   -4.4801   -1.7758   -0.6447 O   0  0  0  0  0  0  0  0  0  0  0  0
   -2.2808   -1.7524    0.4581 C   0  0  2  0  0  0  0  0  0  0  0  0
   -2.5730   -3.1241    0.8307 N   0  3  0  0  0  0  0  0  0  0  0  0
   -2.5741   -0.8382    1.6425 C   0  0  1  0  0  0  0  0  0  0  0  0
   -1.6358   -1.0826    2.6788 O   0  0  0  0  0  0  0  0  0  0  0  0
   -2.5523    0.6388    1.2803 C   0  0  2  0  0  0  0  0  0  0  0  0
   -3.0144    1.4214    2.3714 O   0  0  0  0  0  0  0  0  0  0  0  0
   -3.3103    2.3547   -0.3097 C   0  0  0  0  0  0  0  0  0  0  0  0
   -4.5900    3.0240   -0.1636 N   0  3  0  0  0  0  0  0  0  0  0  0
   -7.3155   -3.7807   -3.1024 C   0  0  2  0  0  0  0  0  0  0  0  0
   -6.3382   -2.8335   -3.7702 C   0  0  0  0  0  0  0  0  0  0  0  0
   -5.6932   -1.9231   -2.7416 C   0  0  1  0  0  0  0  0  0  0  0  0
   -4.8954   -2.6944   -1.6893 C   0  0  2  0  0  0  0  0  0  0  0  0
   -5.7415   -3.8366   -1.0807 C   0  0  1  0  0  0  0  0  0  0  0  0
   -6.6091   -4.6376   -2.0605 C   0  0  1  0  0  0  0  0  0  0  0  0
   -7.9214   -4.6346   -4.1063 N   0  3  0  0  0  0  0  0  0  0  0  0
   -4.8442   -0.9669   -3.4251 N   0  3  0  0  0  0  0  0  0  0  0  0
   -4.9282   -4.7367   -0.2887 O   0  0  0  0  0  0  0  0  0  0  0  0
   -7.5679   -5.4043   -1.3394 O   0  0  0  0  0  0  0  0  0  0  0  0
  1  2  1  0  0  0  0
  3  2  1  1  0  0  0
  3  4  1  0  0  0  0
  3  5  1  0  0  0  0
  4  8  1  0  0  0  0
  5  6  1  0  0  0  0
  5 12  1  6  0  0  0
  6  7  1  6  0  0  0
  6  8  1  0  0  0  0
  8 41  1  1  0  0  0
  9 10  1  0  0  0  0
  9 17  1  0  0  0  0
  9 19  1  1  0  0  0
 10 11  1  0  0  0  0
 11 12  1  6  0  0  0
 11 13  1  0  0  0  0
 13 14  1  1  0  0  0
 13 15  1  0  0  0  0
 15 16  1  6  0  0  0
 15 17  1  0  0  0  0
 17 18  1  6  0  0  0
 19 20  1  0  0  0  0
 21 22  1  0  0  0  0
 21 29  1  0  0  0  0
 21 31  1  6  0  0  0
 22 23  1  0  0  0  0
 23 24  1  1  0  0  0
 23 25  1  0  0  0  0
 25 26  1  1  0  0  0
 25 27  1  0  0  0  0
 27 28  1  1  0  0  0
 27 29  1  0  0  0  0
 29 30  1  1  0  0  0
 31 32  1  0  0  0  0
 33 34  1  0  0  0  0
 33 38  1  0  0  0  0
 33 39  1  6  0  0  0
 34 35  1  0  0  0  0
 35 36  1  0  0  0  0
 35 40  1  6  0  0  0
 36 24  1  1  0  0  0
 36 37  1  0  0  0  0
 37 38  1  0  0  0  0
 37 41  1  6  0  0  0
 38 42  1  1  0  0  0
M  CHG  6  14   1  20   1  26   1  32   1  39   1  40   1
M  END
>  <CHROM.1>
-43.58677656,65.92350046,179.61167935,-49.65857520,-69.96948979,49.55187886
39.46998902,173.78476629,58.19220522,-176.34333468,128.93039567,123.92471037
115.56618537,-100.79020287,83.64879498,-177.32490010,-75.94350884,-155.88793028
-51.59429333,-172.61573215,-73.63394105,178.89190184,-4.00848277,-4.79366995
0.40736600,1.37464524,1.00305239,2.93117801

>  <Name>


>  <RI>
0

>  <Rbt.Current_Directory>
/home/itssahil/PROJECTS/Mol_Feturizer/New_Systems/rnas/1qd3

>  <Rbt.Executable>
rbdock ($Id: //depot/dev/client3/rdock/2013.1/src/exe/rbdock.cxx#4 $)

>  <Rbt.Library>
libRbt.so (2013.1, Build901 2013/11/27)

>  <Rbt.Parameter_File>
/export/apps/rDock/src/rDock_2013.1_src/data/scripts/dock_solv.prm

>  <Rbt.Receptor>
prm/blind_docking_100.prm

>  <SCORE>
-67.555

>  <SCORE.INTER>
-48.161

>  <SCORE.INTER.CONST>
1

>  <SCORE.INTER.POLAR>
-6.13165

>  <SCORE.INTER.ROT>
9

>  <SCORE.INTER.SOLV>
25.7183

>  <SCORE.INTER.VDW>
-29.8413

>  <SCORE.INTER.norm>
-1.14669

>  <SCORE.INTRA>
-20.478

>  <SCORE.INTRA.DIHEDRAL>
-9.04915

>  <SCORE.INTRA.DIHEDRAL.0>
40.6252

>  <SCORE.INTRA.POLAR>
-1.12252

>  <SCORE.INTRA.POLAR.0>
-1.20161

>  <SCORE.INTRA.REPUL>
-0.115675

>  <SCORE.INTRA.REPUL.0>
0.115675

>  <SCORE.INTRA.SOLV>
-7.16426

>  <SCORE.INTRA.SOLV.lig_0>
-154.895

>  <SCORE.INTRA.VDW>
-7.97634

>  <SCORE.INTRA.VDW.0>
2.2925

>  <SCORE.INTRA.norm>
-0.487571

>  <SCORE.RESTR>
1.08404

>  <SCORE.RESTR.CAVITY>
1.08404

>  <SCORE.RESTR.norm>
0.0258104

>  <SCORE.SYSTEM>
0

>  <SCORE.SYSTEM.CONST>
0

>  <SCORE.SYSTEM.DIHEDRAL>
0

>  <SCORE.SYSTEM.SOLV>
0

>  <SCORE.SYSTEM.norm>
0

>  <SCORE.heavy>
42

>  <SCORE.norm>
-1.60845

>  <RMSD>
13.839

$$$$

 OpenBabel11021811413D
libRbt.so/2013.1/901 2013/11/27
 42 45  0  0  0  0  0  0  0  0999 V2000
   -5.8735   -8.6625   -1.2839 O   0  0  0  0  0  0  0  0  0  0  0  0
   -5.0056   -7.9556   -0.4095 C   0  0  0  0  0  0  0  0  0  0  0  0
   -5.5793   -6.5677   -0.1212 C   0  0  1  0  0  0  0  0  0  0  0  0
   -4.6741   -5.7824    0.6846 O   0  0  0  0  0  0  0  0  0  0  0  0
   -5.8338   -5.7476   -1.3750 C   0  0  2  0  0  0  0  0  0  0  0  0
   -5.8930   -4.3490   -0.7840 C   0  0  1  0  0  0  0  0  0  0  0  0
   -7.1515   -4.1475   -0.1505 O   0  0  0  0  0  0  0  0  0  0  0  0
   -4.7739   -4.3945    0.2764 C   0  0  2  0  0  0  0  0  0  0  0  0
   -8.2408   -5.9469   -5.4707 C   0  0  2  0  0  0  0  0  0  0  0  0
   -8.1655   -6.3659   -4.0995 O   0  0  0  0  0  0  0  0  0  0  0  0
   -7.1573   -5.6426   -3.3709 C   0  0  2  0  0  0  0  0  0  0  0  0
   -7.0680   -6.1273   -2.0149 O   0  0  0  0  0  0  0  0  0  0  0  0
   -7.4581   -4.1340   -3.3801 C   0  0  2  0  0  0  0  0  0  0  0  0
   -8.5256   -3.8162   -2.4495 N   0  3  0  0  0  0  0  0  0  0  0  0
   -7.7863   -3.5964   -4.7779 C   0  0  1  0  0  0  0  0  0  0  0  0
   -6.5854   -3.4439   -5.5178 O   0  0  0  0  0  0  0  0  0  0  0  0
   -8.7429   -4.5103   -5.5391 C   0  0  2  0  0  0  0  0  0  0  0  0
  -10.0482   -4.4205   -4.9802 O   0  0  0  0  0  0  0  0  0  0  0  0
   -9.1487   -6.8784   -6.2687 C   0  0  0  0  0  0  0  0  0  0  0  0
   -8.9766   -8.2509   -5.8312 N   0  3  0  0  0  0  0  0  0  0  0  0
   -3.8780    0.7350    1.8017 C   0  0  1  0  0  0  0  0  0  0  0  0
   -4.5205   -0.5096    1.4549 O   0  0  0  0  0  0  0  0  0  0  0  0
   -3.6271   -1.4614    0.8324 C   0  0  2  0  0  0  0  0  0  0  0  0
   -2.5918   -1.9100    1.7415 O   0  0  0  0  0  0  0  0  0  0  0  0
   -3.0218   -0.8761   -0.4493 C   0  0  2  0  0  0  0  0  0  0  0  0
   -1.9752   -1.7495   -0.9466 N   0  3  0  0  0  0  0  0  0  0  0  0
   -2.4446    0.5158   -0.2172 C   0  0  1  0  0  0  0  0  0  0  0  0
   -2.1136    1.1099   -1.4629 O   0  0  0  0  0  0  0  0  0  0  0  0
   -3.3849    1.4358    0.5463 C   0  0  2  0  0  0  0  0  0  0  0  0
   -2.7216    2.6429    0.8920 O   0  0  0  0  0  0  0  0  0  0  0  0
   -4.8748    1.6636    2.4892 C   0  0  0  0  0  0  0  0  0  0  0  0
   -5.8097    2.2174    1.5269 N   0  3  0  0  0  0  0  0  0  0  0  0
   -0.8136   -5.7725    1.6063 C   0  0  2  0  0  0  0  0  0  0  0  0
   -1.2264   -5.2258    2.9586 C   0  0  0  0  0  0  0  0  0  0  0  0
   -1.4550   -3.7277    2.8791 C   0  0  1  0  0  0  0  0  0  0  0  0
   -2.5712   -3.3525    1.9033 C   0  0  2  0  0  0  0  0  0  0  0  0
   -2.3591   -4.0336    0.5314 C   0  0  1  0  0  0  0  0  0  0  0  0
   -1.8856   -5.4928    0.5617 C   0  0  1  0  0  0  0  0  0  0  0  0
   -0.5962   -7.2028    1.7107 N   0  3  0  0  0  0  0  0  0  0  0  0
   -1.7484   -3.2246    4.2069 N   0  3  0  0  0  0  0  0  0  0  0  0
   -3.5318   -3.9102   -0.3103 O   0  0  0  0  0  0  0  0  0  0  0  0
   -1.4118   -5.8725   -0.7261 O   0  0  0  0  0  0  0  0  0  0  0  0
  1  2  1  0  0  0  0
  3  2  1  6  0  0  0
  3  4  1  0  0  0  0
  3  5  1  0  0  0  0
  4  8  1  0  0  0  0
  5  6  1  0  0  0  0
  5 12  1  1  0  0  0
  6  7  1  1  0  0  0
  6  8  1  0  0  0  0
  8 41  1  6  0  0  0
  9 10  1  0  0  0  0
  9 17  1  0  0  0  0
  9 19  1  6  0  0  0
 10 11  1  0  0  0  0
 11 12  1  1  0  0  0
 11 13  1  0  0  0  0
 13 14  1  1  0  0  0
 13 15  1  0  0  0  0
 15 16  1  6  0  0  0
 15 17  1  0  0  0  0
 17 18  1  1  0  0  0
 19 20  1  0  0  0  0
 21 22  1  0  0  0  0
 21 29  1  0  0  0  0
 21 31  1  6  0  0  0
 22 23  1  0  0  0  0
 23 24  1  1  0  0  0
 23 25  1  0  0  0  0
 25 26  1  1  0  0  0
 25 27  1  0  0  0  0
 27 28  1  6  0  0  0
 27 29  1  0  0  0  0
 29 30  1  1  0  0  0
 31 32  1  0  0  0  0
 33 34  1  0  0  0  0
 33 38  1  0  0  0  0
 33 39  1  1  0  0  0
 34 35  1  0  0  0  0
 35 36  1  0  0  0  0
 35 40  1  1  0  0  0
 36 24  1  6  0  0  0
 36 37  1  0  0  0  0
 37 38  1  0  0  0  0
 37 41  1  1  0  0  0
 38 42  1  6  0  0  0
M  CHG  6  14   1  20   1  26   1  32   1  39   1  40   1
M  END
>  <CHROM.1>
-52.20864749,-175.68150753,-164.12527674,177.72103858,-56.70017330,-37.75334485
162.05801744,-32.33176824,-48.57296419,-167.92957371,35.77421503,-74.26755322
123.31846640,-179.80141522,-179.59987967,-171.82118869,-62.10430506,118.02375950
45.43698883,-132.78321934,-54.77873967,-48.27059730,-4.81230117,-3.67950152
-0.80454548,-2.52620250,-0.76636038,0.09986286

>  <Name>


>  <RI>
0

>  <Rbt.Current_Directory>
/home/itssahil/PROJECTS/Mol_Feturizer/New_Systems/rnas/1qd3

>  <Rbt.Executable>
rbdock ($Id: //depot/dev/client3/rdock/2013.1/src/exe/rbdock.cxx#4 $)

>  <Rbt.Library>
libRbt.so (2013.1, Build901 2013/11/27)

>  <Rbt.Parameter_File>
/export/apps/rDock/src/rDock_2013.1_src/data/scripts/dock_solv.prm

>  <Rbt.Receptor>
prm/blind_docking_80.prm

>  <SCORE>
-70.4321

>  <SCORE.INTER>
-56.0321

>  <SCORE.INTER.CONST>
1

>  <SCORE.INTER.POLAR>
-7.88722

>  <SCORE.INTER.ROT>
9

>  <SCORE.INTER.SOLV>
38.8279

>  <SCORE.INTER.VDW>
-33.6066

>  <SCORE.INTER.norm>
-1.3341

>  <SCORE.INTRA>
-15.2913

>  <SCORE.INTRA.DIHEDRAL>
-16.1791

>  <SCORE.INTRA.DIHEDRAL.0>
40.6252

>  <SCORE.INTRA.POLAR>
-0.597712

>  <SCORE.INTRA.POLAR.0>
-1.20161

>  <SCORE.INTRA.REPUL>
-0.115675

>  <SCORE.INTRA.REPUL.0>
0.115675

>  <SCORE.INTRA.SOLV>
-4.13646

>  <SCORE.INTRA.SOLV.lig_0>
-154.895

>  <SCORE.INTRA.VDW>
-2.52294

>  <SCORE.INTRA.VDW.0>
2.2925

>  <SCORE.INTRA.norm>
-0.364079

>  <SCORE.RESTR>
0.891302

>  <SCORE.RESTR.CAVITY>
0.891302

>  <SCORE.RESTR.norm>
0.0212215

>  <SCORE.SYSTEM>
0

>  <SCORE.SYSTEM.CONST>
0

>  <SCORE.SYSTEM.DIHEDRAL>
0

>  <SCORE.SYSTEM.SOLV>
0

>  <SCORE.SYSTEM.norm>
0

>  <SCORE.heavy>
42

>  <SCORE.norm>
-1.67695

>  <RMSD>
13.844

$$$$

 OpenBabel11021811413D
libRbt.so/2013.1/901 2013/11/27
 42 45  0  0  0  0  0  0  0  0999 V2000
   -5.0675   -9.7629   -2.8016 O   0  0  0  0  0  0  0  0  0  0  0  0
   -4.9038   -9.6886   -1.3925 C   0  0  0  0  0  0  0  0  0  0  0  0
   -3.9181   -8.5727   -1.0441 C   0  0  1  0  0  0  0  0  0  0  0  0
   -4.3044   -7.3216   -1.6534 O   0  0  0  0  0  0  0  0  0  0  0  0
   -3.8242   -8.2943    0.4470 C   0  0  2  0  0  0  0  0  0  0  0  0
   -3.2208   -6.8998    0.4311 C   0  0  1  0  0  0  0  0  0  0  0  0
   -1.8276   -6.9819    0.1516 O   0  0  0  0  0  0  0  0  0  0  0  0
   -3.9549   -6.2394   -0.7536 C   0  0  2  0  0  0  0  0  0  0  0  0
   -2.7924   -7.3690    4.2379 C   0  0  2  0  0  0  0  0  0  0  0  0
   -3.3602   -7.9577    3.0578 O   0  0  0  0  0  0  0  0  0  0  0  0
   -2.3913   -8.7242    2.3199 C   0  0  2  0  0  0  0  0  0  0  0  0
   -2.9781   -9.2526    1.1125 O   0  0  0  0  0  0  0  0  0  0  0  0
   -1.8295   -9.8657    3.1846 C   0  0  2  0  0  0  0  0  0  0  0  0
   -2.7856  -10.9528    3.2866 N   0  3  0  0  0  0  0  0  0  0  0  0
   -1.3923   -9.4023    4.5792 C   0  0  1  0  0  0  0  0  0  0  0  0
   -0.1376   -8.7467    4.4858 O   0  0  0  0  0  0  0  0  0  0  0  0
   -2.4113   -8.4663    5.2235 C   0  0  2  0  0  0  0  0  0  0  0  0
   -3.5673   -9.1997    5.6111 O   0  0  0  0  0  0  0  0  0  0  0  0
   -3.7712   -6.3849    4.8722 C   0  0  0  0  0  0  0  0  0  0  0  0
   -3.9510   -5.2268    4.0170 N   0  3  0  0  0  0  0  0  0  0  0  0
   -4.2656    0.0587    0.6337 C   0  0  1  0  0  0  0  0  0  0  0  0
   -3.9858   -0.2690   -0.7434 O   0  0  0  0  0  0  0  0  0  0  0  0
   -3.4899   -1.6156   -0.9224 C   0  0  2  0  0  0  0  0  0  0  0  0
   -4.4858   -2.6113   -0.5813 O   0  0  0  0  0  0  0  0  0  0  0  0
   -2.1995   -1.8272   -0.1213 C   0  0  2  0  0  0  0  0  0  0  0  0
   -1.8301   -3.2304   -0.1386 N   0  3  0  0  0  0  0  0  0  0  0  0
   -2.3499   -1.3666    1.3243 C   0  0  1  0  0  0  0  0  0  0  0  0
   -1.0800   -1.3588    1.9581 O   0  0  0  0  0  0  0  0  0  0  0  0
   -2.9861    0.0089    1.4528 C   0  0  2  0  0  0  0  0  0  0  0  0
   -3.2689    0.2967    2.8143 O   0  0  0  0  0  0  0  0  0  0  0  0
   -4.8226    1.4761    0.7306 C   0  0  0  0  0  0  0  0  0  0  0  0
   -5.3883    1.7175    2.0453 N   0  3  0  0  0  0  0  0  0  0  0  0
   -6.9309   -4.5478   -3.4746 C   0  0  2  0  0  0  0  0  0  0  0  0
   -5.8051   -3.6625   -3.9716 C   0  0  0  0  0  0  0  0  0  0  0  0
   -5.3106   -2.7565   -2.8592 C   0  0  1  0  0  0  0  0  0  0  0  0
   -4.7521   -3.5363   -1.6680 C   0  0  2  0  0  0  0  0  0  0  0  0
   -5.7479   -4.6237   -1.2024 C   0  0  1  0  0  0  0  0  0  0  0  0
   -6.4645   -5.4092   -2.3087 C   0  0  1  0  0  0  0  0  0  0  0  0
   -7.3886   -5.3985   -4.5566 N   0  3  0  0  0  0  0  0  0  0  0  0
   -4.3077   -1.8569   -3.3949 N   0  3  0  0  0  0  0  0  0  0  0  0
   -5.1339   -5.5393   -0.2624 O   0  0  0  0  0  0  0  0  0  0  0  0
   -7.5729   -6.1137   -1.7588 O   0  0  0  0  0  0  0  0  0  0  0  0
  1  2  1  0  0  0  0
  3  2  1  1  0  0  0
  3  4  1  0  0  0  0
  3  5  1  0  0  0  0
  4  8  1  0  0  0  0
  5  6  1  0  0  0  0
  5 12  1  1  0  0  0
  6  7  1  6  0  0  0
  6  8  1  0  0  0  0
  8 41  1  1  0  0  0
  9 10  1  0  0  0  0
  9 17  1  0  0  0  0
  9 19  1  1  0  0  0
 10 11  1  0  0  0  0
 11 12  1  6  0  0  0
 11 13  1  0  0  0  0
 13 14  1  1  0  0  0
 13 15  1  0  0  0  0
 15 16  1  6  0  0  0
 15 17  1  0  0  0  0
 17 18  1  6  0  0  0
 19 20  1  0  0  0  0
 21 22  1  0  0  0  0
 21 29  1  0  0  0  0
 21 31  1  6  0  0  0
 22 23  1  0  0  0  0
 23 24  1  1  0  0  0
 23 25  1  0  0  0  0
 25 26  1  1  0  0  0
 25 27  1  0  0  0  0
 27 28  1  6  0  0  0
 27 29  1  0  0  0  0
 29 30  1  1  0  0  0
 31 32  1  0  0  0  0
 33 34  1  0  0  0  0
 33 38  1  0  0  0  0
 33 39  1  6  0  0  0
 34 35  1  0  0  0  0
 35 36  1  0  0  0  0
 35 40  1  6  0  0  0
 36 24  1  1  0  0  0
 36 37  1  0  0  0  0
 37 38  1  0  0  0  0
 37 41  1  1  0  0  0
 38 42  1  1  0  0  0
M  CHG  6  14   1  20   1  26   1  32   1  39   1  40   1
M  END
>  <CHROM.1>
-175.67226497,53.03461489,154.06677595,50.00950091,-76.71571820,-67.94584649
41.69415473,-53.63172800,51.77338486,-174.35954635,-39.57220782,167.11257892
123.98324509,-62.03239717,48.03433439,-167.77646440,158.02650278,176.17399330
55.63895893,45.77944324,-58.29794448,-48.09302996,-3.85707236,-5.18123902
0.54781341,1.12715639,1.09916123,3.12069406

>  <Name>


>  <RI>
0

>  <Rbt.Current_Directory>
/home/itssahil/PROJECTS/Mol_Feturizer/New_Systems/rnas/1qd3

>  <Rbt.Executable>
rbdock ($Id: //depot/dev/client3/rdock/2013.1/src/exe/rbdock.cxx#4 $)

>  <Rbt.Library>
libRbt.so (2013.1, Build901 2013/11/27)

>  <Rbt.Parameter_File>
/export/apps/rDock/src/rDock_2013.1_src/data/scripts/dock_solv.prm

>  <Rbt.Receptor>
prm/blind_docking_100.prm

>  <SCORE>
-65.1645

>  <SCORE.INTER>
-51.2809

>  <SCORE.INTER.CONST>
1

>  <SCORE.INTER.POLAR>
-6.99816

>  <SCORE.INTER.ROT>
9

>  <SCORE.INTER.SOLV>
39.6013

>  <SCORE.INTER.VDW>
-33.6605

>  <SCORE.INTER.norm>
-1.22097

>  <SCORE.INTRA>
-14.1387

>  <SCORE.INTRA.DIHEDRAL>
-17.4527

>  <SCORE.INTRA.DIHEDRAL.0>
40.6252

>  <SCORE.INTRA.POLAR>
0.433267

>  <SCORE.INTRA.POLAR.0>
-1.20161

>  <SCORE.INTRA.REPUL>
-0.115675

>  <SCORE.INTRA.REPUL.0>
0.115675

>  <SCORE.INTRA.SOLV>
-7.36592

>  <SCORE.INTRA.SOLV.lig_0>
-154.895

>  <SCORE.INTRA.VDW>
-2.62411

>  <SCORE.INTRA.VDW.0>
2.2925

>  <SCORE.INTRA.norm>
-0.336635

>  <SCORE.RESTR>
0.255111

>  <SCORE.RESTR.CAVITY>
0.255111

>  <SCORE.RESTR.norm>
0.00607407

>  <SCORE.SYSTEM>
0

>  <SCORE.SYSTEM.CONST>
0

>  <SCORE.SYSTEM.DIHEDRAL>
0

>  <SCORE.SYSTEM.SOLV>
0

>  <SCORE.SYSTEM.norm>
0

>  <SCORE.heavy>
42

>  <SCORE.norm>
-1.55154

>  <RMSD>
13.859

$$$$

 OpenBabel11021811413D
libRbt.so/2013.1/901 2013/11/27
 42 45  0  0  0  0  0  0  0  0999 V2000
   -5.7783   -8.9802   -2.2003 O   0  0  0  0  0  0  0  0  0  0  0  0
   -5.7041   -8.2459   -0.9866 C   0  0  0  0  0  0  0  0  0  0  0  0
   -4.4828   -7.3260   -1.0119 C   0  0  1  0  0  0  0  0  0  0  0  0
   -4.7259   -6.1527   -1.8181 O   0  0  0  0  0  0  0  0  0  0  0  0
   -4.0882   -6.8090    0.3615 C   0  0  2  0  0  0  0  0  0  0  0  0
   -3.2464   -5.6051   -0.0270 C   0  0  1  0  0  0  0  0  0  0  0  0
   -1.9606   -6.0365   -0.4588 O   0  0  0  0  0  0  0  0  0  0  0  0
   -4.0336   -5.0272   -1.2207 C   0  0  2  0  0  0  0  0  0  0  0  0
   -3.2445   -7.2573    4.7146 C   0  0  2  0  0  0  0  0  0  0  0  0
   -3.6579   -7.7901    3.4470 O   0  0  0  0  0  0  0  0  0  0  0  0
   -2.8581   -7.2823    2.3638 C   0  0  2  0  0  0  0  0  0  0  0  0
   -3.3359   -7.7910    1.1011 O   0  0  0  0  0  0  0  0  0  0  0  0
   -1.3779   -7.6511    2.5626 C   0  0  2  0  0  0  0  0  0  0  0  0
   -1.1464   -9.0459    2.2351 N   0  3  0  0  0  0  0  0  0  0  0  0
   -0.8663   -7.3386    3.9737 C   0  0  1  0  0  0  0  0  0  0  0  0
   -0.6186   -5.9462    4.0872 O   0  0  0  0  0  0  0  0  0  0  0  0
   -1.8519   -7.7722    5.0555 C   0  0  2  0  0  0  0  0  0  0  0  0
   -1.8660   -9.1912    5.1589 O   0  0  0  0  0  0  0  0  0  0  0  0
   -4.2437   -7.6298    5.8062 C   0  0  0  0  0  0  0  0  0  0  0  0
   -4.6427   -9.0185    5.6753 N   0  3  0  0  0  0  0  0  0  0  0  0
   -3.4582   -1.2625    1.6117 C   0  0  1  0  0  0  0  0  0  0  0  0
   -4.6108   -1.8531    0.9756 O   0  0  0  0  0  0  0  0  0  0  0  0
   -5.0516   -1.1300   -0.1967 C   0  0  2  0  0  0  0  0  0  0  0  0
   -4.0725   -1.1767   -1.2639 O   0  0  0  0  0  0  0  0  0  0  0  0
   -5.4082    0.3174    0.1635 C   0  0  2  0  0  0  0  0  0  0  0  0
   -5.6439    1.0850   -1.0452 N   0  3  0  0  0  0  0  0  0  0  0  0
   -4.3040    0.9863    0.9746 C   0  0  1  0  0  0  0  0  0  0  0  0
   -4.7691    2.2269    1.4832 O   0  0  0  0  0  0  0  0  0  0  0  0
   -3.7991    0.1274    2.1238 C   0  0  2  0  0  0  0  0  0  0  0  0
   -2.6539    0.7212    2.7177 O   0  0  0  0  0  0  0  0  0  0  0  0
   -3.0332   -2.1063    2.8101 C   0  0  0  0  0  0  0  0  0  0  0  0
   -1.9198   -1.4873    3.5057 N   0  3  0  0  0  0  0  0  0  0  0  0
   -6.6283   -3.1232   -4.0530 C   0  0  2  0  0  0  0  0  0  0  0  0
   -5.4278   -2.3708   -4.5922 C   0  0  0  0  0  0  0  0  0  0  0  0
   -4.8761   -1.4263   -3.5405 C   0  0  1  0  0  0  0  0  0  0  0  0
   -4.3987   -2.1564   -2.2843 C   0  0  2  0  0  0  0  0  0  0  0  0
   -5.4857   -3.1225   -1.7590 C   0  0  1  0  0  0  0  0  0  0  0  0
   -6.2491   -3.9290   -2.8179 C   0  0  1  0  0  0  0  0  0  0  0  0
   -7.1392   -4.0134   -5.0779 N   0  3  0  0  0  0  0  0  0  0  0  0
   -3.7962   -0.6527   -4.1217 N   0  3  0  0  0  0  0  0  0  0  0  0
   -4.9608   -4.0110   -0.7422 O   0  0  0  0  0  0  0  0  0  0  0  0
   -7.4183   -4.4991   -2.2390 O   0  0  0  0  0  0  0  0  0  0  0  0
  1  2  1  0  0  0  0
  3  2  1  1  0  0  0
  3  4  1  0  0  0  0
  3  5  1  0  0  0  0
  4  8  1  0  0  0  0
  5  6  1  0  0  0  0
  5 12  1  6  0  0  0
  6  7  1  6  0  0  0
  6  8  1  0  0  0  0
  8 41  1  1  0  0  0
  9 10  1  0  0  0  0
  9 17  1  0  0  0  0
  9 19  1  1  0  0  0
 10 11  1  0  0  0  0
 11 12  1  6  0  0  0
 11 13  1  0  0  0  0
 13 14  1  1  0  0  0
 13 15  1  0  0  0  0
 15 16  1  6  0  0  0
 15 17  1  0  0  0  0
 17 18  1  6  0  0  0
 19 20  1  0  0  0  0
 21 22  1  0  0  0  0
 21 29  1  0  0  0  0
 21 31  1  1  0  0  0
 22 23  1  0  0  0  0
 23 24  1  6  0  0  0
 23 25  1  0  0  0  0
 25 26  1  6  0  0  0
 25 27  1  0  0  0  0
 27 28  1  1  0  0  0
 27 29  1  0  0  0  0
 29 30  1  6  0  0  0
 31 32  1  0  0  0  0
 33 34  1  0  0  0  0
 33 38  1  0  0  0  0
 33 39  1  6  0  0  0
 34 35  1  0  0  0  0
 35 36  1  0  0  0  0
 35 40  1  6  0  0  0
 36 24  1  1  0  0  0
 36 37  1  0  0  0  0
 37 38  1  0  0  0  0
 37 41  1  1  0  0  0
 38 42  1  1  0  0  0
M  CHG  6  14   1  20   1  26   1  32   1  39   1  40   1
M  END
>  <CHROM.1>
-50.98438304,77.55816499,175.27414681,59.15762927,-79.99145104,43.41028946
103.55243999,-15.96110150,-70.18691232,-78.46779351,-46.67812890,-176.87226525
100.47628208,106.84511454,104.91925513,-167.82804340,78.69368866,-75.19296627
78.36342644,177.73603587,-70.52795979,-68.52631275,-4.00770650,-4.31551240
0.51938687,0.85215656,1.14715016,-3.12562171

>  <Name>


>  <RI>
0

>  <Rbt.Current_Directory>
/home/itssahil/PROJECTS/Mol_Feturizer/New_Systems/rnas/1qd3

>  <Rbt.Executable>
rbdock ($Id: //depot/dev/client3/rdock/2013.1/src/exe/rbdock.cxx#4 $)

>  <Rbt.Library>
libRbt.so (2013.1, Build901 2013/11/27)

>  <Rbt.Parameter_File>
/export/apps/rDock/src/rDock_2013.1_src/data/scripts/dock_solv.prm

>  <Rbt.Receptor>
prm/blind_docking_20.prm

>  <SCORE>
-54.5643

>  <SCORE.INTER>
-48.9398

>  <SCORE.INTER.CONST>
1

>  <SCORE.INTER.POLAR>
-6.24356

>  <SCORE.INTER.ROT>
9

>  <SCORE.INTER.SOLV>
33.8587

>  <SCORE.INTER.VDW>
-32.7009

>  <SCORE.INTER.norm>
-1.16523

>  <SCORE.INTRA>
-6.12238

>  <SCORE.INTRA.DIHEDRAL>
-3.76166

>  <SCORE.INTRA.DIHEDRAL.0>
40.6252

>  <SCORE.INTRA.POLAR>
0.352364

>  <SCORE.INTRA.POLAR.0>
-1.20161

>  <SCORE.INTRA.REPUL>
-0.115675

>  <SCORE.INTRA.REPUL.0>
0.115675

>  <SCORE.INTRA.SOLV>
-7.1593

>  <SCORE.INTRA.SOLV.lig_0>
-154.895

>  <SCORE.INTRA.VDW>
-1.28156

>  <SCORE.INTRA.VDW.0>
2.2925

>  <SCORE.INTRA.norm>
-0.145771

>  <SCORE.RESTR>
0.497875

>  <SCORE.RESTR.CAVITY>
0.497875

>  <SCORE.RESTR.norm>
0.0118542

>  <SCORE.SYSTEM>
0

>  <SCORE.SYSTEM.CONST>
0

>  <SCORE.SYSTEM.DIHEDRAL>
0

>  <SCORE.SYSTEM.SOLV>
0

>  <SCORE.SYSTEM.norm>
0

>  <SCORE.heavy>
42

>  <SCORE.norm>
-1.29915

>  <RMSD>
13.861

$$$$

 OpenBabel11021811413D
libRbt.so/2013.1/901 2013/11/27
 42 45  0  0  0  0  0  0  0  0999 V2000
   -4.3996   -3.8480    2.0314 O   0  0  0  0  0  0  0  0  0  0  0  0
   -5.4426   -4.7841    2.2625 C   0  0  0  0  0  0  0  0  0  0  0  0
   -5.5368   -5.7554    1.0851 C   0  0  1  0  0  0  0  0  0  0  0  0
   -6.1109   -5.1180   -0.0767 O   0  0  0  0  0  0  0  0  0  0  0  0
   -4.1878   -6.2930    0.6371 C   0  0  2  0  0  0  0  0  0  0  0  0
   -4.5312   -6.7699   -0.7642 C   0  0  1  0  0  0  0  0  0  0  0  0
   -5.2299   -8.0080   -0.6931 O   0  0  0  0  0  0  0  0  0  0  0  0
   -5.4794   -5.6610   -1.2638 C   0  0  2  0  0  0  0  0  0  0  0  0
   -2.9845   -7.5794    5.0572 C   0  0  2  0  0  0  0  0  0  0  0  0
   -3.2936   -8.0100    3.7229 O   0  0  0  0  0  0  0  0  0  0  0  0
   -3.3667   -6.9045    2.8046 C   0  0  2  0  0  0  0  0  0  0  0  0
   -3.7357   -7.3647    1.4879 O   0  0  0  0  0  0  0  0  0  0  0  0
   -2.0254   -6.1533    2.7514 C   0  0  2  0  0  0  0  0  0  0  0  0
   -1.0522   -6.8920    1.9681 N   0  3  0  0  0  0  0  0  0  0  0  0
   -1.4631   -5.8309    4.1409 C   0  0  1  0  0  0  0  0  0  0  0  0
   -2.1573   -4.7187    4.6833 O   0  0  0  0  0  0  0  0  0  0  0  0
   -1.5698   -7.0156    5.0972 C   0  0  2  0  0  0  0  0  0  0  0  0
   -0.6315   -8.0208    4.7315 O   0  0  0  0  0  0  0  0  0  0  0  0
   -3.1375   -8.7334    6.0439 C   0  0  0  0  0  0  0  0  0  0  0  0
   -4.4351   -9.3637    5.8890 N   0  3  0  0  0  0  0  0  0  0  0  0
   -4.3024    0.7116    0.2222 C   0  0  1  0  0  0  0  0  0  0  0  0
   -3.8352    0.6072   -1.1390 O   0  0  0  0  0  0  0  0  0  0  0  0
   -3.3682   -0.7173   -1.4843 C   0  0  2  0  0  0  0  0  0  0  0  0
   -4.4395   -1.6928   -1.4671 O   0  0  0  0  0  0  0  0  0  0  0  0
   -2.2186   -1.1423   -0.5627 C   0  0  2  0  0  0  0  0  0  0  0  0
   -1.9026   -2.5421   -0.7782 N   0  3  0  0  0  0  0  0  0  0  0  0
   -2.5631   -0.9269    0.9067 C   0  0  1  0  0  0  0  0  0  0  0  0
   -1.4010   -1.1063    1.7014 O   0  0  0  0  0  0  0  0  0  0  0  0
   -3.1602    0.4433    1.1885 C   0  0  2  0  0  0  0  0  0  0  0  0
   -3.6296    0.5113    2.5270 O   0  0  0  0  0  0  0  0  0  0  0  0
   -4.8149    2.1235    0.4916 C   0  0  0  0  0  0  0  0  0  0  0  0
   -5.4964    2.1875    1.7715 N   0  3  0  0  0  0  0  0  0  0  0  0
   -6.8225   -3.0522   -4.7188 C   0  0  2  0  0  0  0  0  0  0  0  0
   -5.8465   -1.9210   -4.9755 C   0  0  0  0  0  0  0  0  0  0  0  0
   -5.3910   -1.3044   -3.6658 C   0  0  1  0  0  0  0  0  0  0  0  0
   -4.6650   -2.3041   -2.7645 C   0  0  2  0  0  0  0  0  0  0  0  0
   -5.4901   -3.6013   -2.5996 C   0  0  1  0  0  0  0  0  0  0  0  0
   -6.1797   -4.1347   -3.8622 C   0  0  1  0  0  0  0  0  0  0  0  0
   -7.2461   -3.6197   -5.9847 N   0  3  0  0  0  0  0  0  0  0  0  0
   -4.5409   -0.1651   -3.9518 N   0  3  0  0  0  0  0  0  0  0  0  0
   -4.7096   -4.6524   -1.9792 O   0  0  0  0  0  0  0  0  0  0  0  0
   -7.1565   -5.1065   -3.5038 O   0  0  0  0  0  0  0  0  0  0  0  0
  1  2  1  0  0  0  0
  3  2  1  1  0  0  0
  3  4  1  0  0  0  0
  3  5  1  0  0  0  0
  4  8  1  0  0  0  0
  5  6  1  0  0  0  0
  5 12  1  1  0  0  0
  6  7  1  1  0  0  0
  6  8  1  0  0  0  0
  8 41  1  1  0  0  0
  9 10  1  0  0  0  0
  9 17  1  0  0  0  0
  9 19  1  1  0  0  0
 10 11  1  0  0  0  0
 11 12  1  6  0  0  0
 11 13  1  0  0  0  0
 13 14  1  1  0  0  0
 13 15  1  0  0  0  0
 15 16  1  1  0  0  0
 15 17  1  0  0  0  0
 17 18  1  6  0  0  0
 19 20  1  0  0  0  0
 21 22  1  0  0  0  0
 21 29  1  0  0  0  0
 21 31  1  1  0  0  0
 22 23  1  0  0  0  0
 23 24  1  1  0  0  0
 23 25  1  0  0  0  0
 25 26  1  1  0  0  0
 25 27  1  0  0  0  0
 27 28  1  1  0  0  0
 27 29  1  0  0  0  0
 29 30  1  1  0  0  0
 31 32  1  0  0  0  0
 33 34  1  0  0  0  0
 33 38  1  0  0  0  0
 33 39  1  6  0  0  0
 34 35  1  0  0  0  0
 35 36  1  0  0  0  0
 35 40  1  6  0  0  0
 36 24  1  1  0  0  0
 36 37  1  0  0  0  0
 37 38  1  0  0  0  0
 37 41  1  6  0  0  0
 38 42  1  1  0  0  0
M  CHG  6  14   1  20   1  26   1  32   1  39   1  40   1
M  END
>  <CHROM.1>
170.56471825,-73.22907321,-69.91199538,-19.71201221,-67.91158019,-51.56172939
163.54813999,103.96111528,-64.60820358,168.37149358,154.00962521,170.19959161
118.17232880,-75.23419281,-80.01399473,-176.42238139,66.58628262,-175.85663426
-75.30585115,-67.62473399,154.41388272,-57.60031514,-4.04057555,-3.91960489
0.43258660,-0.98301434,-1.09826555,-0.28553540

>  <Name>


>  <RI>
0

>  <Rbt.Current_Directory>
/home/itssahil/PROJECTS/Mol_Feturizer/New_Systems/rnas/1qd3

>  <Rbt.Executable>
rbdock ($Id: //depot/dev/client3/rdock/2013.1/src/exe/rbdock.cxx#4 $)

>  <Rbt.Library>
libRbt.so (2013.1, Build901 2013/11/27)

>  <Rbt.Parameter_File>
/export/apps/rDock/src/rDock_2013.1_src/data/scripts/dock_solv.prm

>  <Rbt.Receptor>
prm/blind_docking_20.prm

>  <SCORE>
-92.1048

>  <SCORE.INTER>
-74.0591

>  <SCORE.INTER.CONST>
1

>  <SCORE.INTER.POLAR>
-11.0397

>  <SCORE.INTER.ROT>
9

>  <SCORE.INTER.SOLV>
38.4889

>  <SCORE.INTER.VDW>
-35.0032

>  <SCORE.INTER.norm>
-1.76331

>  <SCORE.INTRA>
-18.451

>  <SCORE.INTRA.DIHEDRAL>
-13.3605

>  <SCORE.INTRA.DIHEDRAL.0>
40.6252

>  <SCORE.INTRA.POLAR>
-0.466042

>  <SCORE.INTRA.POLAR.0>
-1.20161

>  <SCORE.INTRA.REPUL>
-0.0412295

>  <SCORE.INTRA.REPUL.0>
0.115675

>  <SCORE.INTRA.SOLV>
-7.76898

>  <SCORE.INTRA.SOLV.lig_0>
-154.895

>  <SCORE.INTRA.VDW>
-6.09555

>  <SCORE.INTRA.VDW.0>
2.2925

>  <SCORE.INTRA.norm>
-0.439309

>  <SCORE.RESTR>
0.405196

>  <SCORE.RESTR.CAVITY>
0.405196

>  <SCORE.RESTR.norm>
0.00964752

>  <SCORE.SYSTEM>
0

>  <SCORE.SYSTEM.CONST>
0

>  <SCORE.SYSTEM.DIHEDRAL>
0

>  <SCORE.SYSTEM.SOLV>
0

>  <SCORE.SYSTEM.norm>
0

>  <SCORE.heavy>
42

>  <SCORE.norm>
-2.19297

>  <RMSD>
13.875

$$$$

 OpenBabel11021811413D
libRbt.so/2013.1/901 2013/11/27
 42 45  0  0  0  0  0  0  0  0999 V2000
   -4.1202   -7.9310   -1.3621 O   0  0  0  0  0  0  0  0  0  0  0  0
   -5.4603   -7.4666   -1.2827 C   0  0  0  0  0  0  0  0  0  0  0  0
   -5.6832   -6.7548    0.0523 C   0  0  1  0  0  0  0  0  0  0  0  0
   -5.0747   -7.4806    1.1424 O   0  0  0  0  0  0  0  0  0  0  0  0
   -5.0834   -5.3592    0.0994 C   0  0  2  0  0  0  0  0  0  0  0  0
   -5.0116   -5.1392    1.6012 C   0  0  1  0  0  0  0  0  0  0  0  0
   -6.3051   -4.8215    2.1031 O   0  0  0  0  0  0  0  0  0  0  0  0
   -4.5766   -6.5269    2.1146 C   0  0  2  0  0  0  0  0  0  0  0  0
   -6.4243   -4.7835   -4.1576 C   0  0  2  0  0  0  0  0  0  0  0  0
   -6.7086   -4.8342   -2.7511 O   0  0  0  0  0  0  0  0  0  0  0  0
   -5.6390   -4.2770   -1.9661 C   0  0  2  0  0  0  0  0  0  0  0  0
   -5.9303   -4.3962   -0.5580 O   0  0  0  0  0  0  0  0  0  0  0  0
   -5.4019   -2.8037   -2.3396 C   0  0  2  0  0  0  0  0  0  0  0  0
   -6.4266   -1.9545   -1.7607 N   0  3  0  0  0  0  0  0  0  0  0  0
   -5.3077   -2.5763   -3.8529 C   0  0  1  0  0  0  0  0  0  0  0  0
   -4.0281   -2.9829   -4.3114 O   0  0  0  0  0  0  0  0  0  0  0  0
   -6.3893   -3.3324   -4.6198 C   0  0  2  0  0  0  0  0  0  0  0  0
   -7.6552   -2.7194   -4.4052 O   0  0  0  0  0  0  0  0  0  0  0  0
   -7.4612   -5.5797   -4.9449 C   0  0  0  0  0  0  0  0  0  0  0  0
   -7.5363   -6.9417   -4.4506 N   0  3  0  0  0  0  0  0  0  0  0  0
   -1.9218   -4.0538    4.0002 C   0  0  1  0  0  0  0  0  0  0  0  0
   -1.4287   -5.2675    3.3953 O   0  0  0  0  0  0  0  0  0  0  0  0
   -1.0691   -6.2832    4.3599 C   0  0  2  0  0  0  0  0  0  0  0  0
   -2.2210   -6.7687    5.0928 O   0  0  0  0  0  0  0  0  0  0  0  0
    0.0140   -5.7638    5.3132 C   0  0  2  0  0  0  0  0  0  0  0  0
    0.2133   -6.7072    6.3977 N   0  3  0  0  0  0  0  0  0  0  0  0
   -0.3502   -4.4021    5.8942 C   0  0  1  0  0  0  0  0  0  0  0  0
    0.7700   -3.8575    6.5745 O   0  0  0  0  0  0  0  0  0  0  0  0
   -0.8338   -3.4121    4.8457 C   0  0  2  0  0  0  0  0  0  0  0  0
   -1.3316   -2.2371    5.4687 O   0  0  0  0  0  0  0  0  0  0  0  0
   -2.3172   -3.0538    2.9175 C   0  0  0  0  0  0  0  0  0  0  0  0
   -1.2930   -2.9746    1.8921 N   0  3  0  0  0  0  0  0  0  0  0  0
   -2.6155  -10.3079    2.7651 C   0  0  2  0  0  0  0  0  0  0  0  0
   -3.2028  -10.3058    4.1626 C   0  0  0  0  0  0  0  0  0  0  0  0
   -2.6352   -9.1573    4.9760 C   0  0  1  0  0  0  0  0  0  0  0  0
   -2.9576   -7.7903    4.3708 C   0  0  2  0  0  0  0  0  0  0  0  0
   -2.5853   -7.7474    2.8707 C   0  0  1  0  0  0  0  0  0  0  0  0
   -2.9222   -8.9991    2.0496 C   0  0  1  0  0  0  0  0  0  0  0  0
   -3.1690  -11.4167    2.0114 N   0  3  0  0  0  0  0  0  0  0  0  0
   -3.1397   -9.2460    6.3324 N   0  3  0  0  0  0  0  0  0  0  0  0
   -3.1247   -6.5693    2.2226 O   0  0  0  0  0  0  0  0  0  0  0  0
   -2.2319   -8.9592    0.8050 O   0  0  0  0  0  0  0  0  0  0  0  0
  1  2  1  0  0  0  0
  3  2  1  6  0  0  0
  3  4  1  0  0  0  0
  3  5  1  0  0  0  0
  4  8  1  0  0  0  0
  5  6  1  0  0  0  0
  5 12  1  6  0  0  0
  6  7  1  1  0  0  0
  6  8  1  0  0  0  0
  8 41  1  6  0  0  0
  9 10  1  0  0  0  0
  9 17  1  0  0  0  0
  9 19  1  6  0  0  0
 10 11  1  0  0  0  0
 11 12  1  1  0  0  0
 11 13  1  0  0  0  0
 13 14  1  6  0  0  0
 13 15  1  0  0  0  0
 15 16  1  6  0  0  0
 15 17  1  0  0  0  0
 17 18  1  1  0  0  0
 19 20  1  0  0  0  0
 21 22  1  0  0  0  0
 21 29  1  0  0  0  0
 21 31  1  6  0  0  0
 22 23  1  0  0  0  0
 23 24  1  1  0  0  0
 23 25  1  0  0  0  0
 25 26  1  1  0  0  0
 25 27  1  0  0  0  0
 27 28  1  6  0  0  0
 27 29  1  0  0  0  0
 29 30  1  1  0  0  0
 31 32  1  0  0  0  0
 33 34  1  0  0  0  0
 33 38  1  0  0  0  0
 33 39  1  6  0  0  0
 34 35  1  0  0  0  0
 35 36  1  0  0  0  0
 35 40  1  1  0  0  0
 36 24  1  1  0  0  0
 36 37  1  0  0  0  0
 37 38  1  0  0  0  0
 37 41  1  6  0  0  0
 38 42  1  6  0  0  0
M  CHG  6  14   1  20   1  26   1  32   1  39   1  40   1
M  END
>  <CHROM.1>
179.64941887,-42.84604625,-88.99753704,-174.27909629,-71.46053888,-55.22871319
109.79777663,177.41985870,-58.68980933,179.72904348,-163.43155946,-45.79538562
82.66838045,103.66894477,-46.21524998,-179.09248072,-66.94833960,-173.29728727
-65.22314786,-162.81267286,-67.30967351,156.79619081,-3.73153967,-5.79539579
1.25484021,2.69918959,-0.98924826,-0.25610601

>  <Name>


>  <RI>
0

>  <Rbt.Current_Directory>
/home/itssahil/PROJECTS/Mol_Feturizer/New_Systems/rnas/1qd3

>  <Rbt.Executable>
rbdock ($Id: //depot/dev/client3/rdock/2013.1/src/exe/rbdock.cxx#4 $)

>  <Rbt.Library>
libRbt.so (2013.1, Build901 2013/11/27)

>  <Rbt.Parameter_File>
/export/apps/rDock/src/rDock_2013.1_src/data/scripts/dock_solv.prm

>  <Rbt.Receptor>
prm/blind_docking_100.prm

>  <SCORE>
-47.09

>  <SCORE.INTER>
-31.995

>  <SCORE.INTER.CONST>
1

>  <SCORE.INTER.POLAR>
-4.33282

>  <SCORE.INTER.ROT>
9

>  <SCORE.INTER.SOLV>
26.8363

>  <SCORE.INTER.VDW>
-25.4326

>  <SCORE.INTER.norm>
-0.761785

>  <SCORE.INTRA>
-17.7025

>  <SCORE.INTRA.DIHEDRAL>
-13.2686

>  <SCORE.INTRA.DIHEDRAL.0>
40.6252

>  <SCORE.INTRA.POLAR>
0.0699072

>  <SCORE.INTRA.POLAR.0>
-1.20161

>  <SCORE.INTRA.REPUL>
-0.115367

>  <SCORE.INTRA.REPUL.0>
0.115675

>  <SCORE.INTRA.SOLV>
-11.4548

>  <SCORE.INTRA.SOLV.lig_0>
-154.895

>  <SCORE.INTRA.VDW>
-5.00167

>  <SCORE.INTRA.VDW.0>
2.2925

>  <SCORE.INTRA.norm>
-0.421488

>  <SCORE.RESTR>
2.60749

>  <SCORE.RESTR.CAVITY>
2.60749

>  <SCORE.RESTR.norm>
0.0620831

>  <SCORE.SYSTEM>
0

>  <SCORE.SYSTEM.CONST>
0

>  <SCORE.SYSTEM.DIHEDRAL>
0

>  <SCORE.SYSTEM.SOLV>
0

>  <SCORE.SYSTEM.norm>
0

>  <SCORE.heavy>
42

>  <SCORE.norm>
-1.12119

>  <RMSD>
13.887

$$$$

 OpenBabel11021811413D
libRbt.so/2013.1/901 2013/11/27
 42 45  0  0  0  0  0  0  0  0999 V2000
   -3.6038  -11.0472   -1.9515 O   0  0  0  0  0  0  0  0  0  0  0  0
   -3.5377   -9.6299   -2.0211 C   0  0  0  0  0  0  0  0  0  0  0  0
   -4.3577   -9.0171   -0.8851 C   0  0  1  0  0  0  0  0  0  0  0  0
   -3.8164   -9.3744    0.4052 O   0  0  0  0  0  0  0  0  0  0  0  0
   -4.3879   -7.4980   -0.9141 C   0  0  2  0  0  0  0  0  0  0  0  0
   -4.7977   -7.2016    0.5187 C   0  0  1  0  0  0  0  0  0  0  0  0
   -6.1938   -7.4295    0.6766 O   0  0  0  0  0  0  0  0  0  0  0  0
   -4.0013   -8.2578    1.3117 C   0  0  2  0  0  0  0  0  0  0  0  0
   -4.9166   -3.3837   -1.6480 C   0  0  2  0  0  0  0  0  0  0  0  0
   -4.6061   -4.7563   -1.9327 O   0  0  0  0  0  0  0  0  0  0  0  0
   -5.7086   -5.6306   -1.6313 C   0  0  2  0  0  0  0  0  0  0  0  0
   -5.3442   -7.0054   -1.8732 O   0  0  0  0  0  0  0  0  0  0  0  0
   -6.9455   -5.2514   -2.4638 C   0  0  2  0  0  0  0  0  0  0  0  0
   -6.8041   -5.7094   -3.8337 N   0  3  0  0  0  0  0  0  0  0  0  0
   -7.2550   -3.7502   -2.4284 C   0  0  1  0  0  0  0  0  0  0  0  0
   -7.8836   -3.4278   -1.1981 O   0  0  0  0  0  0  0  0  0  0  0  0
   -6.0012   -2.8970   -2.6006 C   0  0  2  0  0  0  0  0  0  0  0  0
   -5.5425   -2.9737   -3.9453 O   0  0  0  0  0  0  0  0  0  0  0  0
   -3.6666   -2.5153   -1.7587 C   0  0  0  0  0  0  0  0  0  0  0  0
   -3.9853   -1.1296   -1.4706 N   0  3  0  0  0  0  0  0  0  0  0  0
   -1.8034   -4.6446    1.5932 C   0  0  1  0  0  0  0  0  0  0  0  0
   -1.2184   -5.5573    2.5455 O   0  0  0  0  0  0  0  0  0  0  0  0
   -1.7243   -5.3849    3.8893 C   0  0  2  0  0  0  0  0  0  0  0  0
   -3.1304   -5.7208    3.9880 O   0  0  0  0  0  0  0  0  0  0  0  0
   -1.4603   -3.9587    4.3874 C   0  0  2  0  0  0  0  0  0  0  0  0
   -2.1532   -3.7361    5.6428 N   0  3  0  0  0  0  0  0  0  0  0  0
   -1.9120   -2.9135    3.3735 C   0  0  1  0  0  0  0  0  0  0  0  0
   -1.4392   -1.6335    3.7638 O   0  0  0  0  0  0  0  0  0  0  0  0
   -1.4478   -3.2121    1.9563 C   0  0  2  0  0  0  0  0  0  0  0  0
   -2.0537   -2.3133    1.0388 O   0  0  0  0  0  0  0  0  0  0  0  0
   -1.2498   -4.9198    0.1981 C   0  0  0  0  0  0  0  0  0  0  0  0
   -1.6137   -6.2530   -0.2457 N   0  3  0  0  0  0  0  0  0  0  0  0
   -2.0774   -9.7456    4.8774 C   0  0  2  0  0  0  0  0  0  0  0  0
   -3.2038   -9.1126    5.6702 C   0  0  0  0  0  0  0  0  0  0  0  0
   -3.1767   -7.6029    5.5196 C   0  0  1  0  0  0  0  0  0  0  0  0
   -3.3629   -7.1514    4.0704 C   0  0  2  0  0  0  0  0  0  0  0  0
   -2.3901   -7.8984    3.1288 C   0  0  1  0  0  0  0  0  0  0  0  0
   -2.1954   -9.3960    3.4001 C   0  0  1  0  0  0  0  0  0  0  0  0
   -2.1222  -11.1860    5.0425 N   0  3  0  0  0  0  0  0  0  0  0  0
   -4.2009   -7.0261    6.3686 N   0  3  0  0  0  0  0  0  0  0  0  0
   -2.7304   -7.6869    1.7365 O   0  0  0  0  0  0  0  0  0  0  0  0
   -1.0473   -9.8669    2.7021 O   0  0  0  0  0  0  0  0  0  0  0  0
  1  2  1  0  0  0  0
  3  2  1  6  0  0  0
  3  4  1  0  0  0  0
  3  5  1  0  0  0  0
  4  8  1  0  0  0  0
  5  6  1  0  0  0  0
  5 12  1  6  0  0  0
  6  7  1  6  0  0  0
  6  8  1  0  0  0  0
  8 41  1  6  0  0  0
  9 10  1  0  0  0  0
  9 17  1  0  0  0  0
  9 19  1  6  0  0  0
 10 11  1  0  0  0  0
 11 12  1  6  0  0  0
 11 13  1  0  0  0  0
 13 14  1  6  0  0  0
 13 15  1  0  0  0  0
 15 16  1  1  0  0  0
 15 17  1  0  0  0  0
 17 18  1  6  0  0  0
 19 20  1  0  0  0  0
 21 22  1  0  0  0  0
 21 29  1  0  0  0  0
 21 31  1  6  0  0  0
 22 23  1  0  0  0  0
 23 24  1  6  0  0  0
 23 25  1  0  0  0  0
 25 26  1  1  0  0  0
 25 27  1  0  0  0  0
 27 28  1  1  0  0  0
 27 29  1  0  0  0  0
 29 30  1  6  0  0  0
 31 32  1  0  0  0  0
 33 34  1  0  0  0  0
 33 38  1  0  0  0  0
 33 39  1  6  0  0  0
 34 35  1  0  0  0  0
 35 36  1  0  0  0  0
 35 40  1  1  0  0  0
 36 24  1  1  0  0  0
 36 37  1  0  0  0  0
 37 38  1  0  0  0  0
 37 41  1  6  0  0  0
 38 42  1  6  0  0  0
M  CHG  6  14   1  20   1  26   1  32   1  39   1  40   1
M  END
>  <CHROM.1>
-179.16377981,63.12736561,161.27465444,-66.93825454,-110.87120635,179.98134506
70.07009306,153.28090967,89.52240621,-171.98223583,162.66075217,63.01379576
79.61095218,82.66729246,4.33271847,-170.78354477,64.77569658,131.73132141
-70.33052078,-150.92002637,-66.22417898,64.47028926,-3.60632351,-6.05486481
1.05016453,2.57829981,-1.09177046,-0.11428729

>  <Name>


>  <RI>
0

>  <Rbt.Current_Directory>
/home/itssahil/PROJECTS/Mol_Feturizer/New_Systems/rnas/1qd3

>  <Rbt.Executable>
rbdock ($Id: //depot/dev/client3/rdock/2013.1/src/exe/rbdock.cxx#4 $)

>  <Rbt.Library>
libRbt.so (2013.1, Build901 2013/11/27)

>  <Rbt.Parameter_File>
/export/apps/rDock/src/rDock_2013.1_src/data/scripts/dock_solv.prm

>  <Rbt.Receptor>
prm/blind_docking_80.prm

>  <SCORE>
-50.5757

>  <SCORE.INTER>
-36.6949

>  <SCORE.INTER.CONST>
1

>  <SCORE.INTER.POLAR>
-5.32481

>  <SCORE.INTER.ROT>
9

>  <SCORE.INTER.SOLV>
34.4444

>  <SCORE.INTER.VDW>
-27.7954

>  <SCORE.INTER.norm>
-0.873689

>  <SCORE.INTRA>
-14.3631

>  <SCORE.INTRA.DIHEDRAL>
-11.0326

>  <SCORE.INTRA.DIHEDRAL.0>
40.6252

>  <SCORE.INTRA.POLAR>
0.00456286

>  <SCORE.INTRA.POLAR.0>
-1.20161

>  <SCORE.INTRA.REPUL>
-0.115675

>  <SCORE.INTRA.REPUL.0>
0.115675

>  <SCORE.INTRA.SOLV>
-4.77411

>  <SCORE.INTRA.SOLV.lig_0>
-154.895

>  <SCORE.INTRA.VDW>
-5.89692

>  <SCORE.INTRA.VDW.0>
2.2925

>  <SCORE.INTRA.norm>
-0.34198

>  <SCORE.RESTR>
0.48237

>  <SCORE.RESTR.CAVITY>
0.48237

>  <SCORE.RESTR.norm>
0.011485

>  <SCORE.SYSTEM>
0

>  <SCORE.SYSTEM.CONST>
0

>  <SCORE.SYSTEM.DIHEDRAL>
0

>  <SCORE.SYSTEM.SOLV>
0

>  <SCORE.SYSTEM.norm>
0

>  <SCORE.heavy>
42

>  <SCORE.norm>
-1.20418

>  <RMSD>
13.893

$$$$

 OpenBabel11021811413D
libRbt.so/2013.1/901 2013/11/27
 42 45  0  0  0  0  0  0  0  0999 V2000
   -5.9004   -3.8637    1.5779 O   0  0  0  0  0  0  0  0  0  0  0  0
   -5.7434   -5.2490    1.8501 C   0  0  0  0  0  0  0  0  0  0  0  0
   -5.4490   -6.0016    0.5519 C   0  0  1  0  0  0  0  0  0  0  0  0
   -5.9373   -5.2765   -0.5976 O   0  0  0  0  0  0  0  0  0  0  0  0
   -3.9656   -6.2190    0.3037 C   0  0  2  0  0  0  0  0  0  0  0  0
   -3.9723   -6.4947   -1.1906 C   0  0  1  0  0  0  0  0  0  0  0  0
   -4.4159   -7.8254   -1.4321 O   0  0  0  0  0  0  0  0  0  0  0  0
   -5.0242   -5.4903   -1.7037 C   0  0  2  0  0  0  0  0  0  0  0  0
   -2.9432   -7.8149    4.6513 C   0  0  2  0  0  0  0  0  0  0  0  0
   -3.1754   -8.1430    3.2729 O   0  0  0  0  0  0  0  0  0  0  0  0
   -3.1648   -6.9745    2.4330 C   0  0  2  0  0  0  0  0  0  0  0  0
   -3.4585   -7.3317    1.0664 O   0  0  0  0  0  0  0  0  0  0  0  0
   -1.8064   -6.2575    2.5176 C   0  0  2  0  0  0  0  0  0  0  0  0
   -0.8016   -6.9656    1.7459 N   0  3  0  0  0  0  0  0  0  0  0  0
   -1.3276   -6.0480    3.9590 C   0  0  1  0  0  0  0  0  0  0  0  0
   -2.0302   -4.9582    4.5349 O   0  0  0  0  0  0  0  0  0  0  0  0
   -1.5218   -7.2933    4.8198 C   0  0  2  0  0  0  0  0  0  0  0  0
   -0.5845   -8.2952    4.4427 O   0  0  0  0  0  0  0  0  0  0  0  0
   -3.1849   -9.0305    5.5416 C   0  0  0  0  0  0  0  0  0  0  0  0
   -4.5845   -9.4116    5.5095 N   0  3  0  0  0  0  0  0  0  0  0  0
   -2.9739   -2.2671    0.6131 C   0  0  1  0  0  0  0  0  0  0  0  0
   -4.2615   -2.5482    0.0257 O   0  0  0  0  0  0  0  0  0  0  0  0
   -4.7583   -1.4746   -0.8062 C   0  0  2  0  0  0  0  0  0  0  0  0
   -3.9372   -1.2746   -1.9832 O   0  0  0  0  0  0  0  0  0  0  0  0
   -4.8881   -0.1790    0.0040 C   0  0  2  0  0  0  0  0  0  0  0  0
   -5.1824    0.9320   -0.8820 N   0  3  0  0  0  0  0  0  0  0  0  0
   -3.6163    0.1278    0.7868 C   0  0  1  0  0  0  0  0  0  0  0  0
   -3.8589    1.1907    1.6955 O   0  0  0  0  0  0  0  0  0  0  0  0
   -3.0757   -1.0730    1.5480 C   0  0  2  0  0  0  0  0  0  0  0  0
   -1.8005   -0.7757    2.0976 O   0  0  0  0  0  0  0  0  0  0  0  0
   -2.5039   -3.4620    1.4377 C   0  0  0  0  0  0  0  0  0  0  0  0
   -1.0653   -3.4224    1.6265 N   0  3  0  0  0  0  0  0  0  0  0  0
   -6.9316   -2.8665   -4.5520 C   0  0  2  0  0  0  0  0  0  0  0  0
   -6.0015   -1.8088   -5.1127 C   0  0  0  0  0  0  0  0  0  0  0  0
   -5.2887   -1.0785   -3.9896 C   0  0  1  0  0  0  0  0  0  0  0  0
   -4.4218   -2.0077   -3.1387 C   0  0  2  0  0  0  0  0  0  0  0  0
   -5.2251   -3.2461   -2.6781 C   0  0  1  0  0  0  0  0  0  0  0  0
   -6.1567   -3.8794   -3.7199 C   0  0  1  0  0  0  0  0  0  0  0  0
   -7.6037   -3.5448   -5.6439 N   0  3  0  0  0  0  0  0  0  0  0  0
   -4.4876   -0.0107   -4.5556 N   0  3  0  0  0  0  0  0  0  0  0  0
   -4.3603   -4.2579   -2.1061 O   0  0  0  0  0  0  0  0  0  0  0  0
   -7.0648   -4.7680   -3.0774 O   0  0  0  0  0  0  0  0  0  0  0  0
  1  2  1  0  0  0  0
  3  2  1  1  0  0  0
  3  4  1  0  0  0  0
  3  5  1  0  0  0  0
  4  8  1  0  0  0  0
  5  6  1  0  0  0  0
  5 12  1  1  0  0  0
  6  7  1  1  0  0  0
  6  8  1  0  0  0  0
  8 41  1  1  0  0  0
  9 10  1  0  0  0  0
  9 17  1  0  0  0  0
  9 19  1  1  0  0  0
 10 11  1  0  0  0  0
 11 12  1  6  0  0  0
 11 13  1  0  0  0  0
 13 14  1  6  0  0  0
 13 15  1  0  0  0  0
 15 16  1  1  0  0  0
 15 17  1  0  0  0  0
 17 18  1  6  0  0  0
 19 20  1  0  0  0  0
 21 22  1  0  0  0  0
 21 29  1  0  0  0  0
 21 31  1  1  0  0  0
 22 23  1  0  0  0  0
 23 24  1  6  0  0  0
 23 25  1  0  0  0  0
 25 26  1  6  0  0  0
 25 27  1  0  0  0  0
 27 28  1  1  0  0  0
 27 29  1  0  0  0  0
 29 30  1  6  0  0  0
 31 32  1  0  0  0  0
 33 34  1  0  0  0  0
 33 38  1  0  0  0  0
 33 39  1  6  0  0  0
 34 35  1  0  0  0  0
 35 36  1  0  0  0  0
 35 40  1  6  0  0  0
 36 24  1  1  0  0  0
 36 37  1  0  0  0  0
 37 38  1  0  0  0  0
 37 41  1  6  0  0  0
 38 42  1  1  0  0  0
M  CHG  6  14   1  20   1  26   1  32   1  39   1  40   1
M  END
>  <CHROM.1>
-50.52013878,-23.70100844,-81.18088713,179.33511366,-66.28311355,-65.73710902
157.43642792,-38.87184885,67.46410422,168.59523963,27.97594998,159.21529630
93.50238990,95.82871592,53.24984297,-156.43520626,-155.53209661,-38.06511778
-52.19910118,159.77192031,-177.10870696,64.18849695,-3.99871218,-4.20607139
0.28664607,-0.91430202,-1.03582868,-0.28765219

>  <Name>


>  <RI>
0

>  <Rbt.Current_Directory>
/home/itssahil/PROJECTS/Mol_Feturizer/New_Systems/rnas/1qd3

>  <Rbt.Executable>
rbdock ($Id: //depot/dev/client3/rdock/2013.1/src/exe/rbdock.cxx#4 $)

>  <Rbt.Library>
libRbt.so (2013.1, Build901 2013/11/27)

>  <Rbt.Parameter_File>
/export/apps/rDock/src/rDock_2013.1_src/data/scripts/dock_solv.prm

>  <Rbt.Receptor>
prm/blind_docking_20.prm

>  <SCORE>
-69.8264

>  <SCORE.INTER>
-57.9847

>  <SCORE.INTER.CONST>
1

>  <SCORE.INTER.POLAR>
-8.46458

>  <SCORE.INTER.ROT>
9

>  <SCORE.INTER.SOLV>
30.1687

>  <SCORE.INTER.VDW>
-30.0974

>  <SCORE.INTER.norm>
-1.38059

>  <SCORE.INTRA>
-11.9907

>  <SCORE.INTRA.DIHEDRAL>
-9.74515

>  <SCORE.INTRA.DIHEDRAL.0>
40.6252

>  <SCORE.INTRA.POLAR>
-0.0697253

>  <SCORE.INTRA.POLAR.0>
-1.20161

>  <SCORE.INTRA.REPUL>
0.0196461

>  <SCORE.INTRA.REPUL.0>
0.115675

>  <SCORE.INTRA.SOLV>
-3.25598

>  <SCORE.INTRA.SOLV.lig_0>
-154.895

>  <SCORE.INTRA.VDW>
-5.35127

>  <SCORE.INTRA.VDW.0>
2.2925

>  <SCORE.INTRA.norm>
-0.285492

>  <SCORE.RESTR>
0.14898

>  <SCORE.RESTR.CAVITY>
0.14898

>  <SCORE.RESTR.norm>
0.00354715

>  <SCORE.SYSTEM>
0

>  <SCORE.SYSTEM.CONST>
0

>  <SCORE.SYSTEM.DIHEDRAL>
0

>  <SCORE.SYSTEM.SOLV>
0

>  <SCORE.SYSTEM.norm>
0

>  <SCORE.heavy>
42

>  <SCORE.norm>
-1.66253

>  <RMSD>
13.917

$$$$

 OpenBabel11021811413D
libRbt.so/2013.1/901 2013/11/27
 42 45  0  0  0  0  0  0  0  0999 V2000
   -5.6237   -3.4960   -3.2563 O   0  0  0  0  0  0  0  0  0  0  0  0
   -5.2350   -3.1488   -1.9349 C   0  0  0  0  0  0  0  0  0  0  0  0
   -5.2690   -4.3900   -1.0423 C   0  0  1  0  0  0  0  0  0  0  0  0
   -4.1093   -4.4513   -0.1837 O   0  0  0  0  0  0  0  0  0  0  0  0
   -6.4722   -4.4336   -0.1151 C   0  0  2  0  0  0  0  0  0  0  0  0
   -5.9838   -5.4268    0.9261 C   0  0  1  0  0  0  0  0  0  0  0  0
   -6.0772   -6.7498    0.4097 O   0  0  0  0  0  0  0  0  0  0  0  0
   -4.5021   -5.0302    1.0865 C   0  0  2  0  0  0  0  0  0  0  0  0
   -7.2482   -7.8171   -2.9534 C   0  0  2  0  0  0  0  0  0  0  0  0
   -7.6026   -7.0385   -1.8003 O   0  0  0  0  0  0  0  0  0  0  0  0
   -7.3417   -5.6370   -1.9971 C   0  0  2  0  0  0  0  0  0  0  0  0
   -7.6536   -4.8921   -0.8015 O   0  0  0  0  0  0  0  0  0  0  0  0
   -8.1498   -5.0965   -3.1892 C   0  0  2  0  0  0  0  0  0  0  0  0
   -9.5415   -4.9063   -2.8240 N   0  3  0  0  0  0  0  0  0  0  0  0
   -8.0381   -5.9782   -4.4386 C   0  0  1  0  0  0  0  0  0  0  0  0
   -6.7909   -5.7412   -5.0722 O   0  0  0  0  0  0  0  0  0  0  0  0
   -8.1714   -7.4632   -4.1123 C   0  0  2  0  0  0  0  0  0  0  0  0
   -9.5199   -7.7670   -3.7747 O   0  0  0  0  0  0  0  0  0  0  0  0
   -7.3195   -9.3085   -2.6379 C   0  0  0  0  0  0  0  0  0  0  0  0
   -7.1489  -10.0909   -3.8478 N   0  3  0  0  0  0  0  0  0  0  0  0
   -3.6787    0.7751    1.4363 C   0  0  1  0  0  0  0  0  0  0  0  0
   -4.3544   -0.4923    1.5744 O   0  0  0  0  0  0  0  0  0  0  0  0
   -3.5670   -1.6144    1.1136 C   0  0  2  0  0  0  0  0  0  0  0  0
   -2.3870   -1.8216    1.9287 O   0  0  0  0  0  0  0  0  0  0  0  0
   -3.1948   -1.4429   -0.3642 C   0  0  2  0  0  0  0  0  0  0  0  0
   -2.2362   -2.4598   -0.7549 N   0  3  0  0  0  0  0  0  0  0  0  0
   -2.6048   -0.0648   -0.6421 C   0  0  1  0  0  0  0  0  0  0  0  0
   -2.4970    0.1354   -2.0430 O   0  0  0  0  0  0  0  0  0  0  0  0
   -3.4142    1.0689   -0.0314 C   0  0  2  0  0  0  0  0  0  0  0  0
   -2.7177    2.2993   -0.1632 O   0  0  0  0  0  0  0  0  0  0  0  0
   -4.5568    1.8974    1.9822 C   0  0  0  0  0  0  0  0  0  0  0  0
   -5.7762    2.0206    1.2046 N   0  3  0  0  0  0  0  0  0  0  0  0
   -1.7278   -4.8865    4.8047 C   0  0  2  0  0  0  0  0  0  0  0  0
   -1.5552   -3.4467    5.2465 C   0  0  0  0  0  0  0  0  0  0  0  0
   -1.4279   -2.5327    4.0418 C   0  0  1  0  0  0  0  0  0  0  0  0
   -2.6665   -2.5630    3.1452 C   0  0  2  0  0  0  0  0  0  0  0  0
   -3.0623   -4.0166    2.7971 C   0  0  1  0  0  0  0  0  0  0  0  0
   -2.9703   -5.0390    3.9376 C   0  0  1  0  0  0  0  0  0  0  0  0
   -1.8412   -5.7387    5.9730 N   0  3  0  0  0  0  0  0  0  0  0  0
   -1.1635   -1.1828    4.5002 N   0  3  0  0  0  0  0  0  0  0  0  0
   -4.3720   -4.0779    2.1808 O   0  0  0  0  0  0  0  0  0  0  0  0
   -3.0266   -6.3590    3.4072 O   0  0  0  0  0  0  0  0  0  0  0  0
  1  2  1  0  0  0  0
  3  2  1  1  0  0  0
  3  4  1  0  0  0  0
  3  5  1  0  0  0  0
  4  8  1  0  0  0  0
  5  6  1  0  0  0  0
  5 12  1  6  0  0  0
  6  7  1  6  0  0  0
  6  8  1  0  0  0  0
  8 41  1  1  0  0  0
  9 10  1  0  0  0  0
  9 17  1  0  0  0  0
  9 19  1  1  0  0  0
 10 11  1  0  0  0  0
 11 12  1  1  0  0  0
 11 13  1  0  0  0  0
 13 14  1  1  0  0  0
 13 15  1  0  0  0  0
 15 16  1  1  0  0  0
 15 17  1  0  0  0  0
 17 18  1  1  0  0  0
 19 20  1  0  0  0  0
 21 22  1  0  0  0  0
 21 29  1  0  0  0  0
 21 31  1  6  0  0  0
 22 23  1  0  0  0  0
 23 24  1  1  0  0  0
 23 25  1  0  0  0  0
 25 26  1  1  0  0  0
 25 27  1  0  0  0  0
 27 28  1  6  0  0  0
 27 29  1  0  0  0  0
 29 30  1  1  0  0  0
 31 32  1  0  0  0  0
 33 34  1  0  0  0  0
 33 38  1  0  0  0  0
 33 39  1  1  0  0  0
 34 35  1  0  0  0  0
 35 36  1  0  0  0  0
 35 40  1  1  0  0  0
 36 24  1  6  0  0  0
 36 37  1  0  0  0  0
 37 38  1  0  0  0  0
 37 41  1  1  0  0  0
 38 42  1  6  0  0  0
M  CHG  6  14   1  20   1  26   1  32   1  39   1  40   1
M  END
>  <CHROM.1>
-178.59382838,136.83150362,21.03945330,-173.62585720,-86.67182071,171.86061650
107.45087830,79.40158682,69.75465964,177.66460541,163.53179043,-63.73696616
81.86343452,-170.75992290,56.01551874,-23.36836785,174.35796233,-158.92350192
46.27517136,-55.58919764,140.59654565,166.22683118,-4.84094529,-3.77900841
0.05386552,2.80594081,0.96745328,2.75842534

>  <Name>


>  <RI>
0

>  <Rbt.Current_Directory>
/home/itssahil/PROJECTS/Mol_Feturizer/New_Systems/rnas/1qd3

>  <Rbt.Executable>
rbdock ($Id: //depot/dev/client3/rdock/2013.1/src/exe/rbdock.cxx#4 $)

>  <Rbt.Library>
libRbt.so (2013.1, Build901 2013/11/27)

>  <Rbt.Parameter_File>
/export/apps/rDock/src/rDock_2013.1_src/data/scripts/dock_solv.prm

>  <Rbt.Receptor>
prm/blind_docking_100.prm

>  <SCORE>
-69.4275

>  <SCORE.INTER>
-57.8863

>  <SCORE.INTER.CONST>
1

>  <SCORE.INTER.POLAR>
-8.74168

>  <SCORE.INTER.ROT>
9

>  <SCORE.INTER.SOLV>
40.9737

>  <SCORE.INTER.VDW>
-32.7098

>  <SCORE.INTER.norm>
-1.37824

>  <SCORE.INTRA>
-12.5211

>  <SCORE.INTRA.DIHEDRAL>
-4.43169

>  <SCORE.INTRA.DIHEDRAL.0>
40.6252

>  <SCORE.INTRA.POLAR>
0.0582459

>  <SCORE.INTRA.POLAR.0>
-1.20161

>  <SCORE.INTRA.REPUL>
-0.115675

>  <SCORE.INTRA.REPUL.0>
0.115675

>  <SCORE.INTRA.SOLV>
-7.67542

>  <SCORE.INTRA.SOLV.lig_0>
-154.895

>  <SCORE.INTRA.VDW>
-6.08725

>  <SCORE.INTRA.VDW.0>
2.2925

>  <SCORE.INTRA.norm>
-0.298123

>  <SCORE.RESTR>
0.979879

>  <SCORE.RESTR.CAVITY>
0.979879

>  <SCORE.RESTR.norm>
0.0233305

>  <SCORE.SYSTEM>
0

>  <SCORE.SYSTEM.CONST>
0

>  <SCORE.SYSTEM.DIHEDRAL>
0

>  <SCORE.SYSTEM.SOLV>
0

>  <SCORE.SYSTEM.norm>
0

>  <SCORE.heavy>
42

>  <SCORE.norm>
-1.65304

>  <RMSD>
13.921

$$$$

 OpenBabel11021811413D
libRbt.so/2013.1/901 2013/11/27
 42 45  0  0  0  0  0  0  0  0999 V2000
   -4.1096   -0.5494    2.0018 O   0  0  0  0  0  0  0  0  0  0  0  0
   -4.9239   -1.6164    1.5370 C   0  0  0  0  0  0  0  0  0  0  0  0
   -4.0714   -2.6143    0.7523 C   0  0  1  0  0  0  0  0  0  0  0  0
   -3.3656   -3.5116    1.6369 O   0  0  0  0  0  0  0  0  0  0  0  0
   -4.8832   -3.5029   -0.1756 C   0  0  2  0  0  0  0  0  0  0  0  0
   -3.9033   -4.6433   -0.3946 C   0  0  1  0  0  0  0  0  0  0  0  0
   -2.9001   -4.2440   -1.3219 O   0  0  0  0  0  0  0  0  0  0  0  0
   -3.2829   -4.8151    1.0070 C   0  0  2  0  0  0  0  0  0  0  0  0
   -8.0524   -2.9243   -3.7054 C   0  0  2  0  0  0  0  0  0  0  0  0
   -6.7647   -2.5721   -3.1770 O   0  0  0  0  0  0  0  0  0  0  0  0
   -6.4925   -3.2422   -1.9330 C   0  0  2  0  0  0  0  0  0  0  0  0
   -5.2187   -2.8226   -1.4010 O   0  0  0  0  0  0  0  0  0  0  0  0
   -6.5155   -4.7687   -2.1223 C   0  0  2  0  0  0  0  0  0  0  0  0
   -5.2996   -5.2256   -2.7698 N   0  3  0  0  0  0  0  0  0  0  0  0
   -7.7493   -5.2594   -2.8888 C   0  0  1  0  0  0  0  0  0  0  0  0
   -8.8707   -5.2687   -2.0198 O   0  0  0  0  0  0  0  0  0  0  0  0
   -8.0549   -4.3935   -4.1080 C   0  0  2  0  0  0  0  0  0  0  0  0
   -7.0852   -4.6249   -5.1233 O   0  0  0  0  0  0  0  0  0  0  0  0
   -8.4078   -2.0348   -4.8934 C   0  0  0  0  0  0  0  0  0  0  0  0
   -7.2787   -1.9219   -5.7975 N   0  3  0  0  0  0  0  0  0  0  0  0
   -1.5165   -4.7308    3.5338 C   0  0  1  0  0  0  0  0  0  0  0  0
   -1.2354   -6.1399    3.6659 O   0  0  0  0  0  0  0  0  0  0  0  0
   -1.9500   -6.7668    4.7558 C   0  0  2  0  0  0  0  0  0  0  0  0
   -3.3819   -6.7737    4.5341 O   0  0  0  0  0  0  0  0  0  0  0  0
   -1.6001   -6.0945    6.0889 C   0  0  2  0  0  0  0  0  0  0  0  0
   -2.4746   -6.5874    7.1368 N   0  3  0  0  0  0  0  0  0  0  0  0
   -1.7232   -4.5771    6.0060 C   0  0  1  0  0  0  0  0  0  0  0  0
   -1.1690   -3.9882    7.1723 O   0  0  0  0  0  0  0  0  0  0  0  0
   -1.0522   -3.9869    4.7753 C   0  0  2  0  0  0  0  0  0  0  0  0
   -1.3617   -2.6059    4.6589 O   0  0  0  0  0  0  0  0  0  0  0  0
   -0.7592   -4.1568    2.3397 C   0  0  0  0  0  0  0  0  0  0  0  0
   -0.1504   -5.2180    1.5587 N   0  3  0  0  0  0  0  0  0  0  0  0
   -2.6804   -9.3503    1.2222 C   0  0  2  0  0  0  0  0  0  0  0  0
   -3.3808   -9.9267    2.4368 C   0  0  0  0  0  0  0  0  0  0  0  0
   -3.1898   -9.0218    3.6399 C   0  0  1  0  0  0  0  0  0  0  0  0
   -3.7758   -7.6254    3.4264 C   0  0  2  0  0  0  0  0  0  0  0  0
   -3.2840   -7.0168    2.0928 C   0  0  1  0  0  0  0  0  0  0  0  0
   -3.2266   -7.9682    0.8904 C   0  0  1  0  0  0  0  0  0  0  0  0
   -2.8732  -10.2355    0.0895 N   0  3  0  0  0  0  0  0  0  0  0  0
   -3.7843   -9.6518    4.8026 N   0  3  0  0  0  0  0  0  0  0  0  0
   -4.0295   -5.8239    1.7461 O   0  0  0  0  0  0  0  0  0  0  0  0
   -2.4515   -7.3829   -0.1507 O   0  0  0  0  0  0  0  0  0  0  0  0
  1  2  1  0  0  0  0
  3  2  1  1  0  0  0
  3  4  1  0  0  0  0
  3  5  1  0  0  0  0
  4  8  1  0  0  0  0
  5  6  1  0  0  0  0
  5 12  1  6  0  0  0
  6  7  1  6  0  0  0
  6  8  1  0  0  0  0
  8 41  1  1  0  0  0
  9 10  1  0  0  0  0
  9 17  1  0  0  0  0
  9 19  1  6  0  0  0
 10 11  1  0  0  0  0
 11 12  1  6  0  0  0
 11 13  1  0  0  0  0
 13 14  1  6  0  0  0
 13 15  1  0  0  0  0
 15 16  1  1  0  0  0
 15 17  1  0  0  0  0
 17 18  1  6  0  0  0
 19 20  1  0  0  0  0
 21 22  1  0  0  0  0
 21 29  1  0  0  0  0
 21 31  1  6  0  0  0
 22 23  1  0  0  0  0
 23 24  1  6  0  0  0
 23 25  1  0  0  0  0
 25 26  1  1  0  0  0
 25 27  1  0  0  0  0
 27 28  1  1  0  0  0
 27 29  1  0  0  0  0
 29 30  1  6  0  0  0
 31 32  1  0  0  0  0
 33 34  1  0  0  0  0
 33 38  1  0  0  0  0
 33 39  1  6  0  0  0
 34 35  1  0  0  0  0
 35 36  1  0  0  0  0
 35 40  1  1  0  0  0
 36 24  1  1  0  0  0
 36 37  1  0  0  0  0
 37 38  1  0  0  0  0
 37 41  1  6  0  0  0
 38 42  1  6  0  0  0
M  CHG  6  14   1  20   1  26   1  32   1  39   1  40   1
M  END
>  <CHROM.1>
176.78434549,81.00725046,-147.69398643,70.87626962,-127.10308220,45.84955212
-178.04755640,-61.89833041,62.43513580,42.48732690,160.51696180,9.08759959
67.13909558,53.22901136,-157.85987391,-174.87912582,-72.31872804,-61.83546780
-58.47902090,-56.75698612,148.43025669,-38.17038186,-3.98910301,-5.12970945
0.97184925,-2.87833732,1.02265502,-3.11782954

>  <Name>


>  <RI>
0

>  <Rbt.Current_Directory>
/home/itssahil/PROJECTS/Mol_Feturizer/New_Systems/rnas/1qd3

>  <Rbt.Executable>
rbdock ($Id: //depot/dev/client3/rdock/2013.1/src/exe/rbdock.cxx#4 $)

>  <Rbt.Library>
libRbt.so (2013.1, Build901 2013/11/27)

>  <Rbt.Parameter_File>
/export/apps/rDock/src/rDock_2013.1_src/data/scripts/dock_solv.prm

>  <Rbt.Receptor>
prm/blind_docking_40.prm

>  <SCORE>
-39.2607

>  <SCORE.INTER>
-32.1536

>  <SCORE.INTER.CONST>
1

>  <SCORE.INTER.POLAR>
-5.27075

>  <SCORE.INTER.ROT>
9

>  <SCORE.INTER.SOLV>
29.6176

>  <SCORE.INTER.VDW>
-23.3391

>  <SCORE.INTER.norm>
-0.765562

>  <SCORE.INTRA>
-9.44429

>  <SCORE.INTRA.DIHEDRAL>
-10.2166

>  <SCORE.INTRA.DIHEDRAL.0>
40.6252

>  <SCORE.INTRA.POLAR>
0.106144

>  <SCORE.INTRA.POLAR.0>
-1.20161

>  <SCORE.INTRA.REPUL>
-0.115675

>  <SCORE.INTRA.REPUL.0>
0.115675

>  <SCORE.INTRA.SOLV>
-2.1926

>  <SCORE.INTRA.SOLV.lig_0>
-154.895

>  <SCORE.INTRA.VDW>
-3.02219

>  <SCORE.INTRA.VDW.0>
2.2925

>  <SCORE.INTRA.norm>
-0.224864

>  <SCORE.RESTR>
2.33719

>  <SCORE.RESTR.CAVITY>
2.33719

>  <SCORE.RESTR.norm>
0.0556474

>  <SCORE.SYSTEM>
0

>  <SCORE.SYSTEM.CONST>
0

>  <SCORE.SYSTEM.DIHEDRAL>
0

>  <SCORE.SYSTEM.SOLV>
0

>  <SCORE.SYSTEM.norm>
0

>  <SCORE.heavy>
42

>  <SCORE.norm>
-0.934779

>  <RMSD>
13.968

$$$$

 OpenBabel11021811413D
libRbt.so/2013.1/901 2013/11/27
 42 45  0  0  0  0  0  0  0  0999 V2000
   -0.2277   -4.7448    0.9029 O   0  0  0  0  0  0  0  0  0  0  0  0
   -1.0898   -5.5756    1.6672 C   0  0  0  0  0  0  0  0  0  0  0  0
   -1.4190   -4.8959    2.9969 C   0  0  1  0  0  0  0  0  0  0  0  0
   -1.6658   -3.4843    2.8180 O   0  0  0  0  0  0  0  0  0  0  0  0
   -2.6650   -5.4515    3.6664 C   0  0  2  0  0  0  0  0  0  0  0  0
   -3.0013   -4.3126    4.6144 C   0  0  1  0  0  0  0  0  0  0  0  0
   -2.1313   -4.3512    5.7403 O   0  0  0  0  0  0  0  0  0  0  0  0
   -2.6918   -3.0698    3.7553 C   0  0  2  0  0  0  0  0  0  0  0  0
   -0.8843   -9.7268    3.0114 C   0  0  2  0  0  0  0  0  0  0  0  0
   -1.1324   -8.6406    3.9169 O   0  0  0  0  0  0  0  0  0  0  0  0
   -2.2038   -7.7949    3.4613 C   0  0  2  0  0  0  0  0  0  0  0  0
   -2.3881   -6.6830    4.3620 O   0  0  0  0  0  0  0  0  0  0  0  0
   -3.5097   -8.5971    3.3288 C   0  0  2  0  0  0  0  0  0  0  0  0
   -4.0990   -8.8404    4.6326 N   0  3  0  0  0  0  0  0  0  0  0  0
   -3.3293   -9.9151    2.5665 C   0  0  1  0  0  0  0  0  0  0  0  0
   -3.2568   -9.6481    1.1750 O   0  0  0  0  0  0  0  0  0  0  0  0
   -2.0792  -10.6717    3.0074 C   0  0  2  0  0  0  0  0  0  0  0  0
   -2.2755  -11.2186    4.3062 O   0  0  0  0  0  0  0  0  0  0  0  0
    0.3929  -10.4677    3.3972 C   0  0  0  0  0  0  0  0  0  0  0  0
    0.8651  -10.0215    4.6945 N   0  3  0  0  0  0  0  0  0  0  0  0
   -6.8386   -3.9449   -1.5529 C   0  0  1  0  0  0  0  0  0  0  0  0
   -6.8807   -3.8874   -0.1117 O   0  0  0  0  0  0  0  0  0  0  0  0
   -5.6297   -4.2564    0.5131 C   0  0  2  0  0  0  0  0  0  0  0  0
   -4.5730   -3.3113    0.2134 O   0  0  0  0  0  0  0  0  0  0  0  0
   -5.2263   -5.6813    0.1147 C   0  0  2  0  0  0  0  0  0  0  0  0
   -3.8780   -5.9608    0.5727 N   0  3  0  0  0  0  0  0  0  0  0  0
   -5.2957   -5.8872   -1.3944 C   0  0  1  0  0  0  0  0  0  0  0  0
   -5.1474   -7.2661   -1.6959 O   0  0  0  0  0  0  0  0  0  0  0  0
   -6.5867   -5.3719   -2.0116 C   0  0  2  0  0  0  0  0  0  0  0  0
   -6.5100   -5.4207   -3.4288 O   0  0  0  0  0  0  0  0  0  0  0  0
   -8.1788   -3.5017   -2.1327 C   0  0  0  0  0  0  0  0  0  0  0  0
   -8.0666   -3.2589   -3.5593 N   0  3  0  0  0  0  0  0  0  0  0  0
   -3.5190    0.6808    1.2392 C   0  0  2  0  0  0  0  0  0  0  0  0
   -4.7331    0.4695    0.3565 C   0  0  0  0  0  0  0  0  0  0  0  0
   -4.7268   -0.9300   -0.2301 C   0  0  1  0  0  0  0  0  0  0  0  0
   -4.7787   -2.0191    0.8423 C   0  0  2  0  0  0  0  0  0  0  0  0
   -3.7000   -1.7821    1.9244 C   0  0  1  0  0  0  0  0  0  0  0  0
   -3.4979   -0.3302    2.3778 C   0  0  1  0  0  0  0  0  0  0  0  0
   -3.5459    2.0256    1.7819 N   0  3  0  0  0  0  0  0  0  0  0  0
   -5.8435   -1.0624   -1.1454 N   0  3  0  0  0  0  0  0  0  0  0  0
   -3.9053   -2.6370    3.0759 O   0  0  0  0  0  0  0  0  0  0  0  0
   -2.2754   -0.2161    3.0986 O   0  0  0  0  0  0  0  0  0  0  0  0
  1  2  1  0  0  0  0
  3  2  1  6  0  0  0
  3  4  1  0  0  0  0
  3  5  1  0  0  0  0
  4  8  1  0  0  0  0
  5  6  1  0  0  0  0
  5 12  1  1  0  0  0
  6  7  1  1  0  0  0
  6  8  1  0  0  0  0
  8 41  1  6  0  0  0
  9 10  1  0  0  0  0
  9 17  1  0  0  0  0
  9 19  1  1  0  0  0
 10 11  1  0  0  0  0
 11 12  1  1  0  0  0
 11 13  1  0  0  0  0
 13 14  1  1  0  0  0
 13 15  1  0  0  0  0
 15 16  1  6  0  0  0
 15 17  1  0  0  0  0
 17 18  1  1  0  0  0
 19 20  1  0  0  0  0
 21 22  1  0  0  0  0
 21 29  1  0  0  0  0
 21 31  1  6  0  0  0
 22 23  1  0  0  0  0
 23 24  1  6  0  0  0
 23 25  1  0  0  0  0
 25 26  1  6  0  0  0
 25 27  1  0  0  0  0
 27 28  1  1  0  0  0
 27 29  1  0  0  0  0
 29 30  1  6  0  0  0
 31 32  1  0  0  0  0
 33 34  1  0  0  0  0
 33 38  1  0  0  0  0
 33 39  1  1  0  0  0
 34 35  1  0  0  0  0
 35 36  1  0  0  0  0
 35 40  1  6  0  0  0
 36 24  1  6  0  0  0
 36 37  1  0  0  0  0
 37 38  1  0  0  0  0
 37 41  1  1  0  0  0
 38 42  1  6  0  0  0
M  CHG  6  14   1  20   1  26   1  32   1  39   1  40   1
M  END
>  <CHROM.1>
-166.08953624,41.38115609,-73.90497394,68.82109449,-43.83451064,10.08241977
140.11535290,96.46036799,-67.71407686,-55.31483192,179.05296759,166.96184036
68.88097985,-125.66032614,-35.40136434,-69.54885041,170.97682364,59.71755718
-57.14901596,43.78272816,146.99855688,-76.63738255,-3.60550614,-5.05923126
1.58459824,-0.88483866,-0.86982426,0.06937733

>  <Name>


>  <RI>
0

>  <Rbt.Current_Directory>
/home/itssahil/PROJECTS/Mol_Feturizer/New_Systems/rnas/1qd3

>  <Rbt.Executable>
rbdock ($Id: //depot/dev/client3/rdock/2013.1/src/exe/rbdock.cxx#4 $)

>  <Rbt.Library>
libRbt.so (2013.1, Build901 2013/11/27)

>  <Rbt.Parameter_File>
/export/apps/rDock/src/rDock_2013.1_src/data/scripts/dock_solv.prm

>  <Rbt.Receptor>
prm/blind_docking_60.prm

>  <SCORE>
-45.4849

>  <SCORE.INTER>
-37.2378

>  <SCORE.INTER.CONST>
1

>  <SCORE.INTER.POLAR>
-4.31916

>  <SCORE.INTER.ROT>
9

>  <SCORE.INTER.SOLV>
26.7041

>  <SCORE.INTER.VDW>
-28.9294

>  <SCORE.INTER.norm>
-0.886614

>  <SCORE.INTRA>
-11.8732

>  <SCORE.INTRA.DIHEDRAL>
-5.89364

>  <SCORE.INTRA.DIHEDRAL.0>
40.6252

>  <SCORE.INTRA.POLAR>
0.306237

>  <SCORE.INTRA.POLAR.0>
-1.20161

>  <SCORE.INTRA.REPUL>
-0.115675

>  <SCORE.INTRA.REPUL.0>
0.115675

>  <SCORE.INTRA.SOLV>
-1.27574

>  <SCORE.INTRA.SOLV.lig_0>
-154.895

>  <SCORE.INTRA.VDW>
-8.75134

>  <SCORE.INTRA.VDW.0>
2.2925

>  <SCORE.INTRA.norm>
-0.282695

>  <SCORE.RESTR>
3.62609

>  <SCORE.RESTR.CAVITY>
3.62609

>  <SCORE.RESTR.norm>
0.0863354

>  <SCORE.SYSTEM>
0

>  <SCORE.SYSTEM.CONST>
0

>  <SCORE.SYSTEM.DIHEDRAL>
0

>  <SCORE.SYSTEM.SOLV>
0

>  <SCORE.SYSTEM.norm>
0

>  <SCORE.heavy>
42

>  <SCORE.norm>
-1.08297

>  <RMSD>
13.968

$$$$

 OpenBabel11021811413D
libRbt.so/2013.1/901 2013/11/27
 42 45  0  0  0  0  0  0  0  0999 V2000
   -5.4529   -9.3544   -2.5313 O   0  0  0  0  0  0  0  0  0  0  0  0
   -5.2963   -8.7270   -1.2665 C   0  0  0  0  0  0  0  0  0  0  0  0
   -4.1603   -7.7055   -1.3324 C   0  0  1  0  0  0  0  0  0  0  0  0
   -4.6185   -6.4446   -1.8671 O   0  0  0  0  0  0  0  0  0  0  0  0
   -3.5584   -7.3841    0.0255 C   0  0  2  0  0  0  0  0  0  0  0  0
   -2.8783   -6.0599   -0.2794 C   0  0  1  0  0  0  0  0  0  0  0  0
   -1.6666   -6.2936   -0.9886 O   0  0  0  0  0  0  0  0  0  0  0  0
   -3.9026   -5.3716   -1.2045 C   0  0  2  0  0  0  0  0  0  0  0  0
   -3.3281   -8.2543    4.0271 C   0  0  2  0  0  0  0  0  0  0  0  0
   -3.5680   -8.3696    2.6162 O   0  0  0  0  0  0  0  0  0  0  0  0
   -2.3449   -8.3396    1.8587 C   0  0  2  0  0  0  0  0  0  0  0  0
   -2.6246   -8.3987    0.4445 O   0  0  0  0  0  0  0  0  0  0  0  0
   -1.4231   -9.5005    2.2698 C   0  0  2  0  0  0  0  0  0  0  0  0
   -1.8845  -10.7518    1.6974 N   0  3  0  0  0  0  0  0  0  0  0  0
   -1.2643   -9.6310    3.7892 C   0  0  1  0  0  0  0  0  0  0  0  0
   -0.3606   -8.6414    4.2549 O   0  0  0  0  0  0  0  0  0  0  0  0
   -2.5952   -9.4940    4.5236 C   0  0  2  0  0  0  0  0  0  0  0  0
   -3.3911  -10.6533    4.3067 O   0  0  0  0  0  0  0  0  0  0  0  0
   -4.6403   -8.0602    4.7816 C   0  0  0  0  0  0  0  0  0  0  0  0
   -4.3858   -7.8487    6.1942 N   0  3  0  0  0  0  0  0  0  0  0  0
   -2.8734   -2.5816    1.0704 C   0  0  1  0  0  0  0  0  0  0  0  0
   -4.2780   -2.4336    0.7748 O   0  0  0  0  0  0  0  0  0  0  0  0
   -4.5468   -1.4511   -0.2517 C   0  0  2  0  0  0  0  0  0  0  0  0
   -4.0175   -1.8520   -1.5397 O   0  0  0  0  0  0  0  0  0  0  0  0
   -4.0100   -0.0757    0.1628 C   0  0  2  0  0  0  0  0  0  0  0  0
   -4.0958    0.8468   -0.9541 N   0  3  0  0  0  0  0  0  0  0  0  0
   -2.5636   -0.1535    0.6385 C   0  0  1  0  0  0  0  0  0  0  0  0
   -2.1875    1.0811    1.2289 O   0  0  0  0  0  0  0  0  0  0  0  0
   -2.3172   -1.2817    1.6283 C   0  0  2  0  0  0  0  0  0  0  0  0
   -0.9273   -1.4182    1.8852 O   0  0  0  0  0  0  0  0  0  0  0  0
   -2.6735   -3.6628    2.1285 C   0  0  0  0  0  0  0  0  0  0  0  0
   -3.4068   -3.3396    3.3387 N   0  3  0  0  0  0  0  0  0  0  0  0
   -7.7061   -3.6327   -2.6899 C   0  0  2  0  0  0  0  0  0  0  0  0
   -6.8271   -3.0493   -3.7786 C   0  0  0  0  0  0  0  0  0  0  0  0
   -5.7852   -2.1221   -3.1807 C   0  0  1  0  0  0  0  0  0  0  0  0
   -4.8478   -2.8381   -2.2072 C   0  0  2  0  0  0  0  0  0  0  0  0
   -5.6492   -3.6471   -1.1612 C   0  0  1  0  0  0  0  0  0  0  0  0
   -6.8713   -4.4136   -1.6839 C   0  0  1  0  0  0  0  0  0  0  0  0
   -8.6953   -4.5092   -3.2873 N   0  3  0  0  0  0  0  0  0  0  0  0
   -5.0307   -1.5061   -4.2547 N   0  3  0  0  0  0  0  0  0  0  0  0
   -4.7910   -4.5375   -0.4066 O   0  0  0  0  0  0  0  0  0  0  0  0
   -7.6901   -4.8178   -0.5915 O   0  0  0  0  0  0  0  0  0  0  0  0
  1  2  1  0  0  0  0
  3  2  1  1  0  0  0
  3  4  1  0  0  0  0
  3  5  1  0  0  0  0
  4  8  1  0  0  0  0
  5  6  1  0  0  0  0
  5 12  1  6  0  0  0
  6  7  1  6  0  0  0
  6  8  1  0  0  0  0
  8 41  1  1  0  0  0
  9 10  1  0  0  0  0
  9 17  1  0  0  0  0
  9 19  1  1  0  0  0
 10 11  1  0  0  0  0
 11 12  1  6  0  0  0
 11 13  1  0  0  0  0
 13 14  1  1  0  0  0
 13 15  1  0  0  0  0
 15 16  1  1  0  0  0
 15 17  1  0  0  0  0
 17 18  1  6  0  0  0
 19 20  1  0  0  0  0
 21 22  1  0  0  0  0
 21 29  1  0  0  0  0
 21 31  1  1  0  0  0
 22 23  1  0  0  0  0
 23 24  1  6  0  0  0
 23 25  1  0  0  0  0
 25 26  1  6  0  0  0
 25 27  1  0  0  0  0
 27 28  1  1  0  0  0
 27 29  1  0  0  0  0
 29 30  1  6  0  0  0
 31 32  1  0  0  0  0
 33 34  1  0  0  0  0
 33 38  1  0  0  0  0
 33 39  1  6  0  0  0
 34 35  1  0  0  0  0
 35 36  1  0  0  0  0
 35 40  1  6  0  0  0
 36 24  1  1  0  0  0
 36 37  1  0  0  0  0
 37 38  1  0  0  0  0
 37 41  1  6  0  0  0
 38 42  1  1  0  0  0
M  CHG  6  14   1  20   1  26   1  32   1  39   1  40   1
M  END
>  <CHROM.1>
65.39848168,83.30924206,-162.75752461,-42.91692430,-73.70622390,-175.92802914
53.35268054,-71.91899858,61.33051654,-147.09456077,72.86265568,-58.04526471
78.23866334,95.68066193,-55.35550301,64.70830528,53.03824495,174.41651123
63.54335560,-176.35151059,-49.67255694,-43.30752265,-3.92720287,-5.17081840
0.45175147,1.13688659,0.96475377,2.95532683

>  <Name>


>  <RI>
0

>  <Rbt.Current_Directory>
/home/itssahil/PROJECTS/Mol_Feturizer/New_Systems/rnas/1qd3

>  <Rbt.Executable>
rbdock ($Id: //depot/dev/client3/rdock/2013.1/src/exe/rbdock.cxx#4 $)

>  <Rbt.Library>
libRbt.so (2013.1, Build901 2013/11/27)

>  <Rbt.Parameter_File>
/export/apps/rDock/src/rDock_2013.1_src/data/scripts/dock_solv.prm

>  <Rbt.Receptor>
prm/blind_docking_60.prm

>  <SCORE>
-48.9522

>  <SCORE.INTER>
-35.5919

>  <SCORE.INTER.CONST>
1

>  <SCORE.INTER.POLAR>
-4.75822

>  <SCORE.INTER.ROT>
9

>  <SCORE.INTER.SOLV>
28.7297

>  <SCORE.INTER.VDW>
-27.0438

>  <SCORE.INTER.norm>
-0.847426

>  <SCORE.INTRA>
-17.2223

>  <SCORE.INTRA.DIHEDRAL>
-18.507

>  <SCORE.INTRA.DIHEDRAL.0>
40.6252

>  <SCORE.INTRA.POLAR>
0.690198

>  <SCORE.INTRA.POLAR.0>
-1.20161

>  <SCORE.INTRA.REPUL>
-0.0669363

>  <SCORE.INTRA.REPUL.0>
0.115675

>  <SCORE.INTRA.SOLV>
-11.5324

>  <SCORE.INTRA.SOLV.lig_0>
-154.895

>  <SCORE.INTRA.VDW>
-4.21458

>  <SCORE.INTRA.VDW.0>
2.2925

>  <SCORE.INTRA.norm>
-0.410054

>  <SCORE.RESTR>
3.86195

>  <SCORE.RESTR.CAVITY>
3.86195

>  <SCORE.RESTR.norm>
0.0919513

>  <SCORE.SYSTEM>
0

>  <SCORE.SYSTEM.CONST>
0

>  <SCORE.SYSTEM.DIHEDRAL>
0

>  <SCORE.SYSTEM.SOLV>
0

>  <SCORE.SYSTEM.norm>
0

>  <SCORE.heavy>
42

>  <SCORE.norm>
-1.16553

>  <RMSD>
13.973

$$$$

 OpenBabel11021811413D
libRbt.so/2013.1/901 2013/11/27
 42 45  0  0  0  0  0  0  0  0999 V2000
   -2.5235   -4.9489   -1.6078 O   0  0  0  0  0  0  0  0  0  0  0  0
   -3.7841   -5.4672   -2.0080 C   0  0  0  0  0  0  0  0  0  0  0  0
   -4.3986   -6.2747   -0.8640 C   0  0  1  0  0  0  0  0  0  0  0  0
   -3.5703   -7.4052   -0.5153 O   0  0  0  0  0  0  0  0  0  0  0  0
   -4.5662   -5.4747    0.4172 C   0  0  2  0  0  0  0  0  0  0  0  0
   -4.6915   -6.5991    1.4316 C   0  0  1  0  0  0  0  0  0  0  0  0
   -5.9984   -7.1594    1.3694 O   0  0  0  0  0  0  0  0  0  0  0  0
   -3.6580   -7.6212    0.9160 C   0  0  2  0  0  0  0  0  0  0  0  0
   -7.8133   -3.5313   -2.4258 C   0  0  2  0  0  0  0  0  0  0  0  0
   -7.4583   -3.9161   -1.0889 O   0  0  0  0  0  0  0  0  0  0  0  0
   -6.0534   -4.2026   -0.9671 C   0  0  2  0  0  0  0  0  0  0  0  0
   -5.7412   -4.6414    0.3714 O   0  0  0  0  0  0  0  0  0  0  0  0
   -5.2136   -2.9669   -1.3336 C   0  0  2  0  0  0  0  0  0  0  0  0
   -5.2289   -1.9957   -0.2552 N   0  3  0  0  0  0  0  0  0  0  0  0
   -5.6501   -2.3142   -2.6505 C   0  0  1  0  0  0  0  0  0  0  0  0
   -5.1541   -3.0752   -3.7404 O   0  0  0  0  0  0  0  0  0  0  0  0
   -7.1676   -2.1929   -2.7607 C   0  0  2  0  0  0  0  0  0  0  0  0
   -7.6398   -1.1856   -1.8737 O   0  0  0  0  0  0  0  0  0  0  0  0
   -9.3298   -3.4564   -2.5791 C   0  0  0  0  0  0  0  0  0  0  0  0
   -9.6990   -3.4818   -3.9820 N   0  3  0  0  0  0  0  0  0  0  0  0
   -2.1152   -3.3468    3.6420 C   0  0  1  0  0  0  0  0  0  0  0  0
   -1.8126   -4.4997    2.8288 O   0  0  0  0  0  0  0  0  0  0  0  0
   -1.5887   -5.7021    3.6004 C   0  0  2  0  0  0  0  0  0  0  0  0
   -2.7871   -6.1366    4.2895 O   0  0  0  0  0  0  0  0  0  0  0  0
   -0.4270   -5.5059    4.5820 C   0  0  2  0  0  0  0  0  0  0  0  0
   -0.3494   -6.6352    5.4899 N   0  3  0  0  0  0  0  0  0  0  0  0
   -0.5810   -4.2225    5.3906 C   0  0  1  0  0  0  0  0  0  0  0  0
    0.6168   -3.9614    6.1056 O   0  0  0  0  0  0  0  0  0  0  0  0
   -0.9326   -3.0138    4.5369 C   0  0  2  0  0  0  0  0  0  0  0  0
   -1.2452   -1.9010    5.3618 O   0  0  0  0  0  0  0  0  0  0  0  0
   -2.3787   -2.1349    2.7527 C   0  0  0  0  0  0  0  0  0  0  0  0
   -1.3908   -2.0507    1.6926 N   0  3  0  0  0  0  0  0  0  0  0  0
   -2.3239  -10.3543    3.9798 C   0  0  2  0  0  0  0  0  0  0  0  0
   -3.4466   -9.8233    4.8491 C   0  0  0  0  0  0  0  0  0  0  0  0
   -3.2238   -8.3565    5.1679 C   0  0  1  0  0  0  0  0  0  0  0  0
   -3.1958   -7.4786    3.9160 C   0  0  2  0  0  0  0  0  0  0  0  0
   -2.2221   -8.0513    2.8602 C   0  0  1  0  0  0  0  0  0  0  0  0
   -2.2378   -9.5744    2.6748 C   0  0  1  0  0  0  0  0  0  0  0  0
   -2.5575  -11.7572    3.6947 N   0  3  0  0  0  0  0  0  0  0  0  0
   -4.2584   -7.9102    6.0804 N   0  3  0  0  0  0  0  0  0  0  0  0
   -2.3811   -7.3942    1.5788 O   0  0  0  0  0  0  0  0  0  0  0  0
   -1.0847   -9.9830    1.9465 O   0  0  0  0  0  0  0  0  0  0  0  0
  1  2  1  0  0  0  0
  3  2  1  6  0  0  0
  3  4  1  0  0  0  0
  3  5  1  0  0  0  0
  4  8  1  0  0  0  0
  5  6  1  0  0  0  0
  5 12  1  6  0  0  0
  6  7  1  6  0  0  0
  6  8  1  0  0  0  0
  8 41  1  1  0  0  0
  9 10  1  0  0  0  0
  9 17  1  0  0  0  0
  9 19  1  1  0  0  0
 10 11  1  0  0  0  0
 11 12  1  1  0  0  0
 11 13  1  0  0  0  0
 13 14  1  1  0  0  0
 13 15  1  0  0  0  0
 15 16  1  6  0  0  0
 15 17  1  0  0  0  0
 17 18  1  1  0  0  0
 19 20  1  0  0  0  0
 21 22  1  0  0  0  0
 21 29  1  0  0  0  0
 21 31  1  6  0  0  0
 22 23  1  0  0  0  0
 23 24  1  1  0  0  0
 23 25  1  0  0  0  0
 25 26  1  1  0  0  0
 25 27  1  0  0  0  0
 27 28  1  6  0  0  0
 27 29  1  0  0  0  0
 29 30  1  1  0  0  0
 31 32  1  0  0  0  0
 33 34  1  0  0  0  0
 33 38  1  0  0  0  0
 33 39  1  6  0  0  0
 34 35  1  0  0  0  0
 35 36  1  0  0  0  0
 35 40  1  1  0  0  0
 36 24  1  1  0  0  0
 36 37  1  0  0  0  0
 37 38  1  0  0  0  0
 37 41  1  6  0  0  0
 38 42  1  1  0  0  0
M  CHG  6  14   1  20   1  26   1  32   1  39   1  40   1
M  END
>  <CHROM.1>
61.89980647,-61.78690063,-30.78690982,164.58215892,-157.41393504,-162.31969865
154.29271183,-65.92310076,-177.30376797,-63.92824854,-63.64878694,-44.26629315
121.17818013,121.11698595,173.41735073,-59.92309955,-2.02491828,-165.62973366
-39.12522884,81.63251107,-66.09943214,-179.92088210,-3.74590909,-5.40057265
1.49042572,-2.57734210,0.85946335,2.98351842

>  <Name>


>  <RI>
0

>  <Rbt.Current_Directory>
/home/itssahil/PROJECTS/Mol_Feturizer/New_Systems/rnas/1qd3

>  <Rbt.Executable>
rbdock ($Id: //depot/dev/client3/rdock/2013.1/src/exe/rbdock.cxx#4 $)

>  <Rbt.Library>
libRbt.so (2013.1, Build901 2013/11/27)

>  <Rbt.Parameter_File>
/export/apps/rDock/src/rDock_2013.1_src/data/scripts/dock_solv.prm

>  <Rbt.Receptor>
prm/blind_docking_80.prm

>  <SCORE>
-39.9207

>  <SCORE.INTER>
-39.2909

>  <SCORE.INTER.CONST>
1

>  <SCORE.INTER.POLAR>
-5.57771

>  <SCORE.INTER.ROT>
9

>  <SCORE.INTER.SOLV>
30.4751

>  <SCORE.INTER.VDW>
-27.3599

>  <SCORE.INTER.norm>
-0.935497

>  <SCORE.INTRA>
-1.80006

>  <SCORE.INTRA.DIHEDRAL>
-2.7177

>  <SCORE.INTRA.DIHEDRAL.0>
40.6252

>  <SCORE.INTRA.POLAR>
0.89364

>  <SCORE.INTRA.POLAR.0>
-1.20161

>  <SCORE.INTRA.REPUL>
-0.115675

>  <SCORE.INTRA.REPUL.0>
0.115675

>  <SCORE.INTRA.SOLV>
-9.47859

>  <SCORE.INTRA.SOLV.lig_0>
-154.895

>  <SCORE.INTRA.VDW>
1.83808

>  <SCORE.INTRA.VDW.0>
2.2925

>  <SCORE.INTRA.norm>
-0.0428586

>  <SCORE.RESTR>
1.17028

>  <SCORE.RESTR.CAVITY>
1.17028

>  <SCORE.RESTR.norm>
0.0278637

>  <SCORE.SYSTEM>
0

>  <SCORE.SYSTEM.CONST>
0

>  <SCORE.SYSTEM.DIHEDRAL>
0

>  <SCORE.SYSTEM.SOLV>
0

>  <SCORE.SYSTEM.norm>
0

>  <SCORE.heavy>
42

>  <SCORE.norm>
-0.950492

>  <RMSD>
13.976

$$$$

 OpenBabel11021811413D
libRbt.so/2013.1/901 2013/11/27
 42 45  0  0  0  0  0  0  0  0999 V2000
   -3.8973   -9.7396   -0.2253 O   0  0  0  0  0  0  0  0  0  0  0  0
   -4.6327   -8.8455   -1.0483 C   0  0  0  0  0  0  0  0  0  0  0  0
   -3.8397   -7.5530   -1.2461 C   0  0  1  0  0  0  0  0  0  0  0  0
   -4.5963   -6.5835   -2.0033 O   0  0  0  0  0  0  0  0  0  0  0  0
   -3.4736   -6.8642    0.0581 C   0  0  2  0  0  0  0  0  0  0  0  0
   -3.1828   -5.4594   -0.4428 C   0  0  1  0  0  0  0  0  0  0  0  0
   -1.8998   -5.4243   -1.0582 O   0  0  0  0  0  0  0  0  0  0  0  0
   -4.2803   -5.2580   -1.5074 C   0  0  2  0  0  0  0  0  0  0  0  0
   -3.2113   -6.9129    4.1761 C   0  0  2  0  0  0  0  0  0  0  0  0
   -3.3287   -7.3645    2.8182 O   0  0  0  0  0  0  0  0  0  0  0  0
   -2.1514   -7.0629    2.0476 C   0  0  2  0  0  0  0  0  0  0  0  0
   -2.3251   -7.4768    0.6765 O   0  0  0  0  0  0  0  0  0  0  0  0
   -0.9140   -7.7429    2.6583 C   0  0  2  0  0  0  0  0  0  0  0  0
   -0.8985   -9.1601    2.3457 N   0  3  0  0  0  0  0  0  0  0  0  0
   -0.7954   -7.5251    4.1713 C   0  0  1  0  0  0  0  0  0  0  0  0
   -0.3017   -6.2188    4.4218 O   0  0  0  0  0  0  0  0  0  0  0  0
   -2.1292   -7.7137    4.8890 C   0  0  2  0  0  0  0  0  0  0  0  0
   -2.4766   -9.0933    4.9134 O   0  0  0  0  0  0  0  0  0  0  0  0
   -4.5476   -7.0387    4.9022 C   0  0  0  0  0  0  0  0  0  0  0  0
   -5.2815   -8.1921    4.4164 N   0  3  0  0  0  0  0  0  0  0  0  0
   -5.3072    1.3264   -0.5442 C   0  0  1  0  0  0  0  0  0  0  0  0
   -4.3357    0.5017   -1.2211 O   0  0  0  0  0  0  0  0  0  0  0  0
   -4.1973   -0.8150   -0.6393 C   0  0  2  0  0  0  0  0  0  0  0  0
   -5.4039   -1.6038   -0.7864 O   0  0  0  0  0  0  0  0  0  0  0  0
   -3.7788   -0.7141    0.8326 C   0  0  2  0  0  0  0  0  0  0  0  0
   -3.8485   -2.0216    1.4582 N   0  3  0  0  0  0  0  0  0  0  0  0
   -4.6619    0.2590    1.6058 C   0  0  1  0  0  0  0  0  0  0  0  0
   -4.1003    0.4999    2.8867 O   0  0  0  0  0  0  0  0  0  0  0  0
   -4.8668    1.5839    0.8875 C   0  0  2  0  0  0  0  0  0  0  0  0
   -5.8412    2.3658    1.5628 O   0  0  0  0  0  0  0  0  0  0  0  0
   -5.4228    2.6779   -1.2434 C   0  0  0  0  0  0  0  0  0  0  0  0
   -6.4965    3.4654   -0.6656 N   0  3  0  0  0  0  0  0  0  0  0  0
   -7.2273   -3.5662   -4.0915 C   0  0  2  0  0  0  0  0  0  0  0  0
   -6.2885   -2.4111   -4.3789 C   0  0  0  0  0  0  0  0  0  0  0  0
   -6.0564   -1.5899   -3.1241 C   0  0  1  0  0  0  0  0  0  0  0  0
   -5.4106   -2.4009   -1.9997 C   0  0  2  0  0  0  0  0  0  0  0  0
   -6.1783   -3.7213   -1.7585 C   0  0  1  0  0  0  0  0  0  0  0  0
   -6.6530   -4.4713   -3.0101 C   0  0  1  0  0  0  0  0  0  0  0  0
   -7.4368   -4.3305   -5.3064 N   0  3  0  0  0  0  0  0  0  0  0  0
   -5.2385   -0.4402   -3.4578 N   0  3  0  0  0  0  0  0  0  0  0  0
   -5.4363   -4.6173   -0.8951 O   0  0  0  0  0  0  0  0  0  0  0  0
   -7.6157   -5.4551   -2.6462 O   0  0  0  0  0  0  0  0  0  0  0  0
  1  2  1  0  0  0  0
  3  2  1  1  0  0  0
  3  4  1  0  0  0  0
  3  5  1  0  0  0  0
  4  8  1  0  0  0  0
  5  6  1  0  0  0  0
  5 12  1  6  0  0  0
  6  7  1  6  0  0  0
  6  8  1  0  0  0  0
  8 41  1  1  0  0  0
  9 10  1  0  0  0  0
  9 17  1  0  0  0  0
  9 19  1  1  0  0  0
 10 11  1  0  0  0  0
 11 12  1  6  0  0  0
 11 13  1  0  0  0  0
 13 14  1  1  0  0  0
 13 15  1  0  0  0  0
 15 16  1  6  0  0  0
 15 17  1  0  0  0  0
 17 18  1  6  0  0  0
 19 20  1  0  0  0  0
 21 22  1  0  0  0  0
 21 29  1  0  0  0  0
 21 31  1  6  0  0  0
 22 23  1  0  0  0  0
 23 24  1  1  0  0  0
 23 25  1  0  0  0  0
 25 26  1  1  0  0  0
 25 27  1  0  0  0  0
 27 28  1  1  0  0  0
 27 29  1  0  0  0  0
 29 30  1  1  0  0  0
 31 32  1  0  0  0  0
 33 34  1  0  0  0  0
 33 38  1  0  0  0  0
 33 39  1  6  0  0  0
 34 35  1  0  0  0  0
 35 36  1  0  0  0  0
 35 40  1  6  0  0  0
 36 24  1  1  0  0  0
 36 37  1  0  0  0  0
 37 38  1  0  0  0  0
 37 41  1  6  0  0  0
 38 42  1  1  0  0  0
M  CHG  6  14   1  20   1  26   1  32   1  39   1  40   1
M  END
>  <CHROM.1>
156.73093893,-176.07299757,-166.08035227,179.36037419,-96.18871761,33.51343702
57.36237933,-37.86031189,-65.76771127,-65.90512561,151.20557145,173.84211331
91.19572790,-90.75918172,91.20905889,-176.14259267,-143.13565355,-50.31242441
-177.38000573,177.05604812,-73.34079902,66.47899559,-4.29112465,-4.12804670
0.22352425,0.76491575,1.11124046,-2.84965442

>  <Name>


>  <RI>
0

>  <Rbt.Current_Directory>
/home/itssahil/PROJECTS/Mol_Feturizer/New_Systems/rnas/1qd3

>  <Rbt.Executable>
rbdock ($Id: //depot/dev/client3/rdock/2013.1/src/exe/rbdock.cxx#4 $)

>  <Rbt.Library>
libRbt.so (2013.1, Build901 2013/11/27)

>  <Rbt.Parameter_File>
/export/apps/rDock/src/rDock_2013.1_src/data/scripts/dock_solv.prm

>  <Rbt.Receptor>
prm/blind_docking_20.prm

>  <SCORE>
-50.4094

>  <SCORE.INTER>
-35.9248

>  <SCORE.INTER.CONST>
1

>  <SCORE.INTER.POLAR>
-4.87886

>  <SCORE.INTER.ROT>
9

>  <SCORE.INTER.SOLV>
28.1894

>  <SCORE.INTER.VDW>
-26.6835

>  <SCORE.INTER.norm>
-0.855352

>  <SCORE.INTRA>
-15.8467

>  <SCORE.INTRA.DIHEDRAL>
-11.2289

>  <SCORE.INTRA.DIHEDRAL.0>
40.6252

>  <SCORE.INTRA.POLAR>
-0.169279

>  <SCORE.INTRA.POLAR.0>
-1.20161

>  <SCORE.INTRA.REPUL>
-0.115675

>  <SCORE.INTRA.REPUL.0>
0.115675

>  <SCORE.INTRA.SOLV>
-3.64283

>  <SCORE.INTRA.SOLV.lig_0>
-154.895

>  <SCORE.INTRA.VDW>
-7.2569

>  <SCORE.INTRA.VDW.0>
2.2925

>  <SCORE.INTRA.norm>
-0.377302

>  <SCORE.RESTR>
1.36204

>  <SCORE.RESTR.CAVITY>
1.36204

>  <SCORE.RESTR.norm>
0.0324295

>  <SCORE.SYSTEM>
0

>  <SCORE.SYSTEM.CONST>
0

>  <SCORE.SYSTEM.DIHEDRAL>
0

>  <SCORE.SYSTEM.SOLV>
0

>  <SCORE.SYSTEM.norm>
0

>  <SCORE.heavy>
42

>  <SCORE.norm>
-1.20022

>  <RMSD>
13.982

$$$$

 OpenBabel11021811413D
libRbt.so/2013.1/901 2013/11/27
 42 45  0  0  0  0  0  0  0  0999 V2000
   -1.5700   -1.3738    3.0442 O   0  0  0  0  0  0  0  0  0  0  0  0
   -1.2856   -0.9440    1.7205 C   0  0  0  0  0  0  0  0  0  0  0  0
   -1.6823   -2.0354    0.7255 C   0  0  1  0  0  0  0  0  0  0  0  0
   -1.1545   -3.3210    1.1182 O   0  0  0  0  0  0  0  0  0  0  0  0
   -3.1853   -2.2251    0.6054 C   0  0  2  0  0  0  0  0  0  0  0  0
   -3.2413   -3.6168   -0.0020 C   0  0  1  0  0  0  0  0  0  0  0  0
   -2.9336   -3.5484   -1.3900 O   0  0  0  0  0  0  0  0  0  0  0  0
   -2.1103   -4.3475    0.7500 C   0  0  2  0  0  0  0  0  0  0  0  0
   -3.2442    2.3743   -0.5524 C   0  0  2  0  0  0  0  0  0  0  0  0
   -3.6040    1.0352   -0.9249 O   0  0  0  0  0  0  0  0  0  0  0  0
   -3.4658    0.1161    0.1738 C   0  0  2  0  0  0  0  0  0  0  0  0
   -3.7786   -1.2275   -0.2489 O   0  0  0  0  0  0  0  0  0  0  0  0
   -4.3709    0.5315    1.3462 C   0  0  2  0  0  0  0  0  0  0  0  0
   -5.7542    0.1847    1.0768 N   0  3  0  0  0  0  0  0  0  0  0  0
   -4.2491    2.0183    1.7003 C   0  0  1  0  0  0  0  0  0  0  0  0
   -3.0568    2.2302    2.4395 O   0  0  0  0  0  0  0  0  0  0  0  0
   -4.2473    2.9096    0.4613 C   0  0  2  0  0  0  0  0  0  0  0  0
   -5.5494    2.9478   -0.1112 O   0  0  0  0  0  0  0  0  0  0  0  0
   -3.1806    3.2759   -1.7820 C   0  0  0  0  0  0  0  0  0  0  0  0
   -2.0514    2.9137   -2.6179 N   0  3  0  0  0  0  0  0  0  0  0  0
   -1.6928   -5.8339    4.8405 C   0  0  1  0  0  0  0  0  0  0  0  0
   -2.0108   -6.7956    3.8129 O   0  0  0  0  0  0  0  0  0  0  0  0
   -3.2900   -7.4411    4.0086 C   0  0  2  0  0  0  0  0  0  0  0  0
   -4.3930   -6.5090    3.8883 O   0  0  0  0  0  0  0  0  0  0  0  0
   -3.3269   -8.1702    5.3572 C   0  0  2  0  0  0  0  0  0  0  0  0
   -4.6745   -8.6313    5.6344 N   0  3  0  0  0  0  0  0  0  0  0  0
   -2.8598   -7.2727    6.4977 C   0  0  1  0  0  0  0  0  0  0  0  0
   -2.6846   -8.0469    7.6742 O   0  0  0  0  0  0  0  0  0  0  0  0
   -1.5699   -6.5291    6.1866 C   0  0  2  0  0  0  0  0  0  0  0  0
   -1.2922   -5.5764    7.2023 O   0  0  0  0  0  0  0  0  0  0  0  0
   -0.3523   -5.1703    4.5380 C   0  0  0  0  0  0  0  0  0  0  0  0
   -0.2517   -4.8333    3.1298 N   0  3  0  0  0  0  0  0  0  0  0  0
   -4.6996   -7.3914   -0.2622 C   0  0  2  0  0  0  0  0  0  0  0  0
   -5.9830   -7.1998    0.5216 C   0  0  0  0  0  0  0  0  0  0  0  0
   -5.7152   -7.2976    2.0121 C   0  0  1  0  0  0  0  0  0  0  0  0
   -4.7430   -6.2263    2.5081 C   0  0  2  0  0  0  0  0  0  0  0  0
   -3.4660   -6.1920    1.6370 C   0  0  1  0  0  0  0  0  0  0  0  0
   -3.6702   -6.3377    0.1233 C   0  0  1  0  0  0  0  0  0  0  0  0
   -4.9836   -7.2992   -1.6816 N   0  3  0  0  0  0  0  0  0  0  0  0
   -6.9754   -7.2112    2.7239 N   0  3  0  0  0  0  0  0  0  0  0  0
   -2.6621   -5.0200    1.9183 O   0  0  0  0  0  0  0  0  0  0  0  0
   -2.4263   -6.6294   -0.5049 O   0  0  0  0  0  0  0  0  0  0  0  0
  1  2  1  0  0  0  0
  3  2  1  1  0  0  0
  3  4  1  0  0  0  0
  3  5  1  0  0  0  0
  4  8  1  0  0  0  0
  5  6  1  0  0  0  0
  5 12  1  6  0  0  0
  6  7  1  6  0  0  0
  6  8  1  0  0  0  0
  8 41  1  1  0  0  0
  9 10  1  0  0  0  0
  9 17  1  0  0  0  0
  9 19  1  6  0  0  0
 10 11  1  0  0  0  0
 11 12  1  6  0  0  0
 11 13  1  0  0  0  0
 13 14  1  6  0  0  0
 13 15  1  0  0  0  0
 15 16  1  6  0  0  0
 15 17  1  0  0  0  0
 17 18  1  6  0  0  0
 19 20  1  0  0  0  0
 21 22  1  0  0  0  0
 21 29  1  0  0  0  0
 21 31  1  6  0  0  0
 22 23  1  0  0  0  0
 23 24  1  1  0  0  0
 23 25  1  0  0  0  0
 25 26  1  1  0  0  0
 25 27  1  0  0  0  0
 27 28  1  1  0  0  0
 27 29  1  0  0  0  0
 29 30  1  1  0  0  0
 31 32  1  0  0  0  0
 33 34  1  0  0  0  0
 33 38  1  0  0  0  0
 33 39  1  6  0  0  0
 34 35  1  0  0  0  0
 35 36  1  0  0  0  0
 35 40  1  1  0  0  0
 36 24  1  1  0  0  0
 36 37  1  0  0  0  0
 37 38  1  0  0  0  0
 37 41  1  6  0  0  0
 38 42  1  6  0  0  0
M  CHG  6  14   1  20   1  26   1  32   1  39   1  40   1
M  END
>  <CHROM.1>
94.51769822,-49.20842454,-54.91313371,-168.05359738,-170.91433821,-69.27778003
157.61383100,-171.67447220,76.69015686,-165.68053105,-34.78085814,43.04917161
80.04976590,85.66735598,63.98598549,-171.49400845,45.38733565,-123.27882280
-67.03716626,11.66136421,-137.30751505,-58.08913574,-3.27278133,-3.55309938
1.88580385,-1.62059224,1.11825152,2.71508428

>  <Name>


>  <RI>
0

>  <Rbt.Current_Directory>
/home/itssahil/PROJECTS/Mol_Feturizer/New_Systems/rnas/1qd3

>  <Rbt.Executable>
rbdock ($Id: //depot/dev/client3/rdock/2013.1/src/exe/rbdock.cxx#4 $)

>  <Rbt.Library>
libRbt.so (2013.1, Build901 2013/11/27)

>  <Rbt.Parameter_File>
/export/apps/rDock/src/rDock_2013.1_src/data/scripts/dock_solv.prm

>  <Rbt.Receptor>
prm/blind_docking_100.prm

>  <SCORE>
-24.0724

>  <SCORE.INTER>
-24.5948

>  <SCORE.INTER.CONST>
1

>  <SCORE.INTER.POLAR>
-9.08603

>  <SCORE.INTER.ROT>
9

>  <SCORE.INTER.SOLV>
49.5267

>  <SCORE.INTER.VDW>
-12.2187

>  <SCORE.INTER.norm>
-0.585592

>  <SCORE.INTRA>
-4.70679

>  <SCORE.INTRA.DIHEDRAL>
-7.45316

>  <SCORE.INTRA.DIHEDRAL.0>
40.6252

>  <SCORE.INTRA.POLAR>
0.104291

>  <SCORE.INTRA.POLAR.0>
-1.20161

>  <SCORE.INTRA.REPUL>
-0.115675

>  <SCORE.INTRA.REPUL.0>
0.115675

>  <SCORE.INTRA.SOLV>
-5.20858

>  <SCORE.INTRA.SOLV.lig_0>
-154.895

>  <SCORE.INTRA.VDW>
1.84787

>  <SCORE.INTRA.VDW.0>
2.2925

>  <SCORE.INTRA.norm>
-0.112066

>  <SCORE.RESTR>
5.22921

>  <SCORE.RESTR.CAVITY>
5.22921

>  <SCORE.RESTR.norm>
0.124505

>  <SCORE.SYSTEM>
0

>  <SCORE.SYSTEM.CONST>
0

>  <SCORE.SYSTEM.DIHEDRAL>
0

>  <SCORE.SYSTEM.SOLV>
0

>  <SCORE.SYSTEM.norm>
0

>  <SCORE.heavy>
42

>  <SCORE.norm>
-0.573153

>  <RMSD>
14.002

$$$$

 OpenBabel11021811413D
libRbt.so/2013.1/901 2013/11/27
 42 45  0  0  0  0  0  0  0  0999 V2000
   -1.4951   -3.1090    3.9312 O   0  0  0  0  0  0  0  0  0  0  0  0
   -1.9687   -2.8869    2.6106 C   0  0  0  0  0  0  0  0  0  0  0  0
   -3.4805   -3.1109    2.5582 C   0  0  1  0  0  0  0  0  0  0  0  0
   -4.0500   -2.5688    1.3469 O   0  0  0  0  0  0  0  0  0  0  0  0
   -3.8740   -4.5786    2.5789 C   0  0  2  0  0  0  0  0  0  0  0  0
   -5.2864   -4.4946    2.0249 C   0  0  1  0  0  0  0  0  0  0  0  0
   -6.1734   -4.0321    3.0374 O   0  0  0  0  0  0  0  0  0  0  0  0
   -5.1428   -3.4234    0.9247 C   0  0  2  0  0  0  0  0  0  0  0  0
   -3.2758   -8.5852    2.9090 C   0  0  2  0  0  0  0  0  0  0  0  0
   -3.1158   -7.1591    2.9566 O   0  0  0  0  0  0  0  0  0  0  0  0
   -3.9814   -6.5534    3.9336 C   0  0  2  0  0  0  0  0  0  0  0  0
   -3.8381   -5.1178    3.9150 O   0  0  0  0  0  0  0  0  0  0  0  0
   -3.6814   -7.1019    5.3391 C   0  0  2  0  0  0  0  0  0  0  0  0
   -2.4689   -6.5108    5.8745 N   0  3  0  0  0  0  0  0  0  0  0  0
   -3.5964   -8.6322    5.3801 C   0  0  1  0  0  0  0  0  0  0  0  0
   -4.9060   -9.1774    5.3583 O   0  0  0  0  0  0  0  0  0  0  0  0
   -2.7880   -9.1979    4.2156 C   0  0  2  0  0  0  0  0  0  0  0  0
   -1.4057   -8.9170    4.4023 O   0  0  0  0  0  0  0  0  0  0  0  0
   -2.5216   -9.1716    1.7189 C   0  0  0  0  0  0  0  0  0  0  0  0
   -3.3220   -9.0720    0.5130 N   0  3  0  0  0  0  0  0  0  0  0  0
   -3.7558    1.0427   -2.5502 C   0  0  1  0  0  0  0  0  0  0  0  0
   -3.1360   -0.1483   -2.0218 O   0  0  0  0  0  0  0  0  0  0  0  0
   -3.8697   -0.7367   -0.9232 C   0  0  2  0  0  0  0  0  0  0  0  0
   -5.1625   -1.2404   -1.3410 O   0  0  0  0  0  0  0  0  0  0  0  0
   -4.0128    0.2651    0.2291 C   0  0  2  0  0  0  0  0  0  0  0  0
   -4.9240   -0.2580    1.2300 N   0  3  0  0  0  0  0  0  0  0  0  0
   -4.5246    1.6164   -0.2572 C   0  0  1  0  0  0  0  0  0  0  0  0
   -4.4173    2.5720    0.7867 O   0  0  0  0  0  0  0  0  0  0  0  0
   -3.7913    2.1286   -1.4873 C   0  0  2  0  0  0  0  0  0  0  0  0
   -4.4335    3.2878   -1.9976 O   0  0  0  0  0  0  0  0  0  0  0  0
   -2.9451    1.5745   -3.7286 C   0  0  0  0  0  0  0  0  0  0  0  0
   -3.6894    2.5928   -4.4469 N   0  3  0  0  0  0  0  0  0  0  0  0
   -6.7057   -4.4527   -3.6646 C   0  0  2  0  0  0  0  0  0  0  0  0
   -5.8940   -3.3868   -4.3738 C   0  0  0  0  0  0  0  0  0  0  0  0
   -5.7738   -2.1463   -3.5081 C   0  0  1  0  0  0  0  0  0  0  0  0
   -5.0620   -2.4193   -2.1822 C   0  0  2  0  0  0  0  0  0  0  0  0
   -5.6848   -3.6365   -1.4602 C   0  0  1  0  0  0  0  0  0  0  0  0
   -6.0539   -4.8361   -2.3429 C   0  0  1  0  0  0  0  0  0  0  0  0
   -6.8103   -5.6237   -4.5142 N   0  3  0  0  0  0  0  0  0  0  0  0
   -5.0808   -1.1152   -4.2557 N   0  3  0  0  0  0  0  0  0  0  0  0
   -4.8638   -4.0726   -0.3490 O   0  0  0  0  0  0  0  0  0  0  0  0
   -6.9094   -5.7183   -1.6238 O   0  0  0  0  0  0  0  0  0  0  0  0
  1  2  1  0  0  0  0
  3  2  1  6  0  0  0
  3  4  1  0  0  0  0
  3  5  1  0  0  0  0
  4  8  1  0  0  0  0
  5  6  1  0  0  0  0
  5 12  1  1  0  0  0
  6  7  1  1  0  0  0
  6  8  1  0  0  0  0
  8 41  1  6  0  0  0
  9 10  1  0  0  0  0
  9 17  1  0  0  0  0
  9 19  1  6  0  0  0
 10 11  1  0  0  0  0
 11 12  1  1  0  0  0
 11 13  1  0  0  0  0
 13 14  1  6  0  0  0
 13 15  1  0  0  0  0
 15 16  1  6  0  0  0
 15 17  1  0  0  0  0
 17 18  1  1  0  0  0
 19 20  1  0  0  0  0
 21 22  1  0  0  0  0
 21 29  1  0  0  0  0
 21 31  1  6  0  0  0
 22 23  1  0  0  0  0
 23 24  1  6  0  0  0
 23 25  1  0  0  0  0
 25 26  1  1  0  0  0
 25 27  1  0  0  0  0
 27 28  1  1  0  0  0
 27 29  1  0  0  0  0
 29 30  1  6  0  0  0
 31 32  1  0  0  0  0
 33 34  1  0  0  0  0
 33 38  1  0  0  0  0
 33 39  1  6  0  0  0
 34 35  1  0  0  0  0
 35 36  1  0  0  0  0
 35 40  1  6  0  0  0
 36 24  1  1  0  0  0
 36 37  1  0  0  0  0
 37 38  1  0  0  0  0
 37 41  1  1  0  0  0
 38 42  1  1  0  0  0
M  CHG  6  14   1  20   1  26   1  32   1  39   1  40   1
M  END
>  <CHROM.1>
-168.52618977,165.06749790,-170.00593251,78.80741313,-111.94501607,-83.30654686
46.97983592,-170.19629086,-59.58420597,-175.31161411,-163.22738418,167.96023980
70.13578039,-123.18041852,-40.83658831,-154.12447077,69.07164823,177.16106725
-167.87019955,49.07109039,88.47268740,-57.29183784,-4.23307201,-3.51355610
0.50277862,-1.26455259,-1.18112193,-0.37944652

>  <Name>


>  <RI>
0

>  <Rbt.Current_Directory>
/home/itssahil/PROJECTS/Mol_Feturizer/New_Systems/rnas/1qd3

>  <Rbt.Executable>
rbdock ($Id: //depot/dev/client3/rdock/2013.1/src/exe/rbdock.cxx#4 $)

>  <Rbt.Library>
libRbt.so (2013.1, Build901 2013/11/27)

>  <Rbt.Parameter_File>
/export/apps/rDock/src/rDock_2013.1_src/data/scripts/dock_solv.prm

>  <Rbt.Receptor>
prm/blind_docking_20.prm

>  <SCORE>
-56.1318

>  <SCORE.INTER>
-41.9681

>  <SCORE.INTER.CONST>
1

>  <SCORE.INTER.POLAR>
-5.79495

>  <SCORE.INTER.ROT>
9

>  <SCORE.INTER.SOLV>
23.3066

>  <SCORE.INTER.VDW>
-26.0311

>  <SCORE.INTER.norm>
-0.99924

>  <SCORE.INTRA>
-16.7198

>  <SCORE.INTRA.DIHEDRAL>
-8.35077

>  <SCORE.INTRA.DIHEDRAL.0>
40.6252

>  <SCORE.INTRA.POLAR>
-0.224128

>  <SCORE.INTRA.POLAR.0>
-1.20161

>  <SCORE.INTRA.REPUL>
-0.115675

>  <SCORE.INTRA.REPUL.0>
0.115675

>  <SCORE.INTRA.SOLV>
-4.93249

>  <SCORE.INTRA.SOLV.lig_0>
-154.895

>  <SCORE.INTRA.VDW>
-8.73773

>  <SCORE.INTRA.VDW.0>
2.2925

>  <SCORE.INTRA.norm>
-0.39809

>  <SCORE.RESTR>
2.55603

>  <SCORE.RESTR.CAVITY>
2.55603

>  <SCORE.RESTR.norm>
0.060858

>  <SCORE.SYSTEM>
0

>  <SCORE.SYSTEM.CONST>
0

>  <SCORE.SYSTEM.DIHEDRAL>
0

>  <SCORE.SYSTEM.SOLV>
0

>  <SCORE.SYSTEM.norm>
0

>  <SCORE.heavy>
42

>  <SCORE.norm>
-1.33647

>  <RMSD>
14.005

$$$$

 OpenBabel11021811413D
libRbt.so/2013.1/901 2013/11/27
 42 45  0  0  0  0  0  0  0  0999 V2000
   -1.1229   -5.1447   -0.9629 O   0  0  0  0  0  0  0  0  0  0  0  0
   -2.3837   -4.7363   -1.4740 C   0  0  0  0  0  0  0  0  0  0  0  0
   -3.4054   -5.8591   -1.2896 C   0  0  1  0  0  0  0  0  0  0  0  0
   -3.5188   -6.2431    0.0979 O   0  0  0  0  0  0  0  0  0  0  0  0
   -4.8090   -5.4757   -1.7282 C   0  0  2  0  0  0  0  0  0  0  0  0
   -5.6259   -6.5217   -0.9883 C   0  0  1  0  0  0  0  0  0  0  0  0
   -5.5352   -7.7703   -1.6656 O   0  0  0  0  0  0  0  0  0  0  0  0
   -4.8963   -6.6071    0.3679 C   0  0  2  0  0  0  0  0  0  0  0  0
   -8.1507   -3.7868   -3.1700 C   0  0  2  0  0  0  0  0  0  0  0  0
   -7.0614   -4.5849   -2.6821 O   0  0  0  0  0  0  0  0  0  0  0  0
   -6.0115   -4.7152   -3.6574 C   0  0  2  0  0  0  0  0  0  0  0  0
   -4.9611   -5.5691   -3.1583 O   0  0  0  0  0  0  0  0  0  0  0  0
   -5.4448   -3.3352   -4.0328 C   0  0  2  0  0  0  0  0  0  0  0  0
   -4.5716   -2.8353   -2.9869 N   0  3  0  0  0  0  0  0  0  0  0  0
   -6.5351   -2.3077   -4.3589 C   0  0  1  0  0  0  0  0  0  0  0  0
   -7.0336   -2.5485   -5.6652 O   0  0  0  0  0  0  0  0  0  0  0  0
   -7.6861   -2.3481   -3.3573 C   0  0  2  0  0  0  0  0  0  0  0  0
   -7.2655   -1.8031   -2.1121 O   0  0  0  0  0  0  0  0  0  0  0  0
   -9.3376   -3.8541   -2.2131 C   0  0  0  0  0  0  0  0  0  0  0  0
   -9.1149   -2.9913   -1.0682 N   0  3  0  0  0  0  0  0  0  0  0  0
   -2.1754   -5.7769    6.1738 C   0  0  1  0  0  0  0  0  0  0  0  0
   -1.5435   -6.0226    4.9000 O   0  0  0  0  0  0  0  0  0  0  0  0
   -2.3939   -6.7252    3.9648 C   0  0  2  0  0  0  0  0  0  0  0  0
   -3.5424   -5.9329    3.5736 O   0  0  0  0  0  0  0  0  0  0  0  0
   -2.8264   -8.0794    4.5397 C   0  0  2  0  0  0  0  0  0  0  0  0
   -3.8405   -8.6769    3.6909 N   0  3  0  0  0  0  0  0  0  0  0  0
   -3.3750   -7.9430    5.9557 C   0  0  1  0  0  0  0  0  0  0  0  0
   -3.5391   -9.2300    6.5308 O   0  0  0  0  0  0  0  0  0  0  0  0
   -2.4953   -7.0944    6.8609 C   0  0  2  0  0  0  0  0  0  0  0  0
   -3.1492   -6.8515    8.0978 O   0  0  0  0  0  0  0  0  0  0  0  0
   -1.2305   -4.9974    7.0838 C   0  0  0  0  0  0  0  0  0  0  0  0
   -1.0677   -3.6352    6.6100 N   0  3  0  0  0  0  0  0  0  0  0  0
   -3.5161   -2.4598    1.1166 C   0  0  2  0  0  0  0  0  0  0  0  0
   -2.1889   -3.1257    1.4223 C   0  0  0  0  0  0  0  0  0  0  0  0
   -2.3273   -4.0700    2.6021 C   0  0  1  0  0  0  0  0  0  0  0  0
   -3.3257   -5.1985    2.3402 C   0  0  2  0  0  0  0  0  0  0  0  0
   -4.6689   -4.6388    1.8173 C   0  0  1  0  0  0  0  0  0  0  0  0
   -4.5792   -3.5005    0.7922 C   0  0  1  0  0  0  0  0  0  0  0  0
   -3.3555   -1.5596   -0.0093 N   0  3  0  0  0  0  0  0  0  0  0  0
   -1.0220   -4.6101    2.9290 N   0  3  0  0  0  0  0  0  0  0  0  0
   -5.5241   -5.6939    1.3131 O   0  0  0  0  0  0  0  0  0  0  0  0
   -5.8477   -2.8670    0.6634 O   0  0  0  0  0  0  0  0  0  0  0  0
  1  2  1  0  0  0  0
  3  2  1  1  0  0  0
  3  4  1  0  0  0  0
  3  5  1  0  0  0  0
  4  8  1  0  0  0  0
  5  6  1  0  0  0  0
  5 12  1  6  0  0  0
  6  7  1  6  0  0  0
  6  8  1  0  0  0  0
  8 41  1  1  0  0  0
  9 10  1  0  0  0  0
  9 17  1  0  0  0  0
  9 19  1  1  0  0  0
 10 11  1  0  0  0  0
 11 12  1  1  0  0  0
 11 13  1  0  0  0  0
 13 14  1  1  0  0  0
 13 15  1  0  0  0  0
 15 16  1  6  0  0  0
 15 17  1  0  0  0  0
 17 18  1  1  0  0  0
 19 20  1  0  0  0  0
 21 22  1  0  0  0  0
 21 29  1  0  0  0  0
 21 31  1  1  0  0  0
 22 23  1  0  0  0  0
 23 24  1  1  0  0  0
 23 25  1  0  0  0  0
 25 26  1  6  0  0  0
 25 27  1  0  0  0  0
 27 28  1  1  0  0  0
 27 29  1  0  0  0  0
 29 30  1  1  0  0  0
 31 32  1  0  0  0  0
 33 34  1  0  0  0  0
 33 38  1  0  0  0  0
 33 39  1  6  0  0  0
 34 35  1  0  0  0  0
 35 36  1  0  0  0  0
 35 40  1  6  0  0  0
 36 24  1  1  0  0  0
 36 37  1  0  0  0  0
 37 38  1  0  0  0  0
 37 41  1  6  0  0  0
 38 42  1  1  0  0  0
M  CHG  6  14   1  20   1  26   1  32   1  39   1  40   1
M  END
>  <CHROM.1>
-63.09542080,57.14750807,-155.35037408,-25.60525447,-1.33071425,78.35115305
-31.87105097,79.79817442,-68.68909712,179.23031994,-147.81026411,70.12431307
94.73558895,-70.82641175,73.79827067,176.29758826,-59.69076280,-172.01368601
-48.24313244,49.74463836,-50.13138892,-172.05444962,-4.32630935,-4.93202551
0.89280619,-2.21514236,0.81855234,2.40040092

>  <Name>


>  <RI>
0

>  <Rbt.Current_Directory>
/home/itssahil/PROJECTS/Mol_Feturizer/New_Systems/rnas/1qd3

>  <Rbt.Executable>
rbdock ($Id: //depot/dev/client3/rdock/2013.1/src/exe/rbdock.cxx#4 $)

>  <Rbt.Library>
libRbt.so (2013.1, Build901 2013/11/27)

>  <Rbt.Parameter_File>
/export/apps/rDock/src/rDock_2013.1_src/data/scripts/dock_solv.prm

>  <Rbt.Receptor>
prm/blind_docking_40.prm

>  <SCORE>
-28.1984

>  <SCORE.INTER>
-24.2321

>  <SCORE.INTER.CONST>
1

>  <SCORE.INTER.POLAR>
-4.18094

>  <SCORE.INTER.ROT>
9

>  <SCORE.INTER.SOLV>
31.4688

>  <SCORE.INTER.VDW>
-22.3079

>  <SCORE.INTER.norm>
-0.576956

>  <SCORE.INTRA>
-7.98161

>  <SCORE.INTRA.DIHEDRAL>
-9.77048

>  <SCORE.INTRA.DIHEDRAL.0>
40.6252

>  <SCORE.INTRA.POLAR>
-0.0194492

>  <SCORE.INTRA.POLAR.0>
-1.20161

>  <SCORE.INTRA.REPUL>
-0.104129

>  <SCORE.INTRA.REPUL.0>
0.115675

>  <SCORE.INTRA.SOLV>
4.27357

>  <SCORE.INTRA.SOLV.lig_0>
-154.895

>  <SCORE.INTRA.VDW>
-4.64638

>  <SCORE.INTRA.VDW.0>
2.2925

>  <SCORE.INTRA.norm>
-0.190038

>  <SCORE.RESTR>
4.01535

>  <SCORE.RESTR.CAVITY>
4.01535

>  <SCORE.RESTR.norm>
0.0956036

>  <SCORE.SYSTEM>
0

>  <SCORE.SYSTEM.CONST>
0

>  <SCORE.SYSTEM.DIHEDRAL>
0

>  <SCORE.SYSTEM.SOLV>
0

>  <SCORE.SYSTEM.norm>
0

>  <SCORE.heavy>
42

>  <SCORE.norm>
-0.671391

>  <RMSD>
14.006

$$$$

 OpenBabel11021811413D
libRbt.so/2013.1/901 2013/11/27
 42 45  0  0  0  0  0  0  0  0999 V2000
   -4.2123   -3.8289    2.0469 O   0  0  0  0  0  0  0  0  0  0  0  0
   -5.4095   -4.5660    2.2497 C   0  0  0  0  0  0  0  0  0  0  0  0
   -5.8991   -5.1348    0.9173 C   0  0  1  0  0  0  0  0  0  0  0  0
   -6.3210   -4.0838    0.0211 O   0  0  0  0  0  0  0  0  0  0  0  0
   -4.8331   -5.9150    0.1661 C   0  0  2  0  0  0  0  0  0  0  0  0
   -5.4148   -5.8982   -1.2375 C   0  0  1  0  0  0  0  0  0  0  0  0
   -6.4685   -6.8503   -1.3328 O   0  0  0  0  0  0  0  0  0  0  0  0
   -5.9885   -4.4700   -1.3366 C   0  0  2  0  0  0  0  0  0  0  0  0
   -3.0030   -7.7609    3.8874 C   0  0  2  0  0  0  0  0  0  0  0  0
   -4.0693   -7.6949    2.9282 O   0  0  0  0  0  0  0  0  0  0  0  0
   -3.5888   -7.3668    1.6120 C   0  0  2  0  0  0  0  0  0  0  0  0
   -4.6895   -7.2513    0.6864 O   0  0  0  0  0  0  0  0  0  0  0  0
   -2.5863   -8.4250    1.1205 C   0  0  2  0  0  0  0  0  0  0  0  0
   -3.2759   -9.6297    0.6965 N   0  3  0  0  0  0  0  0  0  0  0  0
   -1.5100   -8.7598    2.1599 C   0  0  1  0  0  0  0  0  0  0  0  0
   -0.5361   -7.7283    2.1783 O   0  0  0  0  0  0  0  0  0  0  0  0
   -2.0927   -8.9375    3.5593 C   0  0  2  0  0  0  0  0  0  0  0  0
   -2.8232  -10.1565    3.6300 O   0  0  0  0  0  0  0  0  0  0  0  0
   -3.5598   -7.8830    5.3030 C   0  0  0  0  0  0  0  0  0  0  0  0
   -4.9138   -8.4032    5.2717 N   0  3  0  0  0  0  0  0  0  0  0  0
   -3.1318   -0.6369    1.0162 C   0  0  1  0  0  0  0  0  0  0  0  0
   -4.0363   -1.6069    0.4478 O   0  0  0  0  0  0  0  0  0  0  0  0
   -4.8258   -1.0826   -0.6446 C   0  0  2  0  0  0  0  0  0  0  0  0
   -4.0078   -0.7388   -1.7902 O   0  0  0  0  0  0  0  0  0  0  0  0
   -5.6602    0.1176   -0.1809 C   0  0  2  0  0  0  0  0  0  0  0  0
   -6.2807    0.7609   -1.3241 N   0  3  0  0  0  0  0  0  0  0  0  0
   -4.8128    1.1388    0.5698 C   0  0  1  0  0  0  0  0  0  0  0  0
   -5.6560    2.1040    1.1794 O   0  0  0  0  0  0  0  0  0  0  0  0
   -3.9156    0.5133    1.6268 C   0  0  2  0  0  0  0  0  0  0  0  0
   -3.0233    1.4841    2.1540 O   0  0  0  0  0  0  0  0  0  0  0  0
   -2.3093   -1.2794    2.1295 C   0  0  0  0  0  0  0  0  0  0  0  0
   -1.3457   -2.2164    1.5816 N   0  3  0  0  0  0  0  0  0  0  0  0
   -6.7471   -1.8754   -4.8405 C   0  0  2  0  0  0  0  0  0  0  0  0
   -5.5389   -1.0513   -5.2396 C   0  0  0  0  0  0  0  0  0  0  0  0
   -4.9088   -0.4062   -4.0192 C   0  0  1  0  0  0  0  0  0  0  0  0
   -4.4130   -1.4324   -2.9994 C   0  0  2  0  0  0  0  0  0  0  0  0
   -5.5171   -2.4638   -2.6705 C   0  0  1  0  0  0  0  0  0  0  0  0
   -6.3532   -2.9670   -3.8546 C   0  0  1  0  0  0  0  0  0  0  0  0
   -7.3333   -2.4756   -6.0237 N   0  3  0  0  0  0  0  0  0  0  0  0
   -3.8219    0.4522   -4.4482 N   0  3  0  0  0  0  0  0  0  0  0  0
   -4.9895   -3.5871   -1.9231 O   0  0  0  0  0  0  0  0  0  0  0  0
   -7.5211   -3.6248   -3.3748 O   0  0  0  0  0  0  0  0  0  0  0  0
  1  2  1  0  0  0  0
  3  2  1  1  0  0  0
  3  4  1  0  0  0  0
  3  5  1  0  0  0  0
  4  8  1  0  0  0  0
  5  6  1  0  0  0  0
  5 12  1  1  0  0  0
  6  7  1  1  0  0  0
  6  8  1  0  0  0  0
  8 41  1  1  0  0  0
  9 10  1  0  0  0  0
  9 17  1  0  0  0  0
  9 19  1  1  0  0  0
 10 11  1  0  0  0  0
 11 12  1  6  0  0  0
 11 13  1  0  0  0  0
 13 14  1  1  0  0  0
 13 15  1  0  0  0  0
 15 16  1  1  0  0  0
 15 17  1  0  0  0  0
 17 18  1  6  0  0  0
 19 20  1  0  0  0  0
 21 22  1  0  0  0  0
 21 29  1  0  0  0  0
 21 31  1  1  0  0  0
 22 23  1  0  0  0  0
 23 24  1  6  0  0  0
 23 25  1  0  0  0  0
 25 26  1  6  0  0  0
 25 27  1  0  0  0  0
 27 28  1  1  0  0  0
 27 29  1  0  0  0  0
 29 30  1  6  0  0  0
 31 32  1  0  0  0  0
 33 34  1  0  0  0  0
 33 38  1  0  0  0  0
 33 39  1  6  0  0  0
 34 35  1  0  0  0  0
 35 36  1  0  0  0  0
 35 40  1  6  0  0  0
 36 24  1  1  0  0  0
 36 37  1  0  0  0  0
 37 38  1  0  0  0  0
 37 41  1  6  0  0  0
 38 42  1  1  0  0  0
M  CHG  6  14   1  20   1  26   1  32   1  39   1  40   1
M  END
>  <CHROM.1>
73.59546986,-66.96333000,-97.94351562,59.50722305,-92.28183704,21.82054431
115.64084743,-119.78512573,-178.67511144,39.40668323,69.82118154,70.88636730
122.79898141,115.64618286,-175.74689215,47.08040847,62.37037893,162.37850885
-61.75406895,-73.07727691,168.09490764,71.41691010,-4.46446603,-3.85917480
0.05744609,-1.03348688,-1.12965735,-0.09778320

>  <Name>


>  <RI>
0

>  <Rbt.Current_Directory>
/home/itssahil/PROJECTS/Mol_Feturizer/New_Systems/rnas/1qd3

>  <Rbt.Executable>
rbdock ($Id: //depot/dev/client3/rdock/2013.1/src/exe/rbdock.cxx#4 $)

>  <Rbt.Library>
libRbt.so (2013.1, Build901 2013/11/27)

>  <Rbt.Parameter_File>
/export/apps/rDock/src/rDock_2013.1_src/data/scripts/dock_solv.prm

>  <Rbt.Receptor>
prm/blind_docking_20.prm

>  <SCORE>
-68.8461

>  <SCORE.INTER>
-63.837

>  <SCORE.INTER.CONST>
1

>  <SCORE.INTER.POLAR>
-9.18136

>  <SCORE.INTER.ROT>
9

>  <SCORE.INTER.SOLV>
33.4354

>  <SCORE.INTER.VDW>
-32.6986

>  <SCORE.INTER.norm>
-1.51993

>  <SCORE.INTRA>
-5.02906

>  <SCORE.INTRA.DIHEDRAL>
5.93896

>  <SCORE.INTRA.DIHEDRAL.0>
40.6252

>  <SCORE.INTRA.POLAR>
0.134934

>  <SCORE.INTRA.POLAR.0>
-1.20161

>  <SCORE.INTRA.REPUL>
-0.115675

>  <SCORE.INTRA.REPUL.0>
0.115675

>  <SCORE.INTRA.SOLV>
-6.94661

>  <SCORE.INTRA.SOLV.lig_0>
-154.895

>  <SCORE.INTRA.VDW>
-4.40564

>  <SCORE.INTRA.VDW.0>
2.2925

>  <SCORE.INTRA.norm>
-0.11974

>  <SCORE.RESTR>
0.0200331

>  <SCORE.RESTR.CAVITY>
0.0200331

>  <SCORE.RESTR.norm>
0.000476978

>  <SCORE.SYSTEM>
0

>  <SCORE.SYSTEM.CONST>
0

>  <SCORE.SYSTEM.DIHEDRAL>
0

>  <SCORE.SYSTEM.SOLV>
0

>  <SCORE.SYSTEM.norm>
0

>  <SCORE.heavy>
42

>  <SCORE.norm>
-1.63919

>  <RMSD>
14.009

$$$$

 OpenBabel11021811413D
libRbt.so/2013.1/901 2013/11/27
 42 45  0  0  0  0  0  0  0  0999 V2000
   -2.9380   -4.9327   -2.6043 O   0  0  0  0  0  0  0  0  0  0  0  0
   -2.4661   -5.4115   -1.3530 C   0  0  0  0  0  0  0  0  0  0  0  0
   -3.2075   -6.6950   -0.9769 C   0  0  1  0  0  0  0  0  0  0  0  0
   -2.7147   -7.2410    0.2660 O   0  0  0  0  0  0  0  0  0  0  0  0
   -4.7002   -6.4927   -0.7761 C   0  0  2  0  0  0  0  0  0  0  0  0
   -5.0401   -7.7289    0.0394 C   0  0  1  0  0  0  0  0  0  0  0  0
   -5.1021   -8.8662   -0.8143 O   0  0  0  0  0  0  0  0  0  0  0  0
   -3.8231   -7.8452    0.9796 C   0  0  2  0  0  0  0  0  0  0  0  0
   -6.1570   -2.9890   -2.9200 C   0  0  2  0  0  0  0  0  0  0  0  0
   -5.4174   -4.2144   -2.8065 O   0  0  0  0  0  0  0  0  0  0  0  0
   -6.1932   -5.2549   -2.1850 C   0  0  2  0  0  0  0  0  0  0  0  0
   -5.4031   -6.4526   -2.0336 O   0  0  0  0  0  0  0  0  0  0  0  0
   -7.4603   -5.5511   -3.0055 C   0  0  2  0  0  0  0  0  0  0  0  0
   -7.1388   -6.3334   -4.1849 N   0  3  0  0  0  0  0  0  0  0  0  0
   -8.2323   -4.2849   -3.3948 C   0  0  1  0  0  0  0  0  0  0  0  0
   -8.9682   -3.8189   -2.2749 O   0  0  0  0  0  0  0  0  0  0  0  0
   -7.3104   -3.1770   -3.8973 C   0  0  2  0  0  0  0  0  0  0  0  0
   -6.8102   -3.5093   -5.1872 O   0  0  0  0  0  0  0  0  0  0  0  0
   -5.2454   -1.8502   -3.3682 C   0  0  0  0  0  0  0  0  0  0  0  0
   -4.0897   -1.7534   -2.4964 N   0  3  0  0  0  0  0  0  0  0  0  0
   -4.1583   -3.4591    2.5033 C   0  0  1  0  0  0  0  0  0  0  0  0
   -3.8785   -4.7607    1.9469 O   0  0  0  0  0  0  0  0  0  0  0  0
   -2.4819   -5.1281    2.0234 C   0  0  2  0  0  0  0  0  0  0  0  0
   -2.0376   -5.2936    3.3927 O   0  0  0  0  0  0  0  0  0  0  0  0
   -1.6128   -4.1066    1.2798 C   0  0  2  0  0  0  0  0  0  0  0  0
   -0.2093   -4.3672    1.5403 N   0  3  0  0  0  0  0  0  0  0  0  0
   -1.9422   -2.6767    1.6940 C   0  0  1  0  0  0  0  0  0  0  0  0
   -1.2923   -1.7648    0.8221 O   0  0  0  0  0  0  0  0  0  0  0  0
   -3.4348   -2.3846    1.7081 C   0  0  2  0  0  0  0  0  0  0  0  0
   -3.6825   -1.1079    2.2784 O   0  0  0  0  0  0  0  0  0  0  0  0
   -5.6539   -3.1670    2.4223 C   0  0  0  0  0  0  0  0  0  0  0  0
   -6.1818   -3.5441    1.1239 N   0  3  0  0  0  0  0  0  0  0  0  0
   -2.9826   -8.9161    5.4136 C   0  0  2  0  0  0  0  0  0  0  0  0
   -2.9048   -7.6432    6.2331 C   0  0  0  0  0  0  0  0  0  0  0  0
   -2.1800   -6.5569    5.4601 C   0  0  1  0  0  0  0  0  0  0  0  0
   -2.8891   -6.1877    4.1564 C   0  0  2  0  0  0  0  0  0  0  0  0
   -3.2086   -7.4505    3.3234 C   0  0  1  0  0  0  0  0  0  0  0  0
   -3.7184   -8.6696    4.1034 C   0  0  1  0  0  0  0  0  0  0  0  0
   -3.6737   -9.9385    6.1759 N   0  3  0  0  0  0  0  0  0  0  0  0
   -2.0353   -5.3907    6.3096 N   0  3  0  0  0  0  0  0  0  0  0  0
   -4.1083   -7.1512    2.2280 O   0  0  0  0  0  0  0  0  0  0  0  0
   -3.6430   -9.8317    3.2844 O   0  0  0  0  0  0  0  0  0  0  0  0
  1  2  1  0  0  0  0
  3  2  1  1  0  0  0
  3  4  1  0  0  0  0
  3  5  1  0  0  0  0
  4  8  1  0  0  0  0
  5  6  1  0  0  0  0
  5 12  1  6  0  0  0
  6  7  1  6  0  0  0
  6  8  1  0  0  0  0
  8 41  1  1  0  0  0
  9 10  1  0  0  0  0
  9 17  1  0  0  0  0
  9 19  1  6  0  0  0
 10 11  1  0  0  0  0
 11 12  1  6  0  0  0
 11 13  1  0  0  0  0
 13 14  1  6  0  0  0
 13 15  1  0  0  0  0
 15 16  1  1  0  0  0
 15 17  1  0  0  0  0
 17 18  1  6  0  0  0
 19 20  1  0  0  0  0
 21 22  1  0  0  0  0
 21 29  1  0  0  0  0
 21 31  1  6  0  0  0
 22 23  1  0  0  0  0
 23 24  1  1  0  0  0
 23 25  1  0  0  0  0
 25 26  1  1  0  0  0
 25 27  1  0  0  0  0
 27 28  1  6  0  0  0
 27 29  1  0  0  0  0
 29 30  1  1  0  0  0
 31 32  1  0  0  0  0
 33 34  1  0  0  0  0
 33 38  1  0  0  0  0
 33 39  1  1  0  0  0
 34 35  1  0  0  0  0
 35 36  1  0  0  0  0
 35 40  1  1  0  0  0
 36 24  1  6  0  0  0
 36 37  1  0  0  0  0
 37 38  1  0  0  0  0
 37 41  1  6  0  0  0
 38 42  1  6  0  0  0
M  CHG  6  14   1  20   1  26   1  32   1  39   1  40   1
M  END
>  <CHROM.1>
71.53281055,177.66435010,-125.09679817,62.84841005,-77.88142651,-53.30922422
90.01983360,-66.33236372,-66.35959973,-171.94699041,-168.31349625,-44.19548457
51.87785023,166.96246045,-136.86891128,56.58571534,-136.59988959,-30.81615140
-71.18039064,4.01564335,141.00240560,179.93225668,-4.19655933,-5.31460272
0.59623882,-2.33332098,0.96233370,2.62783288

>  <Name>


>  <RI>
0

>  <Rbt.Current_Directory>
/home/itssahil/PROJECTS/Mol_Feturizer/New_Systems/rnas/1qd3

>  <Rbt.Executable>
rbdock ($Id: //depot/dev/client3/rdock/2013.1/src/exe/rbdock.cxx#4 $)

>  <Rbt.Library>
libRbt.so (2013.1, Build901 2013/11/27)

>  <Rbt.Parameter_File>
/export/apps/rDock/src/rDock_2013.1_src/data/scripts/dock_solv.prm

>  <Rbt.Receptor>
prm/blind_docking_40.prm

>  <SCORE>
-43.9024

>  <SCORE.INTER>
-34.0382

>  <SCORE.INTER.CONST>
1

>  <SCORE.INTER.POLAR>
-5.11273

>  <SCORE.INTER.ROT>
9

>  <SCORE.INTER.SOLV>
35.0923

>  <SCORE.INTER.VDW>
-26.9471

>  <SCORE.INTER.norm>
-0.810434

>  <SCORE.INTRA>
-11.8743

>  <SCORE.INTRA.DIHEDRAL>
-4.72513

>  <SCORE.INTRA.DIHEDRAL.0>
40.6252

>  <SCORE.INTRA.POLAR>
-0.0348573

>  <SCORE.INTRA.POLAR.0>
-1.20161

>  <SCORE.INTRA.REPUL>
-0.0903238

>  <SCORE.INTRA.REPUL.0>
0.115675

>  <SCORE.INTRA.SOLV>
-6.18022

>  <SCORE.INTRA.SOLV.lig_0>
-154.895

>  <SCORE.INTRA.VDW>
-5.85146

>  <SCORE.INTRA.VDW.0>
2.2925

>  <SCORE.INTRA.norm>
-0.282721

>  <SCORE.RESTR>
2.01008

>  <SCORE.RESTR.CAVITY>
2.01008

>  <SCORE.RESTR.norm>
0.047859

>  <SCORE.SYSTEM>
0

>  <SCORE.SYSTEM.CONST>
0

>  <SCORE.SYSTEM.DIHEDRAL>
0

>  <SCORE.SYSTEM.SOLV>
0

>  <SCORE.SYSTEM.norm>
0

>  <SCORE.heavy>
42

>  <SCORE.norm>
-1.0453

>  <RMSD>
14.019

$$$$

 OpenBabel11021811413D
libRbt.so/2013.1/901 2013/11/27
 42 45  0  0  0  0  0  0  0  0999 V2000
   -5.0998   -7.4979    4.3185 O   0  0  0  0  0  0  0  0  0  0  0  0
   -4.8370   -6.3115    3.5829 C   0  0  0  0  0  0  0  0  0  0  0  0
   -5.2257   -6.5139    2.1179 C   0  0  1  0  0  0  0  0  0  0  0  0
   -6.5016   -5.9044    1.8242 O   0  0  0  0  0  0  0  0  0  0  0  0
   -4.2385   -5.8971    1.1409 C   0  0  2  0  0  0  0  0  0  0  0  0
   -5.1015   -5.8092   -0.1066 C   0  0  1  0  0  0  0  0  0  0  0  0
   -5.2078   -7.0942   -0.7093 O   0  0  0  0  0  0  0  0  0  0  0  0
   -6.4680   -5.3863    0.4702 C   0  0  2  0  0  0  0  0  0  0  0  0
   -3.1746  -10.2450    1.9751 C   0  0  2  0  0  0  0  0  0  0  0  0
   -3.1255   -9.1006    1.1094 O   0  0  0  0  0  0  0  0  0  0  0  0
   -3.0730   -7.8680    1.8502 C   0  0  2  0  0  0  0  0  0  0  0  0
   -3.0835   -6.7382    0.9530 O   0  0  0  0  0  0  0  0  0  0  0  0
   -1.8239   -7.8264    2.7471 C   0  0  2  0  0  0  0  0  0  0  0  0
   -0.6362   -7.5421    1.9627 N   0  3  0  0  0  0  0  0  0  0  0  0
   -1.6318   -9.1072    3.5677 C   0  0  1  0  0  0  0  0  0  0  0  0
   -2.5238   -9.0978    4.6709 O   0  0  0  0  0  0  0  0  0  0  0  0
   -1.8607  -10.3665    2.7363 C   0  0  2  0  0  0  0  0  0  0  0  0
   -0.7825  -10.5501    1.8262 O   0  0  0  0  0  0  0  0  0  0  0  0
   -3.4580  -11.5130    1.1747 C   0  0  0  0  0  0  0  0  0  0  0  0
   -3.5440  -12.6609    2.0578 N   0  3  0  0  0  0  0  0  0  0  0  0
   -2.9428   -2.7452    1.6257 C   0  0  1  0  0  0  0  0  0  0  0  0
   -4.3697   -2.9002    1.4772 O   0  0  0  0  0  0  0  0  0  0  0  0
   -4.9589   -1.9400    0.5705 C   0  0  2  0  0  0  0  0  0  0  0  0
   -4.5010   -2.1268   -0.7916 O   0  0  0  0  0  0  0  0  0  0  0  0
   -4.6930   -0.5084    1.0517 C   0  0  2  0  0  0  0  0  0  0  0  0
   -5.1016    0.4407    0.0329 N   0  3  0  0  0  0  0  0  0  0  0  0
   -3.2208   -0.2873    1.3810 C   0  0  1  0  0  0  0  0  0  0  0  0
   -3.0604    0.9597    2.0394 O   0  0  0  0  0  0  0  0  0  0  0  0
   -2.6257   -1.3918    2.2407 C   0  0  2  0  0  0  0  0  0  0  0  0
   -1.2198   -1.2263    2.3532 O   0  0  0  0  0  0  0  0  0  0  0  0
   -2.3953   -3.8189    2.5617 C   0  0  0  0  0  0  0  0  0  0  0  0
   -0.9733   -4.0133    2.3451 N   0  3  0  0  0  0  0  0  0  0  0  0
   -7.6237   -3.6985   -3.2161 C   0  0  2  0  0  0  0  0  0  0  0  0
   -6.2063   -3.7646   -3.7496 C   0  0  0  0  0  0  0  0  0  0  0  0
   -5.3019   -2.8250   -2.9737 C   0  0  1  0  0  0  0  0  0  0  0  0
   -5.2203   -3.1781   -1.4879 C   0  0  2  0  0  0  0  0  0  0  0  0
   -6.6324   -3.3425   -0.8798 C   0  0  1  0  0  0  0  0  0  0  0  0
   -7.6635   -4.0815   -1.7429 C   0  0  1  0  0  0  0  0  0  0  0  0
   -8.4676   -4.5999   -3.9772 N   0  3  0  0  0  0  0  0  0  0  0  0
   -3.9821   -2.8385   -3.5740 N   0  3  0  0  0  0  0  0  0  0  0  0
   -6.5765   -3.9341    0.4415 O   0  0  0  0  0  0  0  0  0  0  0  0
   -8.9714   -3.8620   -1.2250 O   0  0  0  0  0  0  0  0  0  0  0  0
  1  2  1  0  0  0  0
  3  2  1  1  0  0  0
  3  4  1  0  0  0  0
  3  5  1  0  0  0  0
  4  8  1  0  0  0  0
  5  6  1  0  0  0  0
  5 12  1  6  0  0  0
  6  7  1  1  0  0  0
  6  8  1  0  0  0  0
  8 41  1  1  0  0  0
  9 10  1  0  0  0  0
  9 17  1  0  0  0  0
  9 19  1  6  0  0  0
 10 11  1  0  0  0  0
 11 12  1  6  0  0  0
 11 13  1  0  0  0  0
 13 14  1  6  0  0  0
 13 15  1  0  0  0  0
 15 16  1  1  0  0  0
 15 17  1  0  0  0  0
 17 18  1  6  0  0  0
 19 20  1  0  0  0  0
 21 22  1  0  0  0  0
 21 29  1  0  0  0  0
 21 31  1  1  0  0  0
 22 23  1  0  0  0  0
 23 24  1  6  0  0  0
 23 25  1  0  0  0  0
 25 26  1  6  0  0  0
 25 27  1  0  0  0  0
 27 28  1  1  0  0  0
 27 29  1  0  0  0  0
 29 30  1  6  0  0  0
 31 32  1  0  0  0  0
 33 34  1  0  0  0  0
 33 38  1  0  0  0  0
 33 39  1  6  0  0  0
 34 35  1  0  0  0  0
 35 36  1  0  0  0  0
 35 40  1  6  0  0  0
 36 24  1  1  0  0  0
 36 37  1  0  0  0  0
 37 38  1  0  0  0  0
 37 41  1  1  0  0  0
 38 42  1  1  0  0  0
M  CHG  6  14   1  20   1  26   1  32   1  39   1  40   1
M  END
>  <CHROM.1>
87.14531459,101.26986287,-6.95289358,-174.75487013,-176.41910242,-178.39777139
117.82732143,81.38805926,-179.58191586,-174.64512915,71.35747971,158.54746527
81.68140455,148.15730016,65.76102644,-177.61051782,51.38740694,69.07352299
64.64573906,-153.25695992,-82.38896540,-71.04585231,-4.21028146,-5.22582836
0.81330060,-1.11779484,-0.76956875,-0.07914977

>  <Name>


>  <RI>
0

>  <Rbt.Current_Directory>
/home/itssahil/PROJECTS/Mol_Feturizer/New_Systems/rnas/1qd3

>  <Rbt.Executable>
rbdock ($Id: //depot/dev/client3/rdock/2013.1/src/exe/rbdock.cxx#4 $)

>  <Rbt.Library>
libRbt.so (2013.1, Build901 2013/11/27)

>  <Rbt.Parameter_File>
/export/apps/rDock/src/rDock_2013.1_src/data/scripts/dock_solv.prm

>  <Rbt.Receptor>
prm/blind_docking_80.prm

>  <SCORE>
-50.7933

>  <SCORE.INTER>
-44.4057

>  <SCORE.INTER.CONST>
1

>  <SCORE.INTER.POLAR>
-6.84877

>  <SCORE.INTER.ROT>
9

>  <SCORE.INTER.SOLV>
37.7363

>  <SCORE.INTER.VDW>
-28.9534

>  <SCORE.INTER.norm>
-1.05728

>  <SCORE.INTRA>
-7.288

>  <SCORE.INTRA.DIHEDRAL>
-4.4531

>  <SCORE.INTRA.DIHEDRAL.0>
40.6252

>  <SCORE.INTRA.POLAR>
-0.0298958

>  <SCORE.INTRA.POLAR.0>
-1.20161

>  <SCORE.INTRA.REPUL>
-0.112655

>  <SCORE.INTRA.REPUL.0>
0.115675

>  <SCORE.INTRA.SOLV>
-7.06625

>  <SCORE.INTRA.SOLV.lig_0>
-154.895

>  <SCORE.INTRA.VDW>
-0.86341

>  <SCORE.INTRA.VDW.0>
2.2925

>  <SCORE.INTRA.norm>
-0.173524

>  <SCORE.RESTR>
0.900415

>  <SCORE.RESTR.CAVITY>
0.900415

>  <SCORE.RESTR.norm>
0.0214385

>  <SCORE.SYSTEM>
0

>  <SCORE.SYSTEM.CONST>
0

>  <SCORE.SYSTEM.DIHEDRAL>
0

>  <SCORE.SYSTEM.SOLV>
0

>  <SCORE.SYSTEM.norm>
0

>  <SCORE.heavy>
42

>  <SCORE.norm>
-1.20937

>  <RMSD>
14.019

$$$$

 OpenBabel11021811413D
libRbt.so/2013.1/901 2013/11/27
 42 45  0  0  0  0  0  0  0  0999 V2000
   -5.4046  -10.0057   -3.0010 O   0  0  0  0  0  0  0  0  0  0  0  0
   -4.3196   -9.7618   -2.1173 C   0  0  0  0  0  0  0  0  0  0  0  0
   -4.8294   -9.0778   -0.8482 C   0  0  1  0  0  0  0  0  0  0  0  0
   -3.9358   -9.3016    0.2641 O   0  0  0  0  0  0  0  0  0  0  0  0
   -4.9511   -7.5690   -0.9832 C   0  0  2  0  0  0  0  0  0  0  0  0
   -4.9680   -7.1603    0.4802 C   0  0  1  0  0  0  0  0  0  0  0  0
   -6.2522   -7.4188    1.0369 O   0  0  0  0  0  0  0  0  0  0  0  0
   -3.9270   -8.1156    1.0985 C   0  0  2  0  0  0  0  0  0  0  0  0
   -5.5586   -3.6829   -2.4829 C   0  0  2  0  0  0  0  0  0  0  0  0
   -5.4074   -5.1104   -2.5078 O   0  0  0  0  0  0  0  0  0  0  0  0
   -6.3760   -5.7683   -1.6711 C   0  0  2  0  0  0  0  0  0  0  0  0
   -6.1598   -7.1947   -1.6731 O   0  0  0  0  0  0  0  0  0  0  0  0
   -7.8056   -5.4440   -2.1374 C   0  0  2  0  0  0  0  0  0  0  0  0
   -8.1438   -6.2033   -3.3271 N   0  3  0  0  0  0  0  0  0  0  0  0
   -8.0344   -3.9464   -2.3729 C   0  0  1  0  0  0  0  0  0  0  0  0
   -8.2066   -3.2943   -1.1247 O   0  0  0  0  0  0  0  0  0  0  0  0
   -6.8810   -3.2977   -3.1335 C   0  0  2  0  0  0  0  0  0  0  0  0
   -6.8987   -3.7176   -4.4929 O   0  0  0  0  0  0  0  0  0  0  0  0
   -4.3878   -3.0056   -3.1896 C   0  0  0  0  0  0  0  0  0  0  0  0
   -3.9056   -1.8822   -2.4083 N   0  3  0  0  0  0  0  0  0  0  0  0
   -4.1695   -3.3453    2.3243 C   0  0  1  0  0  0  0  0  0  0  0  0
   -3.8316   -4.5608    1.6239 O   0  0  0  0  0  0  0  0  0  0  0  0
   -2.4491   -4.9516    1.7892 C   0  0  2  0  0  0  0  0  0  0  0  0
   -2.1458   -5.3099    3.1601 O   0  0  0  0  0  0  0  0  0  0  0  0
   -1.5115   -3.8474    1.2860 C   0  0  2  0  0  0  0  0  0  0  0  0
   -0.1410   -4.1581    1.6480 N   0  3  0  0  0  0  0  0  0  0  0  0
   -1.8845   -2.4847    1.8590 C   0  0  1  0  0  0  0  0  0  0  0  0
   -1.1516   -1.4688    1.1919 O   0  0  0  0  0  0  0  0  0  0  0  0
   -3.3715   -2.1798    1.7628 C   0  0  2  0  0  0  0  0  0  0  0  0
   -3.6788   -0.9913    2.4766 O   0  0  0  0  0  0  0  0  0  0  0  0
   -5.6499   -3.0272    2.1341 C   0  0  0  0  0  0  0  0  0  0  0  0
   -6.1390   -3.5835    0.8860 N   0  3  0  0  0  0  0  0  0  0  0  0
   -1.1432   -9.3405    4.0812 C   0  0  2  0  0  0  0  0  0  0  0  0
   -1.9110   -8.5434    5.1171 C   0  0  0  0  0  0  0  0  0  0  0  0
   -1.8297   -7.0589    4.8129 C   0  0  1  0  0  0  0  0  0  0  0  0
   -2.4376   -6.7009    3.4559 C   0  0  2  0  0  0  0  0  0  0  0  0
   -1.8704   -7.6074    2.3390 C   0  0  1  0  0  0  0  0  0  0  0  0
   -1.7026   -9.0924    2.6868 C   0  0  1  0  0  0  0  0  0  0  0  0
   -1.2317  -10.7533    4.3976 N   0  3  0  0  0  0  0  0  0  0  0  0
   -2.4868   -6.3234    5.8757 N   0  3  0  0  0  0  0  0  0  0  0  0
   -2.6223   -7.4682    1.1085 O   0  0  0  0  0  0  0  0  0  0  0  0
   -0.8729   -9.7237    1.7173 O   0  0  0  0  0  0  0  0  0  0  0  0
  1  2  1  0  0  0  0
  3  2  1  6  0  0  0
  3  4  1  0  0  0  0
  3  5  1  0  0  0  0
  4  8  1  0  0  0  0
  5  6  1  0  0  0  0
  5 12  1  1  0  0  0
  6  7  1  1  0  0  0
  6  8  1  0  0  0  0
  8 41  1  6  0  0  0
  9 10  1  0  0  0  0
  9 17  1  0  0  0  0
  9 19  1  6  0  0  0
 10 11  1  0  0  0  0
 11 12  1  6  0  0  0
 11 13  1  0  0  0  0
 13 14  1  6  0  0  0
 13 15  1  0  0  0  0
 15 16  1  1  0  0  0
 15 17  1  0  0  0  0
 17 18  1  6  0  0  0
 19 20  1  0  0  0  0
 21 22  1  0  0  0  0
 21 29  1  0  0  0  0
 21 31  1  6  0  0  0
 22 23  1  0  0  0  0
 23 24  1  1  0  0  0
 23 25  1  0  0  0  0
 25 26  1  1  0  0  0
 25 27  1  0  0  0  0
 27 28  1  6  0  0  0
 27 29  1  0  0  0  0
 29 30  1  1  0  0  0
 31 32  1  0  0  0  0
 33 34  1  0  0  0  0
 33 38  1  0  0  0  0
 33 39  1  1  0  0  0
 34 35  1  0  0  0  0
 35 36  1  0  0  0  0
 35 40  1  1  0  0  0
 36 24  1  6  0  0  0
 36 37  1  0  0  0  0
 37 38  1  0  0  0  0
 37 41  1  6  0  0  0
 38 42  1  6  0  0  0
M  CHG  6  14   1  20   1  26   1  32   1  39   1  40   1
M  END
>  <CHROM.1>
-175.63554880,156.21113402,173.00698967,172.61693902,-107.61693967,-135.10344515
69.64234866,72.83245424,-55.31910140,-60.34696610,156.05263532,-27.05103250
86.29468703,168.57111364,-152.55227920,-63.39745781,-61.58999966,99.12532325
-62.75710481,-53.95763526,-74.82358567,-162.78861088,-4.07039087,-5.78379029
0.52977596,2.73413150,-0.89745285,0.01844690

>  <Name>


>  <RI>
0

>  <Rbt.Current_Directory>
/home/itssahil/PROJECTS/Mol_Feturizer/New_Systems/rnas/1qd3

>  <Rbt.Executable>
rbdock ($Id: //depot/dev/client3/rdock/2013.1/src/exe/rbdock.cxx#4 $)

>  <Rbt.Library>
libRbt.so (2013.1, Build901 2013/11/27)

>  <Rbt.Parameter_File>
/export/apps/rDock/src/rDock_2013.1_src/data/scripts/dock_solv.prm

>  <Rbt.Receptor>
prm/blind_docking_40.prm

>  <SCORE>
-47.9775

>  <SCORE.INTER>
-35.4734

>  <SCORE.INTER.CONST>
1

>  <SCORE.INTER.POLAR>
-5.8105

>  <SCORE.INTER.ROT>
9

>  <SCORE.INTER.SOLV>
29.3759

>  <SCORE.INTER.VDW>
-23.6725

>  <SCORE.INTER.norm>
-0.844604

>  <SCORE.INTRA>
-16.2054

>  <SCORE.INTRA.DIHEDRAL>
-11.9859

>  <SCORE.INTRA.DIHEDRAL.0>
40.6252

>  <SCORE.INTRA.POLAR>
0.12317

>  <SCORE.INTRA.POLAR.0>
-1.20161

>  <SCORE.INTRA.REPUL>
-0.115675

>  <SCORE.INTRA.REPUL.0>
0.115675

>  <SCORE.INTRA.SOLV>
-6.00111

>  <SCORE.INTRA.SOLV.lig_0>
-154.895

>  <SCORE.INTRA.VDW>
-7.05232

>  <SCORE.INTRA.VDW.0>
2.2925

>  <SCORE.INTRA.norm>
-0.385843

>  <SCORE.RESTR>
3.70131

>  <SCORE.RESTR.CAVITY>
3.70131

>  <SCORE.RESTR.norm>
0.0881263

>  <SCORE.SYSTEM>
0

>  <SCORE.SYSTEM.CONST>
0

>  <SCORE.SYSTEM.DIHEDRAL>
0

>  <SCORE.SYSTEM.SOLV>
0

>  <SCORE.SYSTEM.norm>
0

>  <SCORE.heavy>
42

>  <SCORE.norm>
-1.14232

>  <RMSD>
14.034

$$$$

 OpenBabel11021811413D
libRbt.so/2013.1/901 2013/11/27
 42 45  0  0  0  0  0  0  0  0999 V2000
   -1.8355   -5.4805    5.4694 O   0  0  0  0  0  0  0  0  0  0  0  0
   -2.8846   -4.8722    4.7298 C   0  0  0  0  0  0  0  0  0  0  0  0
   -3.9457   -5.9168    4.3815 C   0  0  1  0  0  0  0  0  0  0  0  0
   -4.8971   -5.4003    3.4256 O   0  0  0  0  0  0  0  0  0  0  0  0
   -3.3701   -7.1750    3.7528 C   0  0  2  0  0  0  0  0  0  0  0  0
   -4.6120   -7.7460    3.0890 C   0  0  1  0  0  0  0  0  0  0  0  0
   -5.4379   -8.3673    4.0677 O   0  0  0  0  0  0  0  0  0  0  0  0
   -5.3046   -6.4792    2.5466 C   0  0  2  0  0  0  0  0  0  0  0  0
   -1.8271  -10.4089    2.1310 C   0  0  2  0  0  0  0  0  0  0  0  0
   -2.3002   -9.1960    2.7364 O   0  0  0  0  0  0  0  0  0  0  0  0
   -2.2865   -9.2714    4.1734 C   0  0  2  0  0  0  0  0  0  0  0  0
   -2.8214   -8.0610    4.7482 O   0  0  0  0  0  0  0  0  0  0  0  0
   -0.8596   -9.5230    4.6902 C   0  0  2  0  0  0  0  0  0  0  0  0
   -0.0683   -8.3078    4.6292 N   0  3  0  0  0  0  0  0  0  0  0  0
   -0.1480  -10.6648    3.9548 C   0  0  1  0  0  0  0  0  0  0  0  0
   -0.6296  -11.9086    4.4384 O   0  0  0  0  0  0  0  0  0  0  0  0
   -0.3475  -10.5923    2.4434 C   0  0  2  0  0  0  0  0  0  0  0  0
    0.4044   -9.5107    1.9057 O   0  0  0  0  0  0  0  0  0  0  0  0
   -2.0655  -10.3863    0.6239 C   0  0  0  0  0  0  0  0  0  0  0  0
   -3.4532  -10.6869    0.3259 N   0  3  0  0  0  0  0  0  0  0  0  0
   -3.1228   -4.5067    0.6778 C   0  0  1  0  0  0  0  0  0  0  0  0
   -3.5920   -4.0192    1.9523 O   0  0  0  0  0  0  0  0  0  0  0  0
   -4.5465   -2.9390    1.8362 C   0  0  2  0  0  0  0  0  0  0  0  0
   -5.7825   -3.3705    1.2149 O   0  0  0  0  0  0  0  0  0  0  0  0
   -3.9325   -1.7540    1.0810 C   0  0  2  0  0  0  0  0  0  0  0  0
   -4.9569   -0.7690    0.7877 N   0  3  0  0  0  0  0  0  0  0  0  0
   -3.2732   -2.1943   -0.2214 C   0  0  1  0  0  0  0  0  0  0  0  0
   -2.5212   -1.1198   -0.7636 O   0  0  0  0  0  0  0  0  0  0  0  0
   -2.3719   -3.4084   -0.0573 C   0  0  2  0  0  0  0  0  0  0  0  0
   -1.9418   -3.8789   -1.3262 O   0  0  0  0  0  0  0  0  0  0  0  0
   -2.1559   -5.6687    0.8869 C   0  0  0  0  0  0  0  0  0  0  0  0
   -1.9277   -6.3780   -0.3587 N   0  3  0  0  0  0  0  0  0  0  0  0
   -6.9687   -5.8931   -1.9989 C   0  0  2  0  0  0  0  0  0  0  0  0
   -6.4388   -4.5132   -2.3352 C   0  0  0  0  0  0  0  0  0  0  0  0
   -6.4495   -3.6252   -1.1047 C   0  0  1  0  0  0  0  0  0  0  0  0
   -5.5643   -4.1648    0.0196 C   0  0  2  0  0  0  0  0  0  0  0  0
   -5.8811   -5.6503    0.3089 C   0  0  1  0  0  0  0  0  0  0  0  0
   -6.1230   -6.5455   -0.9136 C   0  0  1  0  0  0  0  0  0  0  0  0
   -6.9534   -6.7190   -3.1912 N   0  3  0  0  0  0  0  0  0  0  0  0
   -6.0337   -2.2891   -1.4842 N   0  3  0  0  0  0  0  0  0  0  0  0
   -4.8828   -6.2485    1.1717 O   0  0  0  0  0  0  0  0  0  0  0  0
   -6.7272   -7.7678   -0.5038 O   0  0  0  0  0  0  0  0  0  0  0  0
  1  2  1  0  0  0  0
  3  2  1  6  0  0  0
  3  4  1  0  0  0  0
  3  5  1  0  0  0  0
  4  8  1  0  0  0  0
  5  6  1  0  0  0  0
  5 12  1  1  0  0  0
  6  7  1  1  0  0  0
  6  8  1  0  0  0  0
  8 41  1  6  0  0  0
  9 10  1  0  0  0  0
  9 17  1  0  0  0  0
  9 19  1  6  0  0  0
 10 11  1  0  0  0  0
 11 12  1  1  0  0  0
 11 13  1  0  0  0  0
 13 14  1  6  0  0  0
 13 15  1  0  0  0  0
 15 16  1  1  0  0  0
 15 17  1  0  0  0  0
 17 18  1  1  0  0  0
 19 20  1  0  0  0  0
 21 22  1  0  0  0  0
 21 29  1  0  0  0  0
 21 31  1  1  0  0  0
 22 23  1  0  0  0  0
 23 24  1  6  0  0  0
 23 25  1  0  0  0  0
 25 26  1  6  0  0  0
 25 27  1  0  0  0  0
 27 28  1  1  0  0  0
 27 29  1  0  0  0  0
 29 30  1  6  0  0  0
 31 32  1  0  0  0  0
 33 34  1  0  0  0  0
 33 38  1  0  0  0  0
 33 39  1  6  0  0  0
 34 35  1  0  0  0  0
 35 36  1  0  0  0  0
 35 40  1  6  0  0  0
 36 24  1  1  0  0  0
 36 37  1  0  0  0  0
 37 38  1  0  0  0  0
 37 41  1  6  0  0  0
 38 42  1  1  0  0  0
M  CHG  6  14   1  20   1  26   1  32   1  39   1  40   1
M  END
>  <CHROM.1>
-59.79157840,-169.28209034,179.17087320,-72.73485046,-96.01190630,-78.37960512
6.95744079,-68.02128566,-57.22269902,-173.86542486,54.50523062,166.10518909
-46.59144461,-131.51789455,108.24391869,-179.41470875,65.29688045,57.39729839
63.90867937,-73.54523698,105.95997588,-178.31977089,-3.57178664,-6.27574539
1.50757594,-0.76503270,-0.92432002,0.11568385

>  <Name>


>  <RI>
0

>  <Rbt.Current_Directory>
/home/itssahil/PROJECTS/Mol_Feturizer/New_Systems/rnas/1qd3

>  <Rbt.Executable>
rbdock ($Id: //depot/dev/client3/rdock/2013.1/src/exe/rbdock.cxx#4 $)

>  <Rbt.Library>
libRbt.so (2013.1, Build901 2013/11/27)

>  <Rbt.Parameter_File>
/export/apps/rDock/src/rDock_2013.1_src/data/scripts/dock_solv.prm

>  <Rbt.Receptor>
prm/blind_docking_80.prm

>  <SCORE>
-42.723

>  <SCORE.INTER>
-44.0146

>  <SCORE.INTER.CONST>
1

>  <SCORE.INTER.POLAR>
-6.71606

>  <SCORE.INTER.ROT>
9

>  <SCORE.INTER.SOLV>
30.0432

>  <SCORE.INTER.VDW>
-26.5706

>  <SCORE.INTER.norm>
-1.04797

>  <SCORE.INTRA>
-0.825962

>  <SCORE.INTRA.DIHEDRAL>
-6.13549

>  <SCORE.INTRA.DIHEDRAL.0>
40.6252

>  <SCORE.INTRA.POLAR>
0.461688

>  <SCORE.INTRA.POLAR.0>
-1.20161

>  <SCORE.INTRA.REPUL>
-0.0658819

>  <SCORE.INTRA.REPUL.0>
0.115675

>  <SCORE.INTRA.SOLV>
2.59042

>  <SCORE.INTRA.SOLV.lig_0>
-154.895

>  <SCORE.INTRA.VDW>
-0.293758

>  <SCORE.INTRA.VDW.0>
2.2925

>  <SCORE.INTRA.norm>
-0.0196658

>  <SCORE.RESTR>
2.11754

>  <SCORE.RESTR.CAVITY>
2.11754

>  <SCORE.RESTR.norm>
0.0504175

>  <SCORE.SYSTEM>
0

>  <SCORE.SYSTEM.CONST>
0

>  <SCORE.SYSTEM.DIHEDRAL>
0

>  <SCORE.SYSTEM.SOLV>
0

>  <SCORE.SYSTEM.norm>
0

>  <SCORE.heavy>
42

>  <SCORE.norm>
-1.01722

>  <RMSD>
14.036

$$$$

 OpenBabel11021811413D
libRbt.so/2013.1/901 2013/11/27
 42 45  0  0  0  0  0  0  0  0999 V2000
   -4.4833   -7.5439   -1.3307 O   0  0  0  0  0  0  0  0  0  0  0  0
   -5.7607   -6.9360   -1.2021 C   0  0  0  0  0  0  0  0  0  0  0  0
   -5.8479   -6.1919    0.1310 C   0  0  1  0  0  0  0  0  0  0  0  0
   -5.3286   -6.9932    1.2145 O   0  0  0  0  0  0  0  0  0  0  0  0
   -5.0494   -4.8991    0.1538 C   0  0  2  0  0  0  0  0  0  0  0  0
   -4.9135   -4.6837    1.6518 C   0  0  1  0  0  0  0  0  0  0  0  0
   -6.1354   -4.1772    2.1777 O   0  0  0  0  0  0  0  0  0  0  0  0
   -4.6753   -6.1174    2.1680 C   0  0  2  0  0  0  0  0  0  0  0  0
   -6.6299   -4.9509   -3.8601 C   0  0  2  0  0  0  0  0  0  0  0  0
   -6.7064   -4.7996   -2.4343 O   0  0  0  0  0  0  0  0  0  0  0  0
   -5.6925   -3.9101   -1.9329 C   0  0  2  0  0  0  0  0  0  0  0  0
   -5.7604   -3.8260   -0.4942 O   0  0  0  0  0  0  0  0  0  0  0  0
   -5.8400   -2.5119   -2.5573 C   0  0  2  0  0  0  0  0  0  0  0  0
   -6.9413   -1.7894   -1.9478 N   0  3  0  0  0  0  0  0  0  0  0  0
   -6.0005   -2.5497   -4.0816 C   0  0  1  0  0  0  0  0  0  0  0  0
   -4.7352   -2.7737   -4.6829 O   0  0  0  0  0  0  0  0  0  0  0  0
   -6.9795   -3.6299   -4.5334 C   0  0  2  0  0  0  0  0  0  0  0  0
   -8.3098   -3.2486   -4.2029 O   0  0  0  0  0  0  0  0  0  0  0  0
   -7.5596   -6.0647   -4.3334 C   0  0  0  0  0  0  0  0  0  0  0  0
   -8.7850   -6.0661   -3.5566 N   0  3  0  0  0  0  0  0  0  0  0  0
   -2.1212   -3.5722    3.2885 C   0  0  1  0  0  0  0  0  0  0  0  0
   -1.5587   -4.9004    3.3283 O   0  0  0  0  0  0  0  0  0  0  0  0
   -1.5404   -5.4751    4.6552 C   0  0  2  0  0  0  0  0  0  0  0  0
   -2.8767   -5.7080    5.1651 O   0  0  0  0  0  0  0  0  0  0  0  0
   -0.7284   -4.5958    5.6139 C   0  0  2  0  0  0  0  0  0  0  0  0
   -0.8922   -5.0664    6.9768 N   0  3  0  0  0  0  0  0  0  0  0  0
   -1.1513   -3.1332    5.5346 C   0  0  1  0  0  0  0  0  0  0  0  0
   -0.2275   -2.3289    6.2515 O   0  0  0  0  0  0  0  0  0  0  0  0
   -1.2673   -2.6185    4.1081 C   0  0  2  0  0  0  0  0  0  0  0  0
   -1.8417   -1.3198    4.0971 O   0  0  0  0  0  0  0  0  0  0  0  0
   -2.1426   -3.0569    1.8523 C   0  0  0  0  0  0  0  0  0  0  0  0
   -0.8954   -3.3651    1.1769 N   0  3  0  0  0  0  0  0  0  0  0  0
   -2.8471   -9.7749    3.9166 C   0  0  2  0  0  0  0  0  0  0  0  0
   -3.6787   -9.4088    5.1300 C   0  0  0  0  0  0  0  0  0  0  0  0
   -3.2666   -8.0504    5.6666 C   0  0  1  0  0  0  0  0  0  0  0  0
   -3.4715   -6.9275    4.6488 C   0  0  2  0  0  0  0  0  0  0  0  0
   -2.8325   -7.2904    3.2883 C   0  0  1  0  0  0  0  0  0  0  0  0
   -3.0165   -8.7381    2.8143 C   0  0  1  0  0  0  0  0  0  0  0  0
   -3.2561  -11.0777    3.4274 N   0  3  0  0  0  0  0  0  0  0  0  0
   -4.0095   -7.7786    6.8818 N   0  3  0  0  0  0  0  0  0  0  0  0
   -3.2432   -6.3715    2.2462 O   0  0  0  0  0  0  0  0  0  0  0  0
   -2.1114   -9.0157    1.7509 O   0  0  0  0  0  0  0  0  0  0  0  0
  1  2  1  0  0  0  0
  3  2  1  6  0  0  0
  3  4  1  0  0  0  0
  3  5  1  0  0  0  0
  4  8  1  0  0  0  0
  5  6  1  0  0  0  0
  5 12  1  1  0  0  0
  6  7  1  1  0  0  0
  6  8  1  0  0  0  0
  8 41  1  6  0  0  0
  9 10  1  0  0  0  0
  9 17  1  0  0  0  0
  9 19  1  6  0  0  0
 10 11  1  0  0  0  0
 11 12  1  1  0  0  0
 11 13  1  0  0  0  0
 13 14  1  1  0  0  0
 13 15  1  0  0  0  0
 15 16  1  6  0  0  0
 15 17  1  0  0  0  0
 17 18  1  1  0  0  0
 19 20  1  0  0  0  0
 21 22  1  0  0  0  0
 21 29  1  0  0  0  0
 21 31  1  6  0  0  0
 22 23  1  0  0  0  0
 23 24  1  1  0  0  0
 23 25  1  0  0  0  0
 25 26  1  1  0  0  0
 25 27  1  0  0  0  0
 27 28  1  1  0  0  0
 27 29  1  0  0  0  0
 29 30  1  1  0  0  0
 31 32  1  0  0  0  0
 33 34  1  0  0  0  0
 33 38  1  0  0  0  0
 33 39  1  6  0  0  0
 34 35  1  0  0  0  0
 35 36  1  0  0  0  0
 35 40  1  1  0  0  0
 36 24  1  1  0  0  0
 36 37  1  0  0  0  0
 37 38  1  0  0  0  0
 37 41  1  6  0  0  0
 38 42  1  6  0  0  0
M  CHG  6  14   1  20   1  26   1  32   1  39   1  40   1
M  END
>  <CHROM.1>
-59.63472774,-45.36159201,-77.90410076,-164.06618796,-93.96641982,37.07886727
84.04662097,-53.85515499,-45.26747263,-68.47079758,-160.07724371,-43.36242796
80.36391604,96.75750632,57.10994472,-37.22092338,-64.75322518,-39.57386894
-94.73270795,-157.37538727,-48.50999412,-178.47089506,-4.08283633,-5.30295641
1.37997288,2.60512391,-0.97087385,-0.41239680

>  <Name>


>  <RI>
0

>  <Rbt.Current_Directory>
/home/itssahil/PROJECTS/Mol_Feturizer/New_Systems/rnas/1qd3

>  <Rbt.Executable>
rbdock ($Id: //depot/dev/client3/rdock/2013.1/src/exe/rbdock.cxx#4 $)

>  <Rbt.Library>
libRbt.so (2013.1, Build901 2013/11/27)

>  <Rbt.Parameter_File>
/export/apps/rDock/src/rDock_2013.1_src/data/scripts/dock_solv.prm

>  <Rbt.Receptor>
prm/blind_docking_40.prm

>  <SCORE>
-41.2706

>  <SCORE.INTER>
-36.4341

>  <SCORE.INTER.CONST>
1

>  <SCORE.INTER.POLAR>
-5.62853

>  <SCORE.INTER.ROT>
9

>  <SCORE.INTER.SOLV>
33.7502

>  <SCORE.INTER.VDW>
-26.3777

>  <SCORE.INTER.norm>
-0.867479

>  <SCORE.INTRA>
-9.19452

>  <SCORE.INTRA.DIHEDRAL>
-10.6389

>  <SCORE.INTRA.DIHEDRAL.0>
40.6252

>  <SCORE.INTRA.POLAR>
1.11698

>  <SCORE.INTRA.POLAR.0>
-1.20161

>  <SCORE.INTRA.REPUL>
-0.115675

>  <SCORE.INTRA.REPUL.0>
0.115675

>  <SCORE.INTRA.SOLV>
-8.49346

>  <SCORE.INTRA.SOLV.lig_0>
-154.895

>  <SCORE.INTRA.VDW>
-2.84771

>  <SCORE.INTRA.VDW.0>
2.2925

>  <SCORE.INTRA.norm>
-0.218917

>  <SCORE.RESTR>
4.35808

>  <SCORE.RESTR.CAVITY>
4.35808

>  <SCORE.RESTR.norm>
0.103764

>  <SCORE.SYSTEM>
0

>  <SCORE.SYSTEM.CONST>
0

>  <SCORE.SYSTEM.DIHEDRAL>
0

>  <SCORE.SYSTEM.SOLV>
0

>  <SCORE.SYSTEM.norm>
0

>  <SCORE.heavy>
42

>  <SCORE.norm>
-0.982632

>  <RMSD>
14.045

$$$$

 OpenBabel11021811413D
libRbt.so/2013.1/901 2013/11/27
 42 45  0  0  0  0  0  0  0  0999 V2000
   -3.0728   -9.8381   -2.3881 O   0  0  0  0  0  0  0  0  0  0  0  0
   -4.4896   -9.7538   -2.4442 C   0  0  0  0  0  0  0  0  0  0  0  0
   -5.0108   -8.9839   -1.2301 C   0  0  1  0  0  0  0  0  0  0  0  0
   -4.3140   -9.3693   -0.0253 O   0  0  0  0  0  0  0  0  0  0  0  0
   -4.8320   -7.4794   -1.3474 C   0  0  2  0  0  0  0  0  0  0  0  0
   -4.9471   -7.0720    0.1119 C   0  0  1  0  0  0  0  0  0  0  0  0
   -6.3141   -7.0839    0.5082 O   0  0  0  0  0  0  0  0  0  0  0  0
   -4.1839   -8.2045    0.8286 C   0  0  2  0  0  0  0  0  0  0  0  0
   -5.9869   -3.8320   -4.1684 C   0  0  2  0  0  0  0  0  0  0  0  0
   -6.3286   -5.1467   -3.7032 O   0  0  0  0  0  0  0  0  0  0  0  0
   -5.5311   -5.5408   -2.5721 C   0  0  2  0  0  0  0  0  0  0  0  0
   -5.8585   -6.8863   -2.1669 O   0  0  0  0  0  0  0  0  0  0  0  0
   -5.7329   -4.5658   -1.3994 C   0  0  2  0  0  0  0  0  0  0  0  0
   -7.0018   -4.8106   -0.7389 N   0  3  0  0  0  0  0  0  0  0  0  0
   -5.6192   -3.0948   -1.8162 C   0  0  1  0  0  0  0  0  0  0  0  0
   -4.2508   -2.7534   -1.9706 O   0  0  0  0  0  0  0  0  0  0  0  0
   -6.3685   -2.8016   -3.1133 C   0  0  2  0  0  0  0  0  0  0  0  0
   -7.7719   -2.8346   -2.8814 O   0  0  0  0  0  0  0  0  0  0  0  0
   -6.6803   -3.5338   -5.4947 C   0  0  0  0  0  0  0  0  0  0  0  0
   -8.1160   -3.6962   -5.3636 N   0  3  0  0  0  0  0  0  0  0  0  0
   -1.8858   -4.6991    2.2022 C   0  0  1  0  0  0  0  0  0  0  0  0
   -2.5449   -4.7389    3.4853 O   0  0  0  0  0  0  0  0  0  0  0  0
   -3.9868   -4.7909    3.3871 C   0  0  2  0  0  0  0  0  0  0  0  0
   -4.4462   -6.0257    2.7838 O   0  0  0  0  0  0  0  0  0  0  0  0
   -4.5210   -3.5715    2.6260 C   0  0  2  0  0  0  0  0  0  0  0  0
   -5.9360   -3.7397    2.3515 N   0  3  0  0  0  0  0  0  0  0  0  0
   -3.7780   -3.3552    1.3124 C   0  0  1  0  0  0  0  0  0  0  0  0
   -4.1368   -2.0973    0.7618 O   0  0  0  0  0  0  0  0  0  0  0  0
   -2.2659   -3.4289    1.4589 C   0  0  2  0  0  0  0  0  0  0  0  0
   -1.6447   -3.4083    0.1821 O   0  0  0  0  0  0  0  0  0  0  0  0
   -0.3718   -4.6885    2.3929 C   0  0  0  0  0  0  0  0  0  0  0  0
   -0.0136   -5.2256    3.6929 N   0  3  0  0  0  0  0  0  0  0  0  0
   -1.0471   -8.0186    4.3881 C   0  0  2  0  0  0  0  0  0  0  0  0
   -2.3365   -8.0571    5.1844 C   0  0  0  0  0  0  0  0  0  0  0  0
   -3.2977   -6.9913    4.6914 C   0  0  1  0  0  0  0  0  0  0  0  0
   -3.6901   -7.1834    3.2258 C   0  0  2  0  0  0  0  0  0  0  0  0
   -2.4380   -7.3658    2.3370 C   0  0  1  0  0  0  0  0  0  0  0  0
   -1.3206   -8.2488    2.9080 C   0  0  1  0  0  0  0  0  0  0  0  0
   -0.1450   -9.0414    4.8820 N   0  3  0  0  0  0  0  0  0  0  0  0
   -4.4747   -6.9901    5.5382 N   0  3  0  0  0  0  0  0  0  0  0  0
   -2.7920   -7.8133    1.0054 O   0  0  0  0  0  0  0  0  0  0  0  0
   -0.1234   -8.0533    2.1625 O   0  0  0  0  0  0  0  0  0  0  0  0
  1  2  1  0  0  0  0
  3  2  1  6  0  0  0
  3  4  1  0  0  0  0
  3  5  1  0  0  0  0
  4  8  1  0  0  0  0
  5  6  1  0  0  0  0
  5 12  1  6  0  0  0
  6  7  1  1  0  0  0
  6  8  1  0  0  0  0
  8 41  1  6  0  0  0
  9 10  1  0  0  0  0
  9 17  1  0  0  0  0
  9 19  1  6  0  0  0
 10 11  1  0  0  0  0
 11 12  1  1  0  0  0
 11 13  1  0  0  0  0
 13 14  1  6  0  0  0
 13 15  1  0  0  0  0
 15 16  1  6  0  0  0
 15 17  1  0  0  0  0
 17 18  1  1  0  0  0
 19 20  1  0  0  0  0
 21 22  1  0  0  0  0
 21 29  1  0  0  0  0
 21 31  1  1  0  0  0
 22 23  1  0  0  0  0
 23 24  1  6  0  0  0
 23 25  1  0  0  0  0
 25 26  1  6  0  0  0
 25 27  1  0  0  0  0
 27 28  1  1  0  0  0
 27 29  1  0  0  0  0
 29 30  1  6  0  0  0
 31 32  1  0  0  0  0
 33 34  1  0  0  0  0
 33 38  1  0  0  0  0
 33 39  1  1  0  0  0
 34 35  1  0  0  0  0
 35 36  1  0  0  0  0
 35 40  1  1  0  0  0
 36 24  1  6  0  0  0
 36 37  1  0  0  0  0
 37 38  1  0  0  0  0
 37 41  1  6  0  0  0
 38 42  1  6  0  0  0
M  CHG  6  14   1  20   1  26   1  32   1  39   1  40   1
M  END
>  <CHROM.1>
62.47242179,-41.83082236,-165.27410976,82.47601296,-140.99795219,56.00713902
161.44003013,-32.93513507,-70.06346448,-175.26895790,142.01994905,21.93419329
39.78457897,35.06255305,-176.92917232,62.23231433,63.67795688,-96.26750100
61.42899855,97.08021346,-9.42775540,67.84368633,-4.05321400,-5.82157762,0.51079659
3.06543954,-1.01724087,0.30325373

>  <Name>


>  <RI>
0

>  <Rbt.Current_Directory>
/home/itssahil/PROJECTS/Mol_Feturizer/New_Systems/rnas/1qd3

>  <Rbt.Executable>
rbdock ($Id: //depot/dev/client3/rdock/2013.1/src/exe/rbdock.cxx#4 $)

>  <Rbt.Library>
libRbt.so (2013.1, Build901 2013/11/27)

>  <Rbt.Parameter_File>
/export/apps/rDock/src/rDock_2013.1_src/data/scripts/dock_solv.prm

>  <Rbt.Receptor>
prm/blind_docking_40.prm

>  <SCORE>
-16.6324

>  <SCORE.INTER>
-10.6796

>  <SCORE.INTER.CONST>
1

>  <SCORE.INTER.POLAR>
-3.12268

>  <SCORE.INTER.ROT>
9

>  <SCORE.INTER.SOLV>
32.473

>  <SCORE.INTER.VDW>
-17.1351

>  <SCORE.INTER.norm>
-0.254276

>  <SCORE.INTRA>
-8.0655

>  <SCORE.INTRA.DIHEDRAL>
-5.1714

>  <SCORE.INTRA.DIHEDRAL.0>
40.6252

>  <SCORE.INTRA.POLAR>
-1.22009

>  <SCORE.INTRA.POLAR.0>
-1.20161

>  <SCORE.INTRA.REPUL>
-0.115675

>  <SCORE.INTRA.REPUL.0>
0.115675

>  <SCORE.INTRA.SOLV>
5.73897

>  <SCORE.INTRA.SOLV.lig_0>
-154.895

>  <SCORE.INTRA.VDW>
-3.62262

>  <SCORE.INTRA.VDW.0>
2.2925

>  <SCORE.INTRA.norm>
-0.192036

>  <SCORE.RESTR>
2.11273

>  <SCORE.RESTR.CAVITY>
2.11273

>  <SCORE.RESTR.norm>
0.0503032

>  <SCORE.SYSTEM>
0

>  <SCORE.SYSTEM.CONST>
0

>  <SCORE.SYSTEM.DIHEDRAL>
0

>  <SCORE.SYSTEM.SOLV>
0

>  <SCORE.SYSTEM.norm>
0

>  <SCORE.heavy>
42

>  <SCORE.norm>
-0.396008

>  <RMSD>
14.045

$$$$

 OpenBabel11021811413D
libRbt.so/2013.1/901 2013/11/27
 42 45  0  0  0  0  0  0  0  0999 V2000
   -2.9711   -5.1332    4.2675 O   0  0  0  0  0  0  0  0  0  0  0  0
   -3.8358   -4.2840    3.5267 C   0  0  0  0  0  0  0  0  0  0  0  0
   -5.0278   -5.0872    3.0047 C   0  0  1  0  0  0  0  0  0  0  0  0
   -5.6489   -4.4324    1.8773 O   0  0  0  0  0  0  0  0  0  0  0  0
   -4.6525   -6.4776    2.5196 C   0  0  2  0  0  0  0  0  0  0  0  0
   -5.8527   -6.7991    1.6448 C   0  0  1  0  0  0  0  0  0  0  0  0
   -6.9602   -7.1612    2.4622 O   0  0  0  0  0  0  0  0  0  0  0  0
   -6.1285   -5.4461    0.9579 C   0  0  2  0  0  0  0  0  0  0  0  0
   -3.1877   -9.9321    1.3371 C   0  0  2  0  0  0  0  0  0  0  0  0
   -3.6247   -8.6484    1.8089 O   0  0  0  0  0  0  0  0  0  0  0  0
   -4.0207   -8.6901    3.1917 C   0  0  2  0  0  0  0  0  0  0  0  0
   -4.5083   -7.4005    3.6170 O   0  0  0  0  0  0  0  0  0  0  0  0
   -2.8464   -9.1365    4.0795 C   0  0  2  0  0  0  0  0  0  0  0  0
   -1.8981   -8.0530    4.2620 N   0  3  0  0  0  0  0  0  0  0  0  0
   -2.1365  -10.3882    3.5503 C   0  0  1  0  0  0  0  0  0  0  0  0
   -2.9120  -11.5354    3.8592 O   0  0  0  0  0  0  0  0  0  0  0  0
   -1.8967  -10.3239    2.0444 C   0  0  2  0  0  0  0  0  0  0  0  0
   -0.8735   -9.3782    1.7556 O   0  0  0  0  0  0  0  0  0  0  0  0
   -2.9934   -9.9112   -0.1764 C   0  0  0  0  0  0  0  0  0  0  0  0
   -4.2701  -10.0416   -0.8529 N   0  3  0  0  0  0  0  0  0  0  0  0
   -2.0301   -4.5754    0.6108 C   0  0  1  0  0  0  0  0  0  0  0  0
   -3.4694   -4.4875    0.6635 O   0  0  0  0  0  0  0  0  0  0  0  0
   -3.9863   -3.2386    0.1492 C   0  0  2  0  0  0  0  0  0  0  0  0
   -3.7359   -3.0903   -1.2704 O   0  0  0  0  0  0  0  0  0  0  0  0
   -3.4175   -2.0527    0.9377 C   0  0  2  0  0  0  0  0  0  0  0  0
   -3.7733   -0.8069    0.2842 N   0  3  0  0  0  0  0  0  0  0  0  0
   -1.9006   -2.1354    1.0669 C   0  0  1  0  0  0  0  0  0  0  0  0
   -1.4459   -1.1608    1.9929 O   0  0  0  0  0  0  0  0  0  0  0  0
   -1.4089   -3.5087    1.4977 C   0  0  2  0  0  0  0  0  0  0  0  0
    0.0074   -3.5735    1.4170 O   0  0  0  0  0  0  0  0  0  0  0  0
   -1.5704   -5.9347    1.1301 C   0  0  0  0  0  0  0  0  0  0  0  0
   -2.1085   -7.0062    0.3121 N   0  3  0  0  0  0  0  0  0  0  0  0
   -7.4978   -3.8391   -3.1108 C   0  0  2  0  0  0  0  0  0  0  0  0
   -6.3056   -3.5754   -4.0093 C   0  0  0  0  0  0  0  0  0  0  0  0
   -5.1744   -2.9432   -3.2196 C   0  0  1  0  0  0  0  0  0  0  0  0
   -4.6714   -3.8409   -2.0883 C   0  0  2  0  0  0  0  0  0  0  0  0
   -5.8459   -4.3447   -1.2178 C   0  0  1  0  0  0  0  0  0  0  0  0
   -7.1156   -4.7693   -1.9674 C   0  0  1  0  0  0  0  0  0  0  0  0
   -8.5652   -4.4372   -3.8898 N   0  3  0  0  0  0  0  0  0  0  0  0
   -4.0930   -2.6130   -4.1273 N   0  3  0  0  0  0  0  0  0  0  0  0
   -5.4260   -5.3989   -0.3172 O   0  0  0  0  0  0  0  0  0  0  0  0
   -8.2016   -4.8774   -1.0531 O   0  0  0  0  0  0  0  0  0  0  0  0
  1  2  1  0  0  0  0
  3  2  1  6  0  0  0
  3  4  1  0  0  0  0
  3  5  1  0  0  0  0
  4  8  1  0  0  0  0
  5  6  1  0  0  0  0
  5 12  1  1  0  0  0
  6  7  1  1  0  0  0
  6  8  1  0  0  0  0
  8 41  1  6  0  0  0
  9 10  1  0  0  0  0
  9 17  1  0  0  0  0
  9 19  1  6  0  0  0
 10 11  1  0  0  0  0
 11 12  1  1  0  0  0
 11 13  1  0  0  0  0
 13 14  1  6  0  0  0
 13 15  1  0  0  0  0
 15 16  1  6  0  0  0
 15 17  1  0  0  0  0
 17 18  1  1  0  0  0
 19 20  1  0  0  0  0
 21 22  1  0  0  0  0
 21 29  1  0  0  0  0
 21 31  1  1  0  0  0
 22 23  1  0  0  0  0
 23 24  1  6  0  0  0
 23 25  1  0  0  0  0
 25 26  1  6  0  0  0
 25 27  1  0  0  0  0
 27 28  1  1  0  0  0
 27 29  1  0  0  0  0
 29 30  1  6  0  0  0
 31 32  1  0  0  0  0
 33 34  1  0  0  0  0
 33 38  1  0  0  0  0
 33 39  1  6  0  0  0
 34 35  1  0  0  0  0
 35 36  1  0  0  0  0
 35 40  1  6  0  0  0
 36 24  1  1  0  0  0
 36 37  1  0  0  0  0
 37 38  1  0  0  0  0
 37 41  1  6  0  0  0
 38 42  1  1  0  0  0
M  CHG  6  14   1  20   1  26   1  32   1  39   1  40   1
M  END
>  <CHROM.1>
-178.40739555,-158.74884378,-174.10469524,59.29323719,-77.72725038,-79.66266886
8.33904041,145.49033860,-45.36020495,61.37390080,-105.05169694,61.03965919
79.12628948,133.66825263,69.25443870,61.79881343,-66.22403427,-100.31100155
-68.10944655,-172.97921194,147.95549255,-57.58872690,-3.98652675,-5.72687852
0.78408458,-1.09927485,-0.75294435,-0.33508760

>  <Name>


>  <RI>
0

>  <Rbt.Current_Directory>
/home/itssahil/PROJECTS/Mol_Feturizer/New_Systems/rnas/1qd3

>  <Rbt.Executable>
rbdock ($Id: //depot/dev/client3/rdock/2013.1/src/exe/rbdock.cxx#4 $)

>  <Rbt.Library>
libRbt.so (2013.1, Build901 2013/11/27)

>  <Rbt.Parameter_File>
/export/apps/rDock/src/rDock_2013.1_src/data/scripts/dock_solv.prm

>  <Rbt.Receptor>
prm/blind_docking_80.prm

>  <SCORE>
-42.8583

>  <SCORE.INTER>
-33.2947

>  <SCORE.INTER.CONST>
1

>  <SCORE.INTER.POLAR>
-4.88233

>  <SCORE.INTER.ROT>
9

>  <SCORE.INTER.SOLV>
28.518

>  <SCORE.INTER.VDW>
-25.028

>  <SCORE.INTER.norm>
-0.792731

>  <SCORE.INTRA>
-10.1212

>  <SCORE.INTRA.DIHEDRAL>
-6.92105

>  <SCORE.INTRA.DIHEDRAL.0>
40.6252

>  <SCORE.INTRA.POLAR>
-1.1784

>  <SCORE.INTRA.POLAR.0>
-1.20161

>  <SCORE.INTRA.REPUL>
0.0235076

>  <SCORE.INTRA.REPUL.0>
0.115675

>  <SCORE.INTRA.SOLV>
-0.623826

>  <SCORE.INTRA.SOLV.lig_0>
-154.895

>  <SCORE.INTRA.VDW>
-2.45972

>  <SCORE.INTRA.VDW.0>
2.2925

>  <SCORE.INTRA.norm>
-0.24098

>  <SCORE.RESTR>
0.557585

>  <SCORE.RESTR.CAVITY>
0.557585

>  <SCORE.RESTR.norm>
0.0132758

>  <SCORE.SYSTEM>
0

>  <SCORE.SYSTEM.CONST>
0

>  <SCORE.SYSTEM.DIHEDRAL>
0

>  <SCORE.SYSTEM.SOLV>
0

>  <SCORE.SYSTEM.norm>
0

>  <SCORE.heavy>
42

>  <SCORE.norm>
-1.02044

>  <RMSD>
14.052

$$$$

 OpenBabel11021811413D
libRbt.so/2013.1/901 2013/11/27
 42 45  0  0  0  0  0  0  0  0999 V2000
   -2.7762   -2.7068   -0.7840 O   0  0  0  0  0  0  0  0  0  0  0  0
   -3.9153   -3.5225   -0.5499 C   0  0  0  0  0  0  0  0  0  0  0  0
   -3.5415   -4.9953   -0.7218 C   0  0  1  0  0  0  0  0  0  0  0  0
   -2.6284   -5.4291    0.3096 O   0  0  0  0  0  0  0  0  0  0  0  0
   -4.7337   -5.9340   -0.6395 C   0  0  2  0  0  0  0  0  0  0  0  0
   -4.0319   -7.2476   -0.3387 C   0  0  1  0  0  0  0  0  0  0  0  0
   -3.4480   -7.7646   -1.5293 O   0  0  0  0  0  0  0  0  0  0  0  0
   -2.9240   -6.8096    0.6408 C   0  0  2  0  0  0  0  0  0  0  0  0
   -6.5016   -3.0759   -3.8525 C   0  0  2  0  0  0  0  0  0  0  0  0
   -5.9078   -4.3463   -3.5446 O   0  0  0  0  0  0  0  0  0  0  0  0
   -6.1221   -4.7214   -2.1719 C   0  0  2  0  0  0  0  0  0  0  0  0
   -5.4645   -5.9722   -1.8811 O   0  0  0  0  0  0  0  0  0  0  0  0
   -7.6262   -4.8249   -1.8659 C   0  0  2  0  0  0  0  0  0  0  0  0
   -8.1790   -6.0516   -2.4101 N   0  3  0  0  0  0  0  0  0  0  0  0
   -8.4234   -3.6115   -2.3587 C   0  0  1  0  0  0  0  0  0  0  0  0
   -8.2330   -2.5278   -1.4630 O   0  0  0  0  0  0  0  0  0  0  0  0
   -8.0186   -3.1870   -3.7677 C   0  0  2  0  0  0  0  0  0  0  0  0
   -8.4939   -4.1354   -4.7160 O   0  0  0  0  0  0  0  0  0  0  0  0
   -6.0681   -2.6008   -5.2364 C   0  0  0  0  0  0  0  0  0  0  0  0
   -6.4344   -1.2107   -5.4325 N   0  3  0  0  0  0  0  0  0  0  0  0
   -1.9363   -8.1978    4.1315 C   0  0  1  0  0  0  0  0  0  0  0  0
   -2.6918   -7.0656    4.6106 O   0  0  0  0  0  0  0  0  0  0  0  0
   -1.8858   -5.8811    4.8073 C   0  0  2  0  0  0  0  0  0  0  0  0
   -1.3550   -5.3714    3.5591 O   0  0  0  0  0  0  0  0  0  0  0  0
   -0.7628   -6.1528    5.8157 C   0  0  2  0  0  0  0  0  0  0  0  0
    0.1584   -5.0320    5.8452 N   0  3  0  0  0  0  0  0  0  0  0  0
    0.0062   -7.4247    5.4758 C   0  0  1  0  0  0  0  0  0  0  0  0
    0.8690   -7.7632    6.5506 O   0  0  0  0  0  0  0  0  0  0  0  0
   -0.8979   -8.6072    5.1631 C   0  0  2  0  0  0  0  0  0  0  0  0
   -0.1317   -9.6987    4.6751 O   0  0  0  0  0  0  0  0  0  0  0  0
   -2.8641   -9.3890    3.9104 C   0  0  0  0  0  0  0  0  0  0  0  0
   -3.5859   -9.7113    5.1277 N   0  3  0  0  0  0  0  0  0  0  0  0
   -5.1496   -3.6369    2.7274 C   0  0  2  0  0  0  0  0  0  0  0  0
   -3.9129   -2.7956    2.4808 C   0  0  0  0  0  0  0  0  0  0  0  0
   -2.7129   -3.3936    3.1915 C   0  0  1  0  0  0  0  0  0  0  0  0
   -2.3798   -4.8036    2.7018 C   0  0  2  0  0  0  0  0  0  0  0  0
   -3.6361   -5.7050    2.7143 C   0  0  1  0  0  0  0  0  0  0  0  0
   -4.9412   -5.0605    2.2288 C   0  0  1  0  0  0  0  0  0  0  0  0
   -6.2816   -3.0416    2.0431 N   0  3  0  0  0  0  0  0  0  0  0  0
   -1.5749   -2.5119    3.0183 N   0  3  0  0  0  0  0  0  0  0  0  0
   -3.4049   -6.9489    2.0086 O   0  0  0  0  0  0  0  0  0  0  0  0
   -6.0491   -5.8697    2.6099 O   0  0  0  0  0  0  0  0  0  0  0  0
  1  2  1  0  0  0  0
  3  2  1  1  0  0  0
  3  4  1  0  0  0  0
  3  5  1  0  0  0  0
  4  8  1  0  0  0  0
  5  6  1  0  0  0  0
  5 12  1  6  0  0  0
  6  7  1  6  0  0  0
  6  8  1  0  0  0  0
  8 41  1  1  0  0  0
  9 10  1  0  0  0  0
  9 17  1  0  0  0  0
  9 19  1  6  0  0  0
 10 11  1  0  0  0  0
 11 12  1  6  0  0  0
 11 13  1  0  0  0  0
 13 14  1  6  0  0  0
 13 15  1  0  0  0  0
 15 16  1  1  0  0  0
 15 17  1  0  0  0  0
 17 18  1  6  0  0  0
 19 20  1  0  0  0  0
 21 22  1  0  0  0  0
 21 29  1  0  0  0  0
 21 31  1  1  0  0  0
 22 23  1  0  0  0  0
 23 24  1  6  0  0  0
 23 25  1  0  0  0  0
 25 26  1  6  0  0  0
 25 27  1  0  0  0  0
 27 28  1  1  0  0  0
 27 29  1  0  0  0  0
 29 30  1  6  0  0  0
 31 32  1  0  0  0  0
 33 34  1  0  0  0  0
 33 38  1  0  0  0  0
 33 39  1  6  0  0  0
 34 35  1  0  0  0  0
 35 36  1  0  0  0  0
 35 40  1  6  0  0  0
 36 24  1  1  0  0  0
 36 37  1  0  0  0  0
 37 38  1  0  0  0  0
 37 41  1  6  0  0  0
 38 42  1  1  0  0  0
M  CHG  6  14   1  20   1  26   1  32   1  39   1  40   1
M  END
>  <CHROM.1>
67.87822827,67.18764021,-67.48850800,-60.10453419,6.51744403,-168.11348286
134.39320363,74.60033818,62.03636083,-56.87991569,59.43790640,-56.43726068
69.53338690,79.59455511,-176.99161962,-47.03208142,-64.01855621,76.66136483
121.03643248,-168.25432440,-54.46373907,-58.37791921,-4.01494506,-5.34730606
1.01446017,-2.65725403,0.91490798,2.97319018

>  <Name>


>  <RI>
0

>  <Rbt.Current_Directory>
/home/itssahil/PROJECTS/Mol_Feturizer/New_Systems/rnas/1qd3

>  <Rbt.Executable>
rbdock ($Id: //depot/dev/client3/rdock/2013.1/src/exe/rbdock.cxx#4 $)

>  <Rbt.Library>
libRbt.so (2013.1, Build901 2013/11/27)

>  <Rbt.Parameter_File>
/export/apps/rDock/src/rDock_2013.1_src/data/scripts/dock_solv.prm

>  <Rbt.Receptor>
prm/blind_docking_40.prm

>  <SCORE>
-30.8693

>  <SCORE.INTER>
-25.7416

>  <SCORE.INTER.CONST>
1

>  <SCORE.INTER.POLAR>
-3.92008

>  <SCORE.INTER.ROT>
9

>  <SCORE.INTER.SOLV>
32.2729

>  <SCORE.INTER.VDW>
-24.4518

>  <SCORE.INTER.norm>
-0.612896

>  <SCORE.INTRA>
-10.2856

>  <SCORE.INTRA.DIHEDRAL>
-16.9021

>  <SCORE.INTRA.DIHEDRAL.0>
40.6252

>  <SCORE.INTRA.POLAR>
1.19668

>  <SCORE.INTRA.POLAR.0>
-1.20161

>  <SCORE.INTRA.REPUL>
-0.113037

>  <SCORE.INTRA.REPUL.0>
0.115675

>  <SCORE.INTRA.SOLV>
-8.41076

>  <SCORE.INTRA.SOLV.lig_0>
-154.895

>  <SCORE.INTRA.VDW>
-1.13272

>  <SCORE.INTRA.VDW.0>
2.2925

>  <SCORE.INTRA.norm>
-0.244896

>  <SCORE.RESTR>
5.15792

>  <SCORE.RESTR.CAVITY>
5.15792

>  <SCORE.RESTR.norm>
0.122808

>  <SCORE.SYSTEM>
0

>  <SCORE.SYSTEM.CONST>
0

>  <SCORE.SYSTEM.DIHEDRAL>
0

>  <SCORE.SYSTEM.SOLV>
0

>  <SCORE.SYSTEM.norm>
0

>  <SCORE.heavy>
42

>  <SCORE.norm>
-0.734984

>  <RMSD>
14.070

$$$$

 OpenBabel11021811413D
libRbt.so/2013.1/901 2013/11/27
 42 45  0  0  0  0  0  0  0  0999 V2000
   -2.5665   -9.8035   -1.9232 O   0  0  0  0  0  0  0  0  0  0  0  0
   -2.8724  -10.1406   -0.5776 C   0  0  0  0  0  0  0  0  0  0  0  0
   -3.8683   -9.1314   -0.0047 C   0  0  1  0  0  0  0  0  0  0  0  0
   -3.1978   -7.9437    0.4701 O   0  0  0  0  0  0  0  0  0  0  0  0
   -4.8913   -8.6502   -1.0202 C   0  0  2  0  0  0  0  0  0  0  0  0
   -5.3638   -7.3698   -0.3521 C   0  0  1  0  0  0  0  0  0  0  0  0
   -6.2611   -7.6832    0.7074 O   0  0  0  0  0  0  0  0  0  0  0  0
   -4.0522   -6.7982    0.2237 C   0  0  2  0  0  0  0  0  0  0  0  0
   -7.9037   -7.9724   -3.8178 C   0  0  2  0  0  0  0  0  0  0  0  0
   -6.7878   -8.6020   -3.1700 O   0  0  0  0  0  0  0  0  0  0  0  0
   -7.1131   -9.0313   -1.8355 C   0  0  2  0  0  0  0  0  0  0  0  0
   -5.9560   -9.6059   -1.1933 O   0  0  0  0  0  0  0  0  0  0  0  0
   -8.2699  -10.0450   -1.8582 C   0  0  2  0  0  0  0  0  0  0  0  0
   -7.8030  -11.3495   -2.2902 N   0  3  0  0  0  0  0  0  0  0  0  0
   -9.4529   -9.5858   -2.7187 C   0  0  1  0  0  0  0  0  0  0  0  0
  -10.2068   -8.6186   -2.0052 O   0  0  0  0  0  0  0  0  0  0  0  0
   -9.0034   -8.9997   -4.0544 C   0  0  2  0  0  0  0  0  0  0  0  0
   -8.5297  -10.0372   -4.9051 O   0  0  0  0  0  0  0  0  0  0  0  0
   -7.4697   -7.3288   -5.1317 C   0  0  0  0  0  0  0  0  0  0  0  0
   -7.0940   -8.3468   -6.0947 N   0  3  0  0  0  0  0  0  0  0  0  0
   -1.4945   -5.8104    2.7454 C   0  0  1  0  0  0  0  0  0  0  0  0
   -2.7747   -5.4702    2.1731 O   0  0  0  0  0  0  0  0  0  0  0  0
   -2.8901   -4.0731    1.8176 C   0  0  2  0  0  0  0  0  0  0  0  0
   -1.9847   -3.7084    0.7466 O   0  0  0  0  0  0  0  0  0  0  0  0
   -2.6779   -3.1830    3.0481 C   0  0  2  0  0  0  0  0  0  0  0  0
   -2.5862   -1.7924    2.6438 N   0  3  0  0  0  0  0  0  0  0  0  0
   -1.4158   -3.5668    3.8124 C   0  0  1  0  0  0  0  0  0  0  0  0
   -1.3847   -2.8854    5.0570 O   0  0  0  0  0  0  0  0  0  0  0  0
   -1.2920   -5.0635    4.0536 C   0  0  2  0  0  0  0  0  0  0  0  0
   -0.0170   -5.3720    4.5973 O   0  0  0  0  0  0  0  0  0  0  0  0
   -1.4398   -7.3043    3.0518 C   0  0  0  0  0  0  0  0  0  0  0  0
   -2.7519   -7.8012    3.4235 N   0  3  0  0  0  0  0  0  0  0  0  0
   -5.2522   -2.6756   -1.7745 C   0  0  2  0  0  0  0  0  0  0  0  0
   -3.9794   -1.8600   -1.8887 C   0  0  0  0  0  0  0  0  0  0  0  0
   -3.0931   -2.0857   -0.6778 C   0  0  1  0  0  0  0  0  0  0  0  0
   -2.6586   -3.5444   -0.5287 C   0  0  2  0  0  0  0  0  0  0  0  0
   -3.8754   -4.4951   -0.6077 C   0  0  1  0  0  0  0  0  0  0  0  0
   -4.9330   -4.1606   -1.6679 C   0  0  1  0  0  0  0  0  0  0  0  0
   -6.0829   -2.4379   -2.9396 N   0  3  0  0  0  0  0  0  0  0  0  0
   -1.9364   -1.2165   -0.7719 N   0  3  0  0  0  0  0  0  0  0  0  0
   -3.4623   -5.8776   -0.7385 O   0  0  0  0  0  0  0  0  0  0  0  0
   -6.1268   -4.8906   -1.4048 O   0  0  0  0  0  0  0  0  0  0  0  0
  1  2  1  0  0  0  0
  3  2  1  6  0  0  0
  3  4  1  0  0  0  0
  3  5  1  0  0  0  0
  4  8  1  0  0  0  0
  5  6  1  0  0  0  0
  5 12  1  1  0  0  0
  6  7  1  1  0  0  0
  6  8  1  0  0  0  0
  8 41  1  6  0  0  0
  9 10  1  0  0  0  0
  9 17  1  0  0  0  0
  9 19  1  6  0  0  0
 10 11  1  0  0  0  0
 11 12  1  6  0  0  0
 11 13  1  0  0  0  0
 13 14  1  6  0  0  0
 13 15  1  0  0  0  0
 15 16  1  1  0  0  0
 15 17  1  0  0  0  0
 17 18  1  6  0  0  0
 19 20  1  0  0  0  0
 21 22  1  0  0  0  0
 21 29  1  0  0  0  0
 21 31  1  1  0  0  0
 22 23  1  0  0  0  0
 23 24  1  6  0  0  0
 23 25  1  0  0  0  0
 25 26  1  6  0  0  0
 25 27  1  0  0  0  0
 27 28  1  1  0  0  0
 27 29  1  0  0  0  0
 29 30  1  6  0  0  0
 31 32  1  0  0  0  0
 33 34  1  0  0  0  0
 33 38  1  0  0  0  0
 33 39  1  6  0  0  0
 34 35  1  0  0  0  0
 35 36  1  0  0  0  0
 35 40  1  6  0  0  0
 36 24  1  1  0  0  0
 36 37  1  0  0  0  0
 37 38  1  0  0  0  0
 37 41  1  6  0  0  0
 38 42  1  1  0  0  0
M  CHG  6  14   1  20   1  26   1  32   1  39   1  40   1
M  END
>  <CHROM.1>
-176.94016914,-83.00675781,163.26779341,62.27370362,-152.94689768,67.71413958
63.42923189,-174.57793768,66.89238360,170.53951288,48.07628024,-32.51482021
104.69200128,90.56272057,71.32037532,-169.59850418,-175.37742797,80.63755187
-61.10809242,-147.41172953,127.91133808,69.57318848,-4.59262831,-6.35929313
-0.42087435,-2.78247390,-0.87727926,-0.28244776

>  <Name>


>  <RI>
0

>  <Rbt.Current_Directory>
/home/itssahil/PROJECTS/Mol_Feturizer/New_Systems/rnas/1qd3

>  <Rbt.Executable>
rbdock ($Id: //depot/dev/client3/rdock/2013.1/src/exe/rbdock.cxx#4 $)

>  <Rbt.Library>
libRbt.so (2013.1, Build901 2013/11/27)

>  <Rbt.Parameter_File>
/export/apps/rDock/src/rDock_2013.1_src/data/scripts/dock_solv.prm

>  <Rbt.Receptor>
prm/blind_docking_60.prm

>  <SCORE>
-34.6858

>  <SCORE.INTER>
-23.4443

>  <SCORE.INTER.CONST>
1

>  <SCORE.INTER.POLAR>
-2.887

>  <SCORE.INTER.ROT>
9

>  <SCORE.INTER.SOLV>
27.9177

>  <SCORE.INTER.VDW>
-24.9122

>  <SCORE.INTER.norm>
-0.558198

>  <SCORE.INTRA>
-13.373

>  <SCORE.INTRA.DIHEDRAL>
-10.0433

>  <SCORE.INTRA.DIHEDRAL.0>
40.6252

>  <SCORE.INTRA.POLAR>
-0.41654

>  <SCORE.INTRA.POLAR.0>
-1.20161

>  <SCORE.INTRA.REPUL>
-0.114901

>  <SCORE.INTRA.REPUL.0>
0.115675

>  <SCORE.INTRA.SOLV>
-2.26092

>  <SCORE.INTRA.SOLV.lig_0>
-154.895

>  <SCORE.INTRA.VDW>
-5.23011

>  <SCORE.INTRA.VDW.0>
2.2925

>  <SCORE.INTRA.norm>
-0.318404

>  <SCORE.RESTR>
2.13147

>  <SCORE.RESTR.CAVITY>
2.13147

>  <SCORE.RESTR.norm>
0.0507494

>  <SCORE.SYSTEM>
0

>  <SCORE.SYSTEM.CONST>
0

>  <SCORE.SYSTEM.DIHEDRAL>
0

>  <SCORE.SYSTEM.SOLV>
0

>  <SCORE.SYSTEM.norm>
0

>  <SCORE.heavy>
42

>  <SCORE.norm>
-0.825853

>  <RMSD>
14.071

$$$$

 OpenBabel11021811413D
libRbt.so/2013.1/901 2013/11/27
 42 45  0  0  0  0  0  0  0  0999 V2000
   -3.6000   -4.5154   -2.0711 O   0  0  0  0  0  0  0  0  0  0  0  0
   -2.3948   -4.8806   -1.4141 C   0  0  0  0  0  0  0  0  0  0  0  0
   -1.9871   -3.7817   -0.4319 C   0  0  1  0  0  0  0  0  0  0  0  0
   -2.3105   -2.4715   -0.9461 O   0  0  0  0  0  0  0  0  0  0  0  0
   -2.6891   -3.8829    0.9121 C   0  0  2  0  0  0  0  0  0  0  0  0
   -2.4940   -2.4691    1.4337 C   0  0  1  0  0  0  0  0  0  0  0  0
   -1.1624   -2.3122    1.9113 O   0  0  0  0  0  0  0  0  0  0  0  0
   -2.6982   -1.6204    0.1622 C   0  0  2  0  0  0  0  0  0  0  0  0
   -1.7457   -8.5096    1.6474 C   0  0  2  0  0  0  0  0  0  0  0  0
   -1.6349   -7.1672    2.1446 O   0  0  0  0  0  0  0  0  0  0  0  0
   -2.2514   -6.2139    1.2603 C   0  0  2  0  0  0  0  0  0  0  0  0
   -2.0716   -4.8720    1.7591 O   0  0  0  0  0  0  0  0  0  0  0  0
   -3.7483   -6.5232    1.0870 C   0  0  2  0  0  0  0  0  0  0  0  0
   -4.4996   -6.1022    2.2551 N   0  3  0  0  0  0  0  0  0  0  0  0
   -4.0235   -7.9988    0.7744 C   0  0  1  0  0  0  0  0  0  0  0  0
   -3.7296   -8.2538   -0.5900 O   0  0  0  0  0  0  0  0  0  0  0  0
   -3.2073   -8.9390    1.6572 C   0  0  2  0  0  0  0  0  0  0  0  0
   -3.7146   -8.9195    2.9864 O   0  0  0  0  0  0  0  0  0  0  0  0
   -0.8937   -9.4635    2.4799 C   0  0  0  0  0  0  0  0  0  0  0  0
   -0.6622   -8.9132    3.8022 N   0  3  0  0  0  0  0  0  0  0  0  0
   -7.2607   -2.9954   -2.1761 C   0  0  1  0  0  0  0  0  0  0  0  0
   -6.0067   -2.6445   -1.5544 O   0  0  0  0  0  0  0  0  0  0  0  0
   -5.3919   -1.4683   -2.1288 C   0  0  2  0  0  0  0  0  0  0  0  0
   -6.1788   -0.2744   -1.8944 O   0  0  0  0  0  0  0  0  0  0  0  0
   -5.1293   -1.6722   -3.6259 C   0  0  2  0  0  0  0  0  0  0  0  0
   -4.7115   -0.4210   -4.2305 N   0  3  0  0  0  0  0  0  0  0  0  0
   -6.3662   -2.1907   -4.3511 C   0  0  1  0  0  0  0  0  0  0  0  0
   -6.0170   -2.5865   -5.6685 O   0  0  0  0  0  0  0  0  0  0  0  0
   -7.0376   -3.3533   -3.6364 C   0  0  2  0  0  0  0  0  0  0  0  0
   -8.2772   -3.6638   -4.2557 O   0  0  0  0  0  0  0  0  0  0  0  0
   -7.8618   -4.2168   -1.4865 C   0  0  0  0  0  0  0  0  0  0  0  0
   -9.2639   -4.3640   -1.8317 N   0  3  0  0  0  0  0  0  0  0  0  0
   -4.0232    2.5839    0.4041 C   0  0  2  0  0  0  0  0  0  0  0  0
   -5.5279    2.7394    0.3041 C   0  0  0  0  0  0  0  0  0  0  0  0
   -6.0726    1.9115   -0.8451 C   0  0  1  0  0  0  0  0  0  0  0  0
   -5.8042    0.4158   -0.6734 C   0  0  2  0  0  0  0  0  0  0  0  0
   -4.3137    0.1538   -0.3561 C   0  0  1  0  0  0  0  0  0  0  0  0
   -3.6457    1.1255    0.6257 C   0  0  1  0  0  0  0  0  0  0  0  0
   -3.5278    3.3884    1.5047 N   0  3  0  0  0  0  0  0  0  0  0  0
   -7.4948    2.1626   -0.9741 N   0  3  0  0  0  0  0  0  0  0  0  0
   -4.0935   -1.2127    0.0717 O   0  0  0  0  0  0  0  0  0  0  0  0
   -2.2308    0.9805    0.5596 O   0  0  0  0  0  0  0  0  0  0  0  0
  1  2  1  0  0  0  0
  3  2  1  6  0  0  0
  3  4  1  0  0  0  0
  3  5  1  0  0  0  0
  4  8  1  0  0  0  0
  5  6  1  0  0  0  0
  5 12  1  1  0  0  0
  6  7  1  6  0  0  0
  6  8  1  0  0  0  0
  8 41  1  6  0  0  0
  9 10  1  0  0  0  0
  9 17  1  0  0  0  0
  9 19  1  1  0  0  0
 10 11  1  0  0  0  0
 11 12  1  1  0  0  0
 11 13  1  0  0  0  0
 13 14  1  1  0  0  0
 13 15  1  0  0  0  0
 15 16  1  6  0  0  0
 15 17  1  0  0  0  0
 17 18  1  1  0  0  0
 19 20  1  0  0  0  0
 21 22  1  0  0  0  0
 21 29  1  0  0  0  0
 21 31  1  1  0  0  0
 22 23  1  0  0  0  0
 23 24  1  6  0  0  0
 23 25  1  0  0  0  0
 25 26  1  6  0  0  0
 25 27  1  0  0  0  0
 27 28  1  6  0  0  0
 27 29  1  0  0  0  0
 29 30  1  6  0  0  0
 31 32  1  0  0  0  0
 33 34  1  0  0  0  0
 33 38  1  0  0  0  0
 33 39  1  1  0  0  0
 34 35  1  0  0  0  0
 35 36  1  0  0  0  0
 35 40  1  1  0  0  0
 36 24  1  6  0  0  0
 36 37  1  0  0  0  0
 37 38  1  0  0  0  0
 37 41  1  1  0  0  0
 38 42  1  6  0  0  0
M  CHG  6  14   1  20   1  26   1  32   1  39   1  40   1
M  END
>  <CHROM.1>
154.01496567,-35.78366663,-67.66926624,70.50002265,-104.42819640,23.27391749
-179.25850848,90.40530604,-60.27776033,-61.39787336,83.75059443,164.17949257
91.13065283,150.26832726,76.32123300,64.17910757,-179.06367697,146.43760170
160.28996982,134.86365838,169.47581064,63.72065581,-4.24281152,-3.19141084
-0.36710133,1.05164654,0.81067844,3.14012495

>  <Name>


>  <RI>
0

>  <Rbt.Current_Directory>
/home/itssahil/PROJECTS/Mol_Feturizer/New_Systems/rnas/1qd3

>  <Rbt.Executable>
rbdock ($Id: //depot/dev/client3/rdock/2013.1/src/exe/rbdock.cxx#4 $)

>  <Rbt.Library>
libRbt.so (2013.1, Build901 2013/11/27)

>  <Rbt.Parameter_File>
/export/apps/rDock/src/rDock_2013.1_src/data/scripts/dock_solv.prm

>  <Rbt.Receptor>
prm/blind_docking_20.prm

>  <SCORE>
-38.6176

>  <SCORE.INTER>
-32.5783

>  <SCORE.INTER.CONST>
1

>  <SCORE.INTER.POLAR>
-4.24065

>  <SCORE.INTER.ROT>
9

>  <SCORE.INTER.SOLV>
32.0129

>  <SCORE.INTER.VDW>
-27.8543

>  <SCORE.INTER.norm>
-0.775674

>  <SCORE.INTRA>
-7.37271

>  <SCORE.INTRA.DIHEDRAL>
-5.71188

>  <SCORE.INTRA.DIHEDRAL.0>
40.6252

>  <SCORE.INTRA.POLAR>
0.63388

>  <SCORE.INTRA.POLAR.0>
-1.20161

>  <SCORE.INTRA.REPUL>
-0.11109

>  <SCORE.INTRA.REPUL.0>
0.115675

>  <SCORE.INTRA.SOLV>
-7.97777

>  <SCORE.INTRA.SOLV.lig_0>
-154.895

>  <SCORE.INTRA.VDW>
-2.12763

>  <SCORE.INTRA.VDW.0>
2.2925

>  <SCORE.INTRA.norm>
-0.175541

>  <SCORE.RESTR>
1.33339

>  <SCORE.RESTR.CAVITY>
1.33339

>  <SCORE.RESTR.norm>
0.0317473

>  <SCORE.SYSTEM>
0

>  <SCORE.SYSTEM.CONST>
0

>  <SCORE.SYSTEM.DIHEDRAL>
0

>  <SCORE.SYSTEM.SOLV>
0

>  <SCORE.SYSTEM.norm>
0

>  <SCORE.heavy>
42

>  <SCORE.norm>
-0.919467

>  <RMSD>
14.079

$$$$

 OpenBabel11021811413D
libRbt.so/2013.1/901 2013/11/27
 42 45  0  0  0  0  0  0  0  0999 V2000
   -0.4702   -5.8139    1.3128 O   0  0  0  0  0  0  0  0  0  0  0  0
   -1.1981   -4.8505    0.5646 C   0  0  0  0  0  0  0  0  0  0  0  0
   -1.2732   -3.5377    1.3452 C   0  0  1  0  0  0  0  0  0  0  0  0
   -1.4442   -2.4096    0.4600 O   0  0  0  0  0  0  0  0  0  0  0  0
   -2.4393   -3.4800    2.3180 C   0  0  2  0  0  0  0  0  0  0  0  0
   -2.5470   -1.9796    2.5327 C   0  0  1  0  0  0  0  0  0  0  0  0
   -1.5213   -1.5458    3.4190 O   0  0  0  0  0  0  0  0  0  0  0  0
   -2.2844   -1.4271    1.1169 C   0  0  2  0  0  0  0  0  0  0  0  0
   -3.3968   -7.5901    3.0519 C   0  0  2  0  0  0  0  0  0  0  0  0
   -2.5351   -6.4477    2.9341 O   0  0  0  0  0  0  0  0  0  0  0  0
   -3.0018   -5.3386    3.7234 C   0  0  2  0  0  0  0  0  0  0  0  0
   -2.1477   -4.1909    3.5372 O   0  0  0  0  0  0  0  0  0  0  0  0
   -3.0660   -5.7208    5.2121 C   0  0  2  0  0  0  0  0  0  0  0  0
   -1.7385   -5.7315    5.7986 N   0  3  0  0  0  0  0  0  0  0  0  0
   -3.7726   -7.0592    5.4578 C   0  0  1  0  0  0  0  0  0  0  0  0
   -5.1761   -6.8755    5.3608 O   0  0  0  0  0  0  0  0  0  0  0  0
   -3.3290   -8.1368    4.4721 C   0  0  2  0  0  0  0  0  0  0  0  0
   -2.0025   -8.5542    4.7735 O   0  0  0  0  0  0  0  0  0  0  0  0
   -3.0096   -8.6627    2.0378 C   0  0  0  0  0  0  0  0  0  0  0  0
   -2.6216   -8.0536    0.7794 N   0  3  0  0  0  0  0  0  0  0  0  0
   -6.9441   -3.0757   -1.7659 C   0  0  1  0  0  0  0  0  0  0  0  0
   -5.7140   -2.7917   -1.0673 O   0  0  0  0  0  0  0  0  0  0  0  0
   -4.9188   -1.7640   -1.7021 C   0  0  2  0  0  0  0  0  0  0  0  0
   -5.5762   -0.4730   -1.6735 O   0  0  0  0  0  0  0  0  0  0  0  0
   -4.5578   -2.1689   -3.1365 C   0  0  2  0  0  0  0  0  0  0  0  0
   -3.9461   -1.0495   -3.8282 N   0  3  0  0  0  0  0  0  0  0  0  0
   -5.7821   -2.6323   -3.9180 C   0  0  1  0  0  0  0  0  0  0  0  0
   -5.3731   -3.2150   -5.1458 O   0  0  0  0  0  0  0  0  0  0  0  0
   -6.6435   -3.6241   -3.1513 C   0  0  2  0  0  0  0  0  0  0  0  0
   -7.8549   -3.8694   -3.8505 O   0  0  0  0  0  0  0  0  0  0  0  0
   -7.7407   -4.1360   -1.0110 C   0  0  0  0  0  0  0  0  0  0  0  0
   -6.9079   -5.2853   -0.7072 N   0  3  0  0  0  0  0  0  0  0  0  0
   -3.6555    2.5581    0.6119 C   0  0  2  0  0  0  0  0  0  0  0  0
   -5.1585    2.6451    0.4344 C   0  0  0  0  0  0  0  0  0  0  0  0
   -5.6116    1.7527   -0.7063 C   0  0  1  0  0  0  0  0  0  0  0  0
   -5.2908    0.2772   -0.4639 C   0  0  2  0  0  0  0  0  0  0  0  0
   -3.8082    0.0913   -0.0660 C   0  0  1  0  0  0  0  0  0  0  0  0
   -3.2297    1.1264    0.9078 C   0  0  1  0  0  0  0  0  0  0  0  0
   -3.2482    3.4231    1.7026 N   0  3  0  0  0  0  0  0  0  0  0  0
   -7.0348    1.9376   -0.9126 N   0  3  0  0  0  0  0  0  0  0  0  0
   -3.5534   -1.2478    0.4247 O   0  0  0  0  0  0  0  0  0  0  0  0
   -1.8086    1.0399    0.9149 O   0  0  0  0  0  0  0  0  0  0  0  0
  1  2  1  0  0  0  0
  3  2  1  6  0  0  0
  3  4  1  0  0  0  0
  3  5  1  0  0  0  0
  4  8  1  0  0  0  0
  5  6  1  0  0  0  0
  5 12  1  1  0  0  0
  6  7  1  1  0  0  0
  6  8  1  0  0  0  0
  8 41  1  6  0  0  0
  9 10  1  0  0  0  0
  9 17  1  0  0  0  0
  9 19  1  6  0  0  0
 10 11  1  0  0  0  0
 11 12  1  1  0  0  0
 11 13  1  0  0  0  0
 13 14  1  6  0  0  0
 13 15  1  0  0  0  0
 15 16  1  6  0  0  0
 15 17  1  0  0  0  0
 17 18  1  1  0  0  0
 19 20  1  0  0  0  0
 21 22  1  0  0  0  0
 21 29  1  0  0  0  0
 21 31  1  1  0  0  0
 22 23  1  0  0  0  0
 23 24  1  6  0  0  0
 23 25  1  0  0  0  0
 25 26  1  6  0  0  0
 25 27  1  0  0  0  0
 27 28  1  6  0  0  0
 27 29  1  0  0  0  0
 29 30  1  6  0  0  0
 31 32  1  0  0  0  0
 33 34  1  0  0  0  0
 33 38  1  0  0  0  0
 33 39  1  1  0  0  0
 34 35  1  0  0  0  0
 35 36  1  0  0  0  0
 35 40  1  1  0  0  0
 36 24  1  6  0  0  0
 36 37  1  0  0  0  0
 37 38  1  0  0  0  0
 37 41  1  1  0  0  0
 38 42  1  6  0  0  0
M  CHG  6  14   1  20   1  26   1  32   1  39   1  40   1
M  END
>  <CHROM.1>
-45.03388240,154.36562407,-115.22642124,61.50357555,-119.67234454,-38.24257578
79.88513646,60.62100464,-157.12750789,-172.65227797,35.97721928,-50.75293644
87.59587966,161.27846028,-138.67602919,-172.97356942,64.16236040,68.60575744
150.00063958,-170.55682977,-165.88490372,-59.15977635,-3.87058117,-3.06869829
0.76040172,-1.02060820,-0.99837412,-0.19870397

>  <Name>


>  <RI>
0

>  <Rbt.Current_Directory>
/home/itssahil/PROJECTS/Mol_Feturizer/New_Systems/rnas/1qd3

>  <Rbt.Executable>
rbdock ($Id: //depot/dev/client3/rdock/2013.1/src/exe/rbdock.cxx#4 $)

>  <Rbt.Library>
libRbt.so (2013.1, Build901 2013/11/27)

>  <Rbt.Parameter_File>
/export/apps/rDock/src/rDock_2013.1_src/data/scripts/dock_solv.prm

>  <Rbt.Receptor>
prm/blind_docking_20.prm

>  <SCORE>
-57.1011

>  <SCORE.INTER>
-47.8057

>  <SCORE.INTER.CONST>
1

>  <SCORE.INTER.POLAR>
-6.99981

>  <SCORE.INTER.ROT>
9

>  <SCORE.INTER.SOLV>
36.9575

>  <SCORE.INTER.VDW>
-30.4569

>  <SCORE.INTER.norm>
-1.13823

>  <SCORE.INTRA>
-9.70902

>  <SCORE.INTRA.DIHEDRAL>
-5.19936

>  <SCORE.INTRA.DIHEDRAL.0>
40.6252

>  <SCORE.INTRA.POLAR>
-0.154044

>  <SCORE.INTRA.POLAR.0>
-1.20161

>  <SCORE.INTRA.REPUL>
-0.115675

>  <SCORE.INTRA.REPUL.0>
0.115675

>  <SCORE.INTRA.SOLV>
-8.90761

>  <SCORE.INTRA.SOLV.lig_0>
-154.895

>  <SCORE.INTRA.VDW>
-1.55341

>  <SCORE.INTRA.VDW.0>
2.2925

>  <SCORE.INTRA.norm>
-0.231167

>  <SCORE.RESTR>
0.413568

>  <SCORE.RESTR.CAVITY>
0.413568

>  <SCORE.RESTR.norm>
0.00984685

>  <SCORE.SYSTEM>
0

>  <SCORE.SYSTEM.CONST>
0

>  <SCORE.SYSTEM.DIHEDRAL>
0

>  <SCORE.SYSTEM.SOLV>
0

>  <SCORE.SYSTEM.norm>
0

>  <SCORE.heavy>
42

>  <SCORE.norm>
-1.35955

>  <RMSD>
14.084

$$$$

 OpenBabel11021811413D
libRbt.so/2013.1/901 2013/11/27
 42 45  0  0  0  0  0  0  0  0999 V2000
   -3.8796   -9.2004   -2.0243 O   0  0  0  0  0  0  0  0  0  0  0  0
   -5.2264   -9.1293   -1.5785 C   0  0  0  0  0  0  0  0  0  0  0  0
   -5.3852   -7.9701   -0.5938 C   0  0  1  0  0  0  0  0  0  0  0  0
   -4.3102   -7.9493    0.3703 O   0  0  0  0  0  0  0  0  0  0  0  0
   -5.3682   -6.6049   -1.2610 C   0  0  2  0  0  0  0  0  0  0  0  0
   -5.0373   -5.7192   -0.0715 C   0  0  1  0  0  0  0  0  0  0  0  0
   -6.1986   -5.5385    0.7313 O   0  0  0  0  0  0  0  0  0  0  0  0
   -4.0004   -6.5693    0.6906 C   0  0  2  0  0  0  0  0  0  0  0  0
   -8.4717   -9.1899   -3.1042 C   0  0  2  0  0  0  0  0  0  0  0  0
   -8.0597   -8.1514   -2.2023 O   0  0  0  0  0  0  0  0  0  0  0  0
   -7.0805   -7.2804   -2.7967 C   0  0  2  0  0  0  0  0  0  0  0  0
   -6.6459   -6.2855   -1.8464 O   0  0  0  0  0  0  0  0  0  0  0  0
   -7.6487   -6.6039   -4.0560 C   0  0  2  0  0  0  0  0  0  0  0  0
   -8.5580   -5.5308   -3.6982 N   0  3  0  0  0  0  0  0  0  0  0  0
   -8.3315   -7.5906   -5.0105 C   0  0  1  0  0  0  0  0  0  0  0  0
   -7.3431   -8.3012   -5.7394 O   0  0  0  0  0  0  0  0  0  0  0  0
   -9.2321   -8.5785   -4.2741 C   0  0  2  0  0  0  0  0  0  0  0  0
  -10.4002   -7.9146   -3.8057 O   0  0  0  0  0  0  0  0  0  0  0  0
   -9.3294  -10.2230   -2.3790 C   0  0  0  0  0  0  0  0  0  0  0  0
   -8.7561  -10.5384   -1.0842 N   0  3  0  0  0  0  0  0  0  0  0  0
   -3.1380   -0.3271    0.8842 C   0  0  1  0  0  0  0  0  0  0  0  0
   -4.0435   -1.4001    1.2174 O   0  0  0  0  0  0  0  0  0  0  0  0
   -3.8791   -2.5687    0.3816 C   0  0  2  0  0  0  0  0  0  0  0  0
   -2.5905   -3.2014    0.5793 O   0  0  0  0  0  0  0  0  0  0  0  0
   -4.0999   -2.2134   -1.0937 C   0  0  2  0  0  0  0  0  0  0  0  0
   -3.7278   -3.3358   -1.9348 N   0  3  0  0  0  0  0  0  0  0  0  0
   -3.2920   -0.9882   -1.5069 C   0  0  1  0  0  0  0  0  0  0  0  0
   -3.7024   -0.5572   -2.7954 O   0  0  0  0  0  0  0  0  0  0  0  0
   -3.4118    0.1683   -0.5264 C   0  0  2  0  0  0  0  0  0  0  0  0
   -2.4967    1.1998   -0.8656 O   0  0  0  0  0  0  0  0  0  0  0  0
   -3.3467    0.8471    1.8362 C   0  0  0  0  0  0  0  0  0  0  0  0
   -2.7844    2.0648    1.2815 N   0  3  0  0  0  0  0  0  0  0  0  0
   -0.7964   -5.6724    3.5415 C   0  0  2  0  0  0  0  0  0  0  0  0
   -1.6918   -4.5406    4.0056 C   0  0  0  0  0  0  0  0  0  0  0  0
   -1.9105   -3.5419    2.8841 C   0  0  1  0  0  0  0  0  0  0  0  0
   -2.5967   -4.1631    1.6668 C   0  0  2  0  0  0  0  0  0  0  0  0
   -1.8775   -5.4596    1.2277 C   0  0  1  0  0  0  0  0  0  0  0  0
   -1.4140   -6.3952    2.3520 C   0  0  1  0  0  0  0  0  0  0  0  0
   -0.5989   -6.6085    4.6318 N   0  3  0  0  0  0  0  0  0  0  0  0
   -2.6847   -2.4258    3.3913 N   0  3  0  0  0  0  0  0  0  0  0  0
   -2.6597   -6.1991    0.2581 O   0  0  0  0  0  0  0  0  0  0  0  0
   -0.4898   -7.3475    1.8362 O   0  0  0  0  0  0  0  0  0  0  0  0
  1  2  1  0  0  0  0
  3  2  1  6  0  0  0
  3  4  1  0  0  0  0
  3  5  1  0  0  0  0
  4  8  1  0  0  0  0
  5  6  1  0  0  0  0
  5 12  1  1  0  0  0
  6  7  1  1  0  0  0
  6  8  1  0  0  0  0
  8 41  1  6  0  0  0
  9 10  1  0  0  0  0
  9 17  1  0  0  0  0
  9 19  1  1  0  0  0
 10 11  1  0  0  0  0
 11 12  1  1  0  0  0
 11 13  1  0  0  0  0
 13 14  1  1  0  0  0
 13 15  1  0  0  0  0
 15 16  1  1  0  0  0
 15 17  1  0  0  0  0
 17 18  1  1  0  0  0
 19 20  1  0  0  0  0
 21 22  1  0  0  0  0
 21 29  1  0  0  0  0
 21 31  1  1  0  0  0
 22 23  1  0  0  0  0
 23 24  1  6  0  0  0
 23 25  1  0  0  0  0
 25 26  1  6  0  0  0
 25 27  1  0  0  0  0
 27 28  1  6  0  0  0
 27 29  1  0  0  0  0
 29 30  1  6  0  0  0
 31 32  1  0  0  0  0
 33 34  1  0  0  0  0
 33 38  1  0  0  0  0
 33 39  1  1  0  0  0
 34 35  1  0  0  0  0
 35 36  1  0  0  0  0
 35 40  1  1  0  0  0
 36 24  1  6  0  0  0
 36 37  1  0  0  0  0
 37 38  1  0  0  0  0
 37 41  1  6  0  0  0
 38 42  1  6  0  0  0
M  CHG  6  14   1  20   1  26   1  32   1  39   1  40   1
M  END
>  <CHROM.1>
75.78738146,-45.11296936,-56.53828440,-175.83668006,-134.64691539,-43.14740029
101.16646528,-164.89481047,-63.20475407,-61.07671593,-173.29188156,-161.64046039
87.08622780,-103.54873546,-0.64879136,-176.28250876,61.80796917,-141.28094761
75.30434831,-60.66641892,-57.12132082,-167.46330911,-4.68470627,-5.17104300
-0.49519699,-2.54663751,-0.80374170,-0.21154312

>  <Name>


>  <RI>
0

>  <Rbt.Current_Directory>
/home/itssahil/PROJECTS/Mol_Feturizer/New_Systems/rnas/1qd3

>  <Rbt.Executable>
rbdock ($Id: //depot/dev/client3/rdock/2013.1/src/exe/rbdock.cxx#4 $)

>  <Rbt.Library>
libRbt.so (2013.1, Build901 2013/11/27)

>  <Rbt.Parameter_File>
/export/apps/rDock/src/rDock_2013.1_src/data/scripts/dock_solv.prm

>  <Rbt.Receptor>
prm/blind_docking_100.prm

>  <SCORE>
-43.3682

>  <SCORE.INTER>
-37.2979

>  <SCORE.INTER.CONST>
1

>  <SCORE.INTER.POLAR>
-5.7295

>  <SCORE.INTER.ROT>
9

>  <SCORE.INTER.SOLV>
32.6408

>  <SCORE.INTER.VDW>
-26.2472

>  <SCORE.INTER.norm>
-0.888046

>  <SCORE.INTRA>
-7.84036

>  <SCORE.INTRA.DIHEDRAL>
-6.01245

>  <SCORE.INTRA.DIHEDRAL.0>
40.6252

>  <SCORE.INTRA.POLAR>
0.665579

>  <SCORE.INTRA.POLAR.0>
-1.20161

>  <SCORE.INTRA.REPUL>
-0.115013

>  <SCORE.INTRA.REPUL.0>
0.115675

>  <SCORE.INTRA.SOLV>
-4.70285

>  <SCORE.INTRA.SOLV.lig_0>
-154.895

>  <SCORE.INTRA.VDW>
-4.17062

>  <SCORE.INTRA.VDW.0>
2.2925

>  <SCORE.INTRA.norm>
-0.186675

>  <SCORE.RESTR>
1.77008

>  <SCORE.RESTR.CAVITY>
1.77008

>  <SCORE.RESTR.norm>
0.0421447

>  <SCORE.SYSTEM>
0

>  <SCORE.SYSTEM.CONST>
0

>  <SCORE.SYSTEM.DIHEDRAL>
0

>  <SCORE.SYSTEM.SOLV>
0

>  <SCORE.SYSTEM.norm>
0

>  <SCORE.heavy>
42

>  <SCORE.norm>
-1.03258

>  <RMSD>
14.086

$$$$

 OpenBabel11021811413D
libRbt.so/2013.1/901 2013/11/27
 42 45  0  0  0  0  0  0  0  0999 V2000
   -6.7779   -8.1305   -1.1312 O   0  0  0  0  0  0  0  0  0  0  0  0
   -6.0268   -6.9346   -1.2842 C   0  0  0  0  0  0  0  0  0  0  0  0
   -6.0546   -6.1355    0.0193 C   0  0  1  0  0  0  0  0  0  0  0  0
   -5.4829   -6.8899    1.1099 O   0  0  0  0  0  0  0  0  0  0  0  0
   -5.2603   -4.8417   -0.0491 C   0  0  2  0  0  0  0  0  0  0  0  0
   -5.0559   -4.5636    1.4307 C   0  0  1  0  0  0  0  0  0  0  0  0
   -6.2537   -4.0373    1.9911 O   0  0  0  0  0  0  0  0  0  0  0  0
   -4.7891   -5.9741    1.9946 C   0  0  2  0  0  0  0  0  0  0  0  0
   -6.5911   -4.8475   -4.1578 C   0  0  2  0  0  0  0  0  0  0  0  0
   -6.7661   -4.7530   -2.7359 O   0  0  0  0  0  0  0  0  0  0  0  0
   -5.8410   -3.8251   -2.1409 C   0  0  2  0  0  0  0  0  0  0  0  0
   -6.0042   -3.7977   -0.7076 O   0  0  0  0  0  0  0  0  0  0  0  0
   -6.0328   -2.4160   -2.7274 C   0  0  2  0  0  0  0  0  0  0  0  0
   -7.2117   -1.7813   -2.1674 N   0  3  0  0  0  0  0  0  0  0  0  0
   -6.0946   -2.4073   -4.2593 C   0  0  1  0  0  0  0  0  0  0  0  0
   -4.7827   -2.5355   -4.7842 O   0  0  0  0  0  0  0  0  0  0  0  0
   -6.9764   -3.5253   -4.8089 C   0  0  2  0  0  0  0  0  0  0  0  0
   -8.3455   -3.2340   -4.5532 O   0  0  0  0  0  0  0  0  0  0  0  0
   -7.4204   -5.9952   -4.7267 C   0  0  0  0  0  0  0  0  0  0  0  0
   -8.7657   -5.9657   -4.1841 N   0  3  0  0  0  0  0  0  0  0  0  0
   -2.3713   -3.1967    2.8035 C   0  0  1  0  0  0  0  0  0  0  0  0
   -1.7725   -4.5088    2.8466 O   0  0  0  0  0  0  0  0  0  0  0  0
   -1.6118   -5.0213    4.1894 C   0  0  2  0  0  0  0  0  0  0  0  0
   -2.8864   -5.2599    4.8361 O   0  0  0  0  0  0  0  0  0  0  0  0
   -0.7352   -4.0810    5.0254 C   0  0  2  0  0  0  0  0  0  0  0  0
   -0.7550   -4.4917    6.4170 N   0  3  0  0  0  0  0  0  0  0  0  0
   -1.2024   -2.6333    4.9236 C   0  0  1  0  0  0  0  0  0  0  0  0
   -0.2358   -1.7765    5.5116 O   0  0  0  0  0  0  0  0  0  0  0  0
   -1.4683   -2.1876    3.4939 C   0  0  2  0  0  0  0  0  0  0  0  0
   -2.0753   -0.9038    3.4819 O   0  0  0  0  0  0  0  0  0  0  0  0
   -2.5440   -2.7487    1.3550 C   0  0  0  0  0  0  0  0  0  0  0  0
   -1.5362   -3.3563    0.5053 N   0  3  0  0  0  0  0  0  0  0  0  0
   -2.8117   -9.4311    4.0022 C   0  0  2  0  0  0  0  0  0  0  0  0
   -3.6022   -8.9600    5.2068 C   0  0  0  0  0  0  0  0  0  0  0  0
   -3.2009   -7.5466    5.5864 C   0  0  1  0  0  0  0  0  0  0  0  0
   -3.4727   -6.5367    4.4705 C   0  0  2  0  0  0  0  0  0  0  0  0
   -2.8805   -7.0232    3.1275 C   0  0  1  0  0  0  0  0  0  0  0  0
   -3.0494   -8.5147    2.8095 C   0  0  1  0  0  0  0  0  0  0  0  0
   -3.2094  -10.7844    3.6640 N   0  3  0  0  0  0  0  0  0  0  0  0
   -3.9006   -7.1674    6.7984 N   0  3  0  0  0  0  0  0  0  0  0  0
   -3.3541   -6.2227    2.0168 O   0  0  0  0  0  0  0  0  0  0  0  0
   -2.1815   -8.8811    1.7420 O   0  0  0  0  0  0  0  0  0  0  0  0
  1  2  1  0  0  0  0
  3  2  1  6  0  0  0
  3  4  1  0  0  0  0
  3  5  1  0  0  0  0
  4  8  1  0  0  0  0
  5  6  1  0  0  0  0
  5 12  1  1  0  0  0
  6  7  1  1  0  0  0
  6  8  1  0  0  0  0
  8 41  1  6  0  0  0
  9 10  1  0  0  0  0
  9 17  1  0  0  0  0
  9 19  1  6  0  0  0
 10 11  1  0  0  0  0
 11 12  1  1  0  0  0
 11 13  1  0  0  0  0
 13 14  1  1  0  0  0
 13 15  1  0  0  0  0
 15 16  1  6  0  0  0
 15 17  1  0  0  0  0
 17 18  1  1  0  0  0
 19 20  1  0  0  0  0
 21 22  1  0  0  0  0
 21 29  1  0  0  0  0
 21 31  1  6  0  0  0
 22 23  1  0  0  0  0
 23 24  1  1  0  0  0
 23 25  1  0  0  0  0
 25 26  1  1  0  0  0
 25 27  1  0  0  0  0
 27 28  1  6  0  0  0
 27 29  1  0  0  0  0
 29 30  1  1  0  0  0
 31 32  1  0  0  0  0
 33 34  1  0  0  0  0
 33 38  1  0  0  0  0
 33 39  1  6  0  0  0
 34 35  1  0  0  0  0
 35 36  1  0  0  0  0
 35 40  1  1  0  0  0
 36 24  1  1  0  0  0
 36 37  1  0  0  0  0
 37 38  1  0  0  0  0
 37 41  1  6  0  0  0
 38 42  1  6  0  0  0
M  CHG  6  14   1  20   1  26   1  32   1  39   1  40   1
M  END
>  <CHROM.1>
-176.56130561,60.25440729,-86.48367929,-60.48113823,-97.92288725,46.12679067
84.68700861,175.74437976,-55.98524576,-172.29862184,58.16642223,-28.45613984
82.43664155,100.04632406,-177.16462715,174.88004607,55.29323959,177.72144929
-55.40213009,157.33198774,-46.86651311,64.36530520,-4.24495818,-5.07897074
1.10756699,2.59700083,-0.95337444,-0.45415479

>  <Name>


>  <RI>
0

>  <Rbt.Current_Directory>
/home/itssahil/PROJECTS/Mol_Feturizer/New_Systems/rnas/1qd3

>  <Rbt.Executable>
rbdock ($Id: //depot/dev/client3/rdock/2013.1/src/exe/rbdock.cxx#4 $)

>  <Rbt.Library>
libRbt.so (2013.1, Build901 2013/11/27)

>  <Rbt.Parameter_File>
/export/apps/rDock/src/rDock_2013.1_src/data/scripts/dock_solv.prm

>  <Rbt.Receptor>
prm/blind_docking_40.prm

>  <SCORE>
-45.1655

>  <SCORE.INTER>
-34.2444

>  <SCORE.INTER.CONST>
1

>  <SCORE.INTER.POLAR>
-5.35372

>  <SCORE.INTER.ROT>
9

>  <SCORE.INTER.SOLV>
31.7247

>  <SCORE.INTER.VDW>
-25.1588

>  <SCORE.INTER.norm>
-0.815343

>  <SCORE.INTRA>
-14.5032

>  <SCORE.INTRA.DIHEDRAL>
-13.2834

>  <SCORE.INTRA.DIHEDRAL.0>
40.6252

>  <SCORE.INTRA.POLAR>
0.447933

>  <SCORE.INTRA.POLAR.0>
-1.20161

>  <SCORE.INTRA.REPUL>
-0.115675

>  <SCORE.INTRA.REPUL.0>
0.115675

>  <SCORE.INTRA.SOLV>
-8.83605

>  <SCORE.INTRA.SOLV.lig_0>
-154.895

>  <SCORE.INTRA.VDW>
-4.38808

>  <SCORE.INTRA.VDW.0>
2.2925

>  <SCORE.INTRA.norm>
-0.345314

>  <SCORE.RESTR>
3.58208

>  <SCORE.RESTR.CAVITY>
3.58208

>  <SCORE.RESTR.norm>
0.0852875

>  <SCORE.SYSTEM>
0

>  <SCORE.SYSTEM.CONST>
0

>  <SCORE.SYSTEM.DIHEDRAL>
0

>  <SCORE.SYSTEM.SOLV>
0

>  <SCORE.SYSTEM.norm>
0

>  <SCORE.heavy>
42

>  <SCORE.norm>
-1.07537

>  <RMSD>
14.091

$$$$

 OpenBabel11021811413D
libRbt.so/2013.1/901 2013/11/27
 42 45  0  0  0  0  0  0  0  0999 V2000
   -5.7188    0.3252    2.1797 O   0  0  0  0  0  0  0  0  0  0  0  0
   -4.6005    0.9966    1.6172 C   0  0  0  0  0  0  0  0  0  0  0  0
   -3.4384    0.0167    1.4508 C   0  0  1  0  0  0  0  0  0  0  0  0
   -2.7935   -0.2526    2.7146 O   0  0  0  0  0  0  0  0  0  0  0  0
   -3.8638   -1.3372    0.9073 C   0  0  2  0  0  0  0  0  0  0  0  0
   -2.6759   -2.1885    1.3233 C   0  0  1  0  0  0  0  0  0  0  0  0
   -1.5825   -1.9509    0.4436 O   0  0  0  0  0  0  0  0  0  0  0  0
   -2.3509   -1.6335    2.7251 C   0  0  2  0  0  0  0  0  0  0  0  0
   -6.7177   -3.5858   -1.5093 C   0  0  2  0  0  0  0  0  0  0  0  0
   -6.0802   -2.3801   -1.0606 O   0  0  0  0  0  0  0  0  0  0  0  0
   -4.6471   -2.5083   -1.0321 C   0  0  2  0  0  0  0  0  0  0  0  0
   -4.0418   -1.3019   -0.5224 O   0  0  0  0  0  0  0  0  0  0  0  0
   -4.1026   -2.8276   -2.4349 C   0  0  2  0  0  0  0  0  0  0  0  0
   -4.0973   -1.6392   -3.2680 N   0  3  0  0  0  0  0  0  0  0  0  0
   -4.8610   -3.9659   -3.1278 C   0  0  1  0  0  0  0  0  0  0  0  0
   -4.4371   -5.2091   -2.5916 O   0  0  0  0  0  0  0  0  0  0  0  0
   -6.3735   -3.8316   -2.9727 C   0  0  2  0  0  0  0  0  0  0  0  0
   -6.8504   -2.7577   -3.7751 O   0  0  0  0  0  0  0  0  0  0  0  0
   -8.2287   -3.5002   -1.3135 C   0  0  0  0  0  0  0  0  0  0  0  0
   -8.7719   -2.3743   -2.0499 N   0  3  0  0  0  0  0  0  0  0  0  0
   -4.8195   -6.7036    3.5390 C   0  0  1  0  0  0  0  0  0  0  0  0
   -3.4354   -6.9853    3.2440 O   0  0  0  0  0  0  0  0  0  0  0  0
   -2.9799   -6.3871    2.0086 C   0  0  2  0  0  0  0  0  0  0  0  0
   -2.9762   -4.9395    2.0747 O   0  0  0  0  0  0  0  0  0  0  0  0
   -3.8195   -6.8843    0.8256 C   0  0  2  0  0  0  0  0  0  0  0  0
   -3.4948   -6.1238   -0.3668 N   0  3  0  0  0  0  0  0  0  0  0  0
   -5.3139   -6.7660    1.1039 C   0  0  1  0  0  0  0  0  0  0  0  0
   -6.0434   -7.4477    0.0953 O   0  0  0  0  0  0  0  0  0  0  0  0
   -5.7148   -7.3054    2.4683 C   0  0  2  0  0  0  0  0  0  0  0  0
   -7.0739   -6.9969    2.7410 O   0  0  0  0  0  0  0  0  0  0  0  0
   -5.2074   -7.3325    4.8742 C   0  0  0  0  0  0  0  0  0  0  0  0
   -4.2504   -6.9786    5.9065 N   0  3  0  0  0  0  0  0  0  0  0  0
   -0.5140   -4.6248    5.5298 C   0  0  2  0  0  0  0  0  0  0  0  0
    0.1141   -5.1484    4.2533 C   0  0  0  0  0  0  0  0  0  0  0  0
   -0.9592   -5.5714    3.2675 C   0  0  1  0  0  0  0  0  0  0  0  0
   -1.8712   -4.4147    2.8563 C   0  0  2  0  0  0  0  0  0  0  0  0
   -2.4117   -3.6679    4.0977 C   0  0  1  0  0  0  0  0  0  0  0  0
   -1.4127   -3.4307    5.2380 C   0  0  1  0  0  0  0  0  0  0  0  0
    0.5315   -4.2333    6.4559 N   0  3  0  0  0  0  0  0  0  0  0  0
   -0.3248   -6.1588    2.1035 N   0  3  0  0  0  0  0  0  0  0  0  0
   -3.0509   -2.4206    3.7311 O   0  0  0  0  0  0  0  0  0  0  0  0
   -2.1113   -3.0553    6.4204 O   0  0  0  0  0  0  0  0  0  0  0  0
  1  2  1  0  0  0  0
  3  2  1  1  0  0  0
  3  4  1  0  0  0  0
  3  5  1  0  0  0  0
  4  8  1  0  0  0  0
  5  6  1  0  0  0  0
  5 12  1  6  0  0  0
  6  7  1  6  0  0  0
  6  8  1  0  0  0  0
  8 41  1  1  0  0  0
  9 10  1  0  0  0  0
  9 17  1  0  0  0  0
  9 19  1  6  0  0  0
 10 11  1  0  0  0  0
 11 12  1  6  0  0  0
 11 13  1  0  0  0  0
 13 14  1  6  0  0  0
 13 15  1  0  0  0  0
 15 16  1  1  0  0  0
 15 17  1  0  0  0  0
 17 18  1  6  0  0  0
 19 20  1  0  0  0  0
 21 22  1  0  0  0  0
 21 29  1  0  0  0  0
 21 31  1  1  0  0  0
 22 23  1  0  0  0  0
 23 24  1  1  0  0  0
 23 25  1  0  0  0  0
 25 26  1  6  0  0  0
 25 27  1  0  0  0  0
 27 28  1  6  0  0  0
 27 29  1  0  0  0  0
 29 30  1  1  0  0  0
 31 32  1  0  0  0  0
 33 34  1  0  0  0  0
 33 38  1  0  0  0  0
 33 39  1  1  0  0  0
 34 35  1  0  0  0  0
 35 36  1  0  0  0  0
 35 40  1  6  0  0  0
 36 24  1  1  0  0  0
 36 37  1  0  0  0  0
 37 38  1  0  0  0  0
 37 41  1  6  0  0  0
 38 42  1  1  0  0  0
M  CHG  6  14   1  20   1  26   1  32   1  39   1  40   1
M  END
>  <CHROM.1>
-63.50910677,-76.39136905,-170.76989124,-174.81847060,-161.82952699,59.13668910
90.73232863,122.10330134,-50.11431687,-177.12383242,-70.76283918,50.35393944
75.35898055,5.36442019,-163.62705906,-168.52452167,58.84523792,151.15732231
64.64142915,48.05676392,-42.63392445,53.68257406,-3.90673245,-3.93046639
1.41514077,-2.53424415,0.90182612,2.71580079

>  <Name>


>  <RI>
0

>  <Rbt.Current_Directory>
/home/itssahil/PROJECTS/Mol_Feturizer/New_Systems/rnas/1qd3

>  <Rbt.Executable>
rbdock ($Id: //depot/dev/client3/rdock/2013.1/src/exe/rbdock.cxx#4 $)

>  <Rbt.Library>
libRbt.so (2013.1, Build901 2013/11/27)

>  <Rbt.Parameter_File>
/export/apps/rDock/src/rDock_2013.1_src/data/scripts/dock_solv.prm

>  <Rbt.Receptor>
prm/blind_docking_40.prm

>  <SCORE>
-37.9209

>  <SCORE.INTER>
-32.2854

>  <SCORE.INTER.CONST>
1

>  <SCORE.INTER.POLAR>
-4.55331

>  <SCORE.INTER.ROT>
9

>  <SCORE.INTER.SOLV>
39.0078

>  <SCORE.INTER.VDW>
-28.9485

>  <SCORE.INTER.norm>
-0.768701

>  <SCORE.INTRA>
-8.36398

>  <SCORE.INTRA.DIHEDRAL>
-14.4898

>  <SCORE.INTRA.DIHEDRAL.0>
40.6252

>  <SCORE.INTRA.POLAR>
0.0838262

>  <SCORE.INTRA.POLAR.0>
-1.20161

>  <SCORE.INTRA.REPUL>
-0.115675

>  <SCORE.INTRA.REPUL.0>
0.115675

>  <SCORE.INTRA.SOLV>
-2.57086

>  <SCORE.INTRA.SOLV.lig_0>
-154.895

>  <SCORE.INTRA.VDW>
0.459699

>  <SCORE.INTRA.VDW.0>
2.2925

>  <SCORE.INTRA.norm>
-0.199142

>  <SCORE.RESTR>
2.7285

>  <SCORE.RESTR.CAVITY>
2.7285

>  <SCORE.RESTR.norm>
0.0649644

>  <SCORE.SYSTEM>
0

>  <SCORE.SYSTEM.CONST>
0

>  <SCORE.SYSTEM.DIHEDRAL>
0

>  <SCORE.SYSTEM.SOLV>
0

>  <SCORE.SYSTEM.norm>
0

>  <SCORE.heavy>
42

>  <SCORE.norm>
-0.902879

>  <RMSD>
14.100

$$$$

 OpenBabel11021811413D
libRbt.so/2013.1/901 2013/11/27
 42 45  0  0  0  0  0  0  0  0999 V2000
   -1.9797   -5.2500   -0.3651 O   0  0  0  0  0  0  0  0  0  0  0  0
   -0.7727   -5.2877    0.3827 C   0  0  0  0  0  0  0  0  0  0  0  0
   -0.9441   -4.5003    1.6824 C   0  0  1  0  0  0  0  0  0  0  0  0
   -1.3289   -3.1331    1.4211 O   0  0  0  0  0  0  0  0  0  0  0  0
   -2.0215   -5.0659    2.5928 C   0  0  2  0  0  0  0  0  0  0  0  0
   -2.2967   -3.8617    3.4777 C   0  0  1  0  0  0  0  0  0  0  0  0
   -1.2615   -3.7297    4.4456 O   0  0  0  0  0  0  0  0  0  0  0  0
   -2.2262   -2.6942    2.4724 C   0  0  2  0  0  0  0  0  0  0  0  0
   -3.0168   -9.4728    2.6600 C   0  0  2  0  0  0  0  0  0  0  0  0
   -2.0496   -8.4117    2.6639 O   0  0  0  0  0  0  0  0  0  0  0  0
   -2.5098   -7.2676    3.4055 C   0  0  2  0  0  0  0  0  0  0  0  0
   -1.5411   -6.2003    3.3407 O   0  0  0  0  0  0  0  0  0  0  0  0
   -2.7899   -7.6465    4.8699 C   0  0  2  0  0  0  0  0  0  0  0  0
   -1.5506   -7.7775    5.6139 N   0  3  0  0  0  0  0  0  0  0  0  0
   -3.6368   -8.9170    5.0091 C   0  0  1  0  0  0  0  0  0  0  0  0
   -4.9960   -8.6083    4.7440 O   0  0  0  0  0  0  0  0  0  0  0  0
   -3.1725  -10.0273    4.0703 C   0  0  2  0  0  0  0  0  0  0  0  0
   -1.9352  -10.5624    4.5256 O   0  0  0  0  0  0  0  0  0  0  0  0
   -2.6043  -10.5730    1.6862 C   0  0  0  0  0  0  0  0  0  0  0  0
   -2.6457  -10.0830    0.3212 N   0  3  0  0  0  0  0  0  0  0  0  0
   -6.8338   -3.4753   -2.8448 C   0  0  1  0  0  0  0  0  0  0  0  0
   -7.2384   -3.0722   -1.5198 O   0  0  0  0  0  0  0  0  0  0  0  0
   -6.2775   -3.4203   -0.4967 C   0  0  2  0  0  0  0  0  0  0  0  0
   -5.0307   -2.6987   -0.6540 O   0  0  0  0  0  0  0  0  0  0  0  0
   -6.0401   -4.9351   -0.4711 C   0  0  2  0  0  0  0  0  0  0  0  0
   -4.9276   -5.2475    0.4067 N   0  3  0  0  0  0  0  0  0  0  0  0
   -5.7497   -5.4851   -1.8632 C   0  0  1  0  0  0  0  0  0  0  0  0
   -5.7717   -6.9038   -1.8307 O   0  0  0  0  0  0  0  0  0  0  0  0
   -6.7251   -4.9895   -2.9197 C   0  0  2  0  0  0  0  0  0  0  0  0
   -6.2924   -5.3825   -4.2139 O   0  0  0  0  0  0  0  0  0  0  0  0
   -7.8783   -3.0349   -3.8665 C   0  0  0  0  0  0  0  0  0  0  0  0
   -7.3992   -3.2548   -5.2189 N   0  3  0  0  0  0  0  0  0  0  0  0
   -3.4859    1.0988    0.4823 C   0  0  2  0  0  0  0  0  0  0  0  0
   -4.9065    1.0364   -0.0430 C   0  0  0  0  0  0  0  0  0  0  0  0
   -5.1498   -0.2771   -0.7629 C   0  0  1  0  0  0  0  0  0  0  0  0
   -4.9739   -1.4913    0.1500 C   0  0  2  0  0  0  0  0  0  0  0  0
   -3.6269   -1.4247    0.9062 C   0  0  1  0  0  0  0  0  0  0  0  0
   -3.2169   -0.0484    1.4468 C   0  0  1  0  0  0  0  0  0  0  0  0
   -3.2779    2.3643    1.1601 N   0  3  0  0  0  0  0  0  0  0  0  0
   -6.4809   -0.2600   -1.3376 N   0  3  0  0  0  0  0  0  0  0  0  0
   -3.5617   -2.4124    1.9641 O   0  0  0  0  0  0  0  0  0  0  0  0
   -1.8388   -0.0621    1.8043 O   0  0  0  0  0  0  0  0  0  0  0  0
  1  2  1  0  0  0  0
  3  2  1  6  0  0  0
  3  4  1  0  0  0  0
  3  5  1  0  0  0  0
  4  8  1  0  0  0  0
  5  6  1  0  0  0  0
  5 12  1  1  0  0  0
  6  7  1  1  0  0  0
  6  8  1  0  0  0  0
  8 41  1  6  0  0  0
  9 10  1  0  0  0  0
  9 17  1  0  0  0  0
  9 19  1  6  0  0  0
 10 11  1  0  0  0  0
 11 12  1  1  0  0  0
 11 13  1  0  0  0  0
 13 14  1  1  0  0  0
 13 15  1  0  0  0  0
 15 16  1  6  0  0  0
 15 17  1  0  0  0  0
 17 18  1  1  0  0  0
 19 20  1  0  0  0  0
 21 22  1  0  0  0  0
 21 29  1  0  0  0  0
 21 31  1  6  0  0  0
 22 23  1  0  0  0  0
 23 24  1  6  0  0  0
 23 25  1  0  0  0  0
 25 26  1  1  0  0  0
 25 27  1  0  0  0  0
 27 28  1  1  0  0  0
 27 29  1  0  0  0  0
 29 30  1  6  0  0  0
 31 32  1  0  0  0  0
 33 34  1  0  0  0  0
 33 38  1  0  0  0  0
 33 39  1  1  0  0  0
 34 35  1  0  0  0  0
 35 36  1  0  0  0  0
 35 40  1  1  0  0  0
 36 24  1  6  0  0  0
 36 37  1  0  0  0  0
 37 38  1  0  0  0  0
 37 41  1  1  0  0  0
 38 42  1  6  0  0  0
M  CHG  6  14   1  20   1  26   1  32   1  39   1  40   1
M  END
>  <CHROM.1>
-170.11254131,-57.58915563,-137.90859149,88.54027280,-57.15432211,-66.41416090
112.49613345,-77.51599935,-78.72516456,-168.40653122,-57.67156726,171.60284155
94.84865067,-105.65202199,-69.56435714,-168.27541025,-179.58023860,-52.13098983
48.24821402,116.29726391,163.02501380,-113.32629121,-3.84323696,-4.60932156
0.91713394,0.97588960,0.93696259,3.02597031

>  <Name>


>  <RI>
0

>  <Rbt.Current_Directory>
/home/itssahil/PROJECTS/Mol_Feturizer/New_Systems/rnas/1qd3

>  <Rbt.Executable>
rbdock ($Id: //depot/dev/client3/rdock/2013.1/src/exe/rbdock.cxx#4 $)

>  <Rbt.Library>
libRbt.so (2013.1, Build901 2013/11/27)

>  <Rbt.Parameter_File>
/export/apps/rDock/src/rDock_2013.1_src/data/scripts/dock_solv.prm

>  <Rbt.Receptor>
prm/blind_docking_80.prm

>  <SCORE>
-56.0349

>  <SCORE.INTER>
-43.2666

>  <SCORE.INTER.CONST>
1

>  <SCORE.INTER.POLAR>
-5.6833

>  <SCORE.INTER.ROT>
9

>  <SCORE.INTER.SOLV>
22.5276

>  <SCORE.INTER.VDW>
-27.0093

>  <SCORE.INTER.norm>
-1.03016

>  <SCORE.INTRA>
-14.0511

>  <SCORE.INTRA.DIHEDRAL>
4.35688

>  <SCORE.INTRA.DIHEDRAL.0>
40.6252

>  <SCORE.INTRA.POLAR>
-2.34311

>  <SCORE.INTRA.POLAR.0>
-1.20161

>  <SCORE.INTRA.REPUL>
0.140657

>  <SCORE.INTRA.REPUL.0>
0.115675

>  <SCORE.INTRA.SOLV>
-3.43709

>  <SCORE.INTRA.SOLV.lig_0>
-154.895

>  <SCORE.INTRA.VDW>
-7.2477

>  <SCORE.INTRA.VDW.0>
2.2925

>  <SCORE.INTRA.norm>
-0.33455

>  <SCORE.RESTR>
1.28283

>  <SCORE.RESTR.CAVITY>
1.28283

>  <SCORE.RESTR.norm>
0.0305437

>  <SCORE.SYSTEM>
0

>  <SCORE.SYSTEM.CONST>
0

>  <SCORE.SYSTEM.DIHEDRAL>
0

>  <SCORE.SYSTEM.SOLV>
0

>  <SCORE.SYSTEM.norm>
0

>  <SCORE.heavy>
42

>  <SCORE.norm>
-1.33416

>  <RMSD>
14.105

$$$$

 OpenBabel11021811413D
libRbt.so/2013.1/901 2013/11/27
 42 45  0  0  0  0  0  0  0  0999 V2000
   -6.6691   -9.2157   -1.1006 O   0  0  0  0  0  0  0  0  0  0  0  0
   -6.1762   -8.1305   -1.8732 C   0  0  0  0  0  0  0  0  0  0  0  0
   -6.3574   -6.8221   -1.1027 C   0  0  1  0  0  0  0  0  0  0  0  0
   -5.5773   -6.8161    0.1126 O   0  0  0  0  0  0  0  0  0  0  0  0
   -5.9149   -5.5958   -1.8836 C   0  0  2  0  0  0  0  0  0  0  0  0
   -5.7348   -4.5972   -0.7526 C   0  0  1  0  0  0  0  0  0  0  0  0
   -7.0058   -4.1189   -0.3263 O   0  0  0  0  0  0  0  0  0  0  0  0
   -5.1041   -5.4668    0.3540 C   0  0  2  0  0  0  0  0  0  0  0  0
   -6.7022   -3.1028   -5.8285 C   0  0  2  0  0  0  0  0  0  0  0  0
   -7.1727   -4.1223   -4.9336 O   0  0  0  0  0  0  0  0  0  0  0  0
   -6.4626   -4.1085   -3.6821 C   0  0  2  0  0  0  0  0  0  0  0  0
   -6.9189   -5.1799   -2.8303 O   0  0  0  0  0  0  0  0  0  0  0  0
   -6.6352   -2.7534   -2.9748 C   0  0  2  0  0  0  0  0  0  0  0  0
   -7.9486   -2.6544   -2.3652 N   0  3  0  0  0  0  0  0  0  0  0  0
   -6.3808   -1.5574   -3.8998 C   0  0  1  0  0  0  0  0  0  0  0  0
   -4.9832   -1.3825   -4.0698 O   0  0  0  0  0  0  0  0  0  0  0  0
   -7.0438   -1.7299   -5.2637 C   0  0  2  0  0  0  0  0  0  0  0  0
   -8.4542   -1.5885   -5.1394 O   0  0  0  0  0  0  0  0  0  0  0  0
   -7.3078   -3.2850   -7.2174 C   0  0  0  0  0  0  0  0  0  0  0  0
   -8.6129   -3.9115   -7.1227 N   0  3  0  0  0  0  0  0  0  0  0  0
   -1.3419   -3.8720    5.4271 C   0  0  1  0  0  0  0  0  0  0  0  0
   -2.6754   -4.3794    5.2121 O   0  0  0  0  0  0  0  0  0  0  0  0
   -3.1044   -4.2965    3.8335 C   0  0  2  0  0  0  0  0  0  0  0  0
   -2.3215   -5.1555    2.9681 O   0  0  0  0  0  0  0  0  0  0  0  0
   -3.0739   -2.8434    3.3444 C   0  0  2  0  0  0  0  0  0  0  0  0
   -3.3004   -2.7979    1.9118 N   0  3  0  0  0  0  0  0  0  0  0  0
   -1.7449   -2.1677    3.6632 C   0  0  1  0  0  0  0  0  0  0  0  0
   -1.8443   -0.7746    3.4110 O   0  0  0  0  0  0  0  0  0  0  0  0
   -1.2876   -2.3893    5.0968 C   0  0  2  0  0  0  0  0  0  0  0  0
    0.0334   -1.8996    5.2747 O   0  0  0  0  0  0  0  0  0  0  0  0
   -0.9514   -4.0344    6.8933 C   0  0  0  0  0  0  0  0  0  0  0  0
    0.4654   -3.7796    7.0792 N   0  3  0  0  0  0  0  0  0  0  0  0
   -2.7570   -8.9768    1.1495 C   0  0  2  0  0  0  0  0  0  0  0  0
   -3.1296   -8.8380    2.6124 C   0  0  0  0  0  0  0  0  0  0  0  0
   -2.5466   -7.5618    3.1906 C   0  0  1  0  0  0  0  0  0  0  0  0
   -3.0684   -6.3056    2.4916 C   0  0  2  0  0  0  0  0  0  0  0  0
   -2.9265   -6.4269    0.9567 C   0  0  1  0  0  0  0  0  0  0  0  0
   -3.2747   -7.7911    0.3465 C   0  0  1  0  0  0  0  0  0  0  0  0
   -3.3207  -10.2053    0.6232 N   0  3  0  0  0  0  0  0  0  0  0  0
   -2.8360   -7.5125    4.6104 N   0  3  0  0  0  0  0  0  0  0  0  0
   -3.6526   -5.3773    0.2712 O   0  0  0  0  0  0  0  0  0  0  0  0
   -2.7816   -7.8624   -0.9872 O   0  0  0  0  0  0  0  0  0  0  0  0
  1  2  1  0  0  0  0
  3  2  1  6  0  0  0
  3  4  1  0  0  0  0
  3  5  1  0  0  0  0
  4  8  1  0  0  0  0
  5  6  1  0  0  0  0
  5 12  1  6  0  0  0
  6  7  1  1  0  0  0
  6  8  1  0  0  0  0
  8 41  1  6  0  0  0
  9 10  1  0  0  0  0
  9 17  1  0  0  0  0
  9 19  1  6  0  0  0
 10 11  1  0  0  0  0
 11 12  1  1  0  0  0
 11 13  1  0  0  0  0
 13 14  1  6  0  0  0
 13 15  1  0  0  0  0
 15 16  1  6  0  0  0
 15 17  1  0  0  0  0
 17 18  1  1  0  0  0
 19 20  1  0  0  0  0
 21 22  1  0  0  0  0
 21 29  1  0  0  0  0
 21 31  1  1  0  0  0
 22 23  1  0  0  0  0
 23 24  1  6  0  0  0
 23 25  1  0  0  0  0
 25 26  1  6  0  0  0
 25 27  1  0  0  0  0
 27 28  1  1  0  0  0
 27 29  1  0  0  0  0
 29 30  1  6  0  0  0
 31 32  1  0  0  0  0
 33 34  1  0  0  0  0
 33 38  1  0  0  0  0
 33 39  1  6  0  0  0
 34 35  1  0  0  0  0
 35 36  1  0  0  0  0
 35 40  1  1  0  0  0
 36 24  1  1  0  0  0
 36 37  1  0  0  0  0
 37 38  1  0  0  0  0
 37 41  1  6  0  0  0
 38 42  1  6  0  0  0
M  CHG  6  14   1  20   1  26   1  32   1  39   1  40   1
M  END
>  <CHROM.1>
-174.88826361,63.56567453,-173.69538926,-168.40087054,-45.15200139,29.25163570
154.06986306,82.54017530,-173.85600577,56.32644188,87.81274009,168.71104201
108.75018367,-108.20055212,116.21264963,-60.47280254,-163.74789394,-58.82645003
61.63984741,91.76650043,-69.08932166,-55.87404117,-4.40756773,-4.78421992
0.17330453,2.99213129,-1.02029773,-0.07388183

>  <Name>


>  <RI>
0

>  <Rbt.Current_Directory>
/home/itssahil/PROJECTS/Mol_Feturizer/New_Systems/rnas/1qd3

>  <Rbt.Executable>
rbdock ($Id: //depot/dev/client3/rdock/2013.1/src/exe/rbdock.cxx#4 $)

>  <Rbt.Library>
libRbt.so (2013.1, Build901 2013/11/27)

>  <Rbt.Parameter_File>
/export/apps/rDock/src/rDock_2013.1_src/data/scripts/dock_solv.prm

>  <Rbt.Receptor>
prm/blind_docking_40.prm

>  <SCORE>
-50.1142

>  <SCORE.INTER>
-34.0468

>  <SCORE.INTER.CONST>
1

>  <SCORE.INTER.POLAR>
-4.35487

>  <SCORE.INTER.ROT>
9

>  <SCORE.INTER.SOLV>
23.6004

>  <SCORE.INTER.VDW>
-25.6484

>  <SCORE.INTER.norm>
-0.810638

>  <SCORE.INTRA>
-18.831

>  <SCORE.INTRA.DIHEDRAL>
-8.31681

>  <SCORE.INTRA.DIHEDRAL.0>
40.6252

>  <SCORE.INTRA.POLAR>
-1.99747

>  <SCORE.INTRA.POLAR.0>
-1.20161

>  <SCORE.INTRA.REPUL>
-0.115675

>  <SCORE.INTRA.REPUL.0>
0.115675

>  <SCORE.INTRA.SOLV>
-0.358477

>  <SCORE.INTRA.SOLV.lig_0>
-154.895

>  <SCORE.INTRA.VDW>
-7.12356

>  <SCORE.INTRA.VDW.0>
2.2925

>  <SCORE.INTRA.norm>
-0.448356

>  <SCORE.RESTR>
2.76358

>  <SCORE.RESTR.CAVITY>
2.76358

>  <SCORE.RESTR.norm>
0.0657995

>  <SCORE.SYSTEM>
0

>  <SCORE.SYSTEM.CONST>
0

>  <SCORE.SYSTEM.DIHEDRAL>
0

>  <SCORE.SYSTEM.SOLV>
0

>  <SCORE.SYSTEM.norm>
0

>  <SCORE.heavy>
42

>  <SCORE.norm>
-1.19319

>  <RMSD>
14.121

$$$$

 OpenBabel11021811413D
libRbt.so/2013.1/901 2013/11/27
 42 45  0  0  0  0  0  0  0  0999 V2000
   -1.1919   -6.1827    0.1339 O   0  0  0  0  0  0  0  0  0  0  0  0
   -1.0436   -4.8158   -0.2232 C   0  0  0  0  0  0  0  0  0  0  0  0
   -1.1428   -3.9405    1.0268 C   0  0  1  0  0  0  0  0  0  0  0  0
   -1.5352   -2.5913    0.6931 O   0  0  0  0  0  0  0  0  0  0  0  0
   -2.1728   -4.4344    2.0290 C   0  0  2  0  0  0  0  0  0  0  0  0
   -2.3958   -3.1706    2.8427 C   0  0  1  0  0  0  0  0  0  0  0  0
   -1.3103   -2.9810    3.7436 O   0  0  0  0  0  0  0  0  0  0  0  0
   -2.3737   -2.0749    1.7576 C   0  0  2  0  0  0  0  0  0  0  0  0
   -3.3049   -8.7774    2.6807 C   0  0  2  0  0  0  0  0  0  0  0  0
   -2.3022   -7.7704    2.4758 O   0  0  0  0  0  0  0  0  0  0  0  0
   -2.6570   -6.5234    3.1003 C   0  0  2  0  0  0  0  0  0  0  0  0
   -1.6583   -5.5189    2.8266 O   0  0  0  0  0  0  0  0  0  0  0  0
   -2.8291   -6.7060    4.6180 C   0  0  2  0  0  0  0  0  0  0  0  0
   -1.5384   -6.8025    5.2746 N   0  3  0  0  0  0  0  0  0  0  0  0
   -3.7080   -7.9085    4.9816 C   0  0  1  0  0  0  0  0  0  0  0  0
   -5.0721   -7.5713    4.7855 O   0  0  0  0  0  0  0  0  0  0  0  0
   -3.3641   -9.1464    4.1575 C   0  0  2  0  0  0  0  0  0  0  0  0
   -2.1141   -9.6789    4.5798 O   0  0  0  0  0  0  0  0  0  0  0  0
   -3.0152  -10.0070    1.8247 C   0  0  0  0  0  0  0  0  0  0  0  0
   -2.9396   -9.6418    0.4226 N   0  3  0  0  0  0  0  0  0  0  0  0
   -6.7235   -2.9555   -3.5879 C   0  0  1  0  0  0  0  0  0  0  0  0
   -7.3619   -2.3011   -2.4714 O   0  0  0  0  0  0  0  0  0  0  0  0
   -6.6527   -2.4757   -1.2233 C   0  0  2  0  0  0  0  0  0  0  0  0
   -5.3564   -1.8283   -1.2396 O   0  0  0  0  0  0  0  0  0  0  0  0
   -6.5228   -3.9645   -0.8791 C   0  0  2  0  0  0  0  0  0  0  0  0
   -5.6338   -4.1351    0.2551 N   0  3  0  0  0  0  0  0  0  0  0  0
   -5.9918   -4.7727   -2.0579 C   0  0  1  0  0  0  0  0  0  0  0  0
   -6.1107   -6.1591   -1.7790 O   0  0  0  0  0  0  0  0  0  0  0  0
   -6.6989   -4.4592   -3.3675 C   0  0  2  0  0  0  0  0  0  0  0  0
   -6.0387   -5.0985   -4.4502 O   0  0  0  0  0  0  0  0  0  0  0  0
   -7.5086   -2.6879   -4.8687 C   0  0  0  0  0  0  0  0  0  0  0  0
   -7.4027   -1.2927   -5.2546 N   0  3  0  0  0  0  0  0  0  0  0  0
   -3.8005    1.8433    0.2432 C   0  0  2  0  0  0  0  0  0  0  0  0
   -5.2498    1.8116   -0.2003 C   0  0  0  0  0  0  0  0  0  0  0  0
   -5.5176    0.5863   -1.0546 C   0  0  1  0  0  0  0  0  0  0  0  0
   -5.2679   -0.7222   -0.3034 C   0  0  2  0  0  0  0  0  0  0  0  0
   -3.8779   -0.7150    0.3738 C   0  0  1  0  0  0  0  0  0  0  0  0
   -3.4557    0.5972    1.0477 C   0  0  1  0  0  0  0  0  0  0  0  0
   -3.5698    3.0250    1.0520 N   0  3  0  0  0  0  0  0  0  0  0  0
   -6.8817    0.6413   -1.5429 N   0  3  0  0  0  0  0  0  0  0  0  0
   -3.7331   -1.8180    1.3019 O   0  0  0  0  0  0  0  0  0  0  0  0
   -2.0582    0.5721    1.3185 O   0  0  0  0  0  0  0  0  0  0  0  0
  1  2  1  0  0  0  0
  3  2  1  6  0  0  0
  3  4  1  0  0  0  0
  3  5  1  0  0  0  0
  4  8  1  0  0  0  0
  5  6  1  0  0  0  0
  5 12  1  1  0  0  0
  6  7  1  1  0  0  0
  6  8  1  0  0  0  0
  8 41  1  6  0  0  0
  9 10  1  0  0  0  0
  9 17  1  0  0  0  0
  9 19  1  6  0  0  0
 10 11  1  0  0  0  0
 11 12  1  1  0  0  0
 11 13  1  0  0  0  0
 13 14  1  1  0  0  0
 13 15  1  0  0  0  0
 15 16  1  6  0  0  0
 15 17  1  0  0  0  0
 17 18  1  1  0  0  0
 19 20  1  0  0  0  0
 21 22  1  0  0  0  0
 21 29  1  0  0  0  0
 21 31  1  6  0  0  0
 22 23  1  0  0  0  0
 23 24  1  6  0  0  0
 23 25  1  0  0  0  0
 25 26  1  1  0  0  0
 25 27  1  0  0  0  0
 27 28  1  1  0  0  0
 27 29  1  0  0  0  0
 29 30  1  6  0  0  0
 31 32  1  0  0  0  0
 33 34  1  0  0  0  0
 33 38  1  0  0  0  0
 33 39  1  1  0  0  0
 34 35  1  0  0  0  0
 35 36  1  0  0  0  0
 35 40  1  1  0  0  0
 36 24  1  6  0  0  0
 36 37  1  0  0  0  0
 37 38  1  0  0  0  0
 37 41  1  1  0  0  0
 38 42  1  6  0  0  0
M  CHG  6  14   1  20   1  26   1  32   1  39   1  40   1
M  END
>  <CHROM.1>
-48.82513607,-156.78682640,-142.31966604,175.56690666,-68.96995712,-57.29022938
115.02555853,90.45374555,-148.68463004,-57.76671704,68.47725164,68.70493378
114.11107797,-97.62532649,-130.19970319,-172.54440916,-65.04842073,-46.24544674
-97.58444826,-37.57429815,166.68387679,54.60229850,-4.00998732,-3.89052903
0.59323106,0.95282636,0.94816423,3.03995226

>  <Name>


>  <RI>
0

>  <Rbt.Current_Directory>
/home/itssahil/PROJECTS/Mol_Feturizer/New_Systems/rnas/1qd3

>  <Rbt.Executable>
rbdock ($Id: //depot/dev/client3/rdock/2013.1/src/exe/rbdock.cxx#4 $)

>  <Rbt.Library>
libRbt.so (2013.1, Build901 2013/11/27)

>  <Rbt.Parameter_File>
/export/apps/rDock/src/rDock_2013.1_src/data/scripts/dock_solv.prm

>  <Rbt.Receptor>
prm/blind_docking_20.prm

>  <SCORE>
-46.4285

>  <SCORE.INTER>
-34.4933

>  <SCORE.INTER.CONST>
1

>  <SCORE.INTER.POLAR>
-4.73322

>  <SCORE.INTER.ROT>
9

>  <SCORE.INTER.SOLV>
22.831

>  <SCORE.INTER.VDW>
-24.4285

>  <SCORE.INTER.norm>
-0.821269

>  <SCORE.INTRA>
-12.988

>  <SCORE.INTRA.DIHEDRAL>
0.51378

>  <SCORE.INTRA.DIHEDRAL.0>
40.6252

>  <SCORE.INTRA.POLAR>
-0.685921

>  <SCORE.INTRA.POLAR.0>
-1.20161

>  <SCORE.INTRA.REPUL>
-0.115675

>  <SCORE.INTRA.REPUL.0>
0.115675

>  <SCORE.INTRA.SOLV>
-7.59286

>  <SCORE.INTRA.SOLV.lig_0>
-154.895

>  <SCORE.INTRA.VDW>
-6.53795

>  <SCORE.INTRA.VDW.0>
2.2925

>  <SCORE.INTRA.norm>
-0.309238

>  <SCORE.RESTR>
1.05284

>  <SCORE.RESTR.CAVITY>
1.05284

>  <SCORE.RESTR.norm>
0.0250676

>  <SCORE.SYSTEM>
0

>  <SCORE.SYSTEM.CONST>
0

>  <SCORE.SYSTEM.DIHEDRAL>
0

>  <SCORE.SYSTEM.SOLV>
0

>  <SCORE.SYSTEM.norm>
0

>  <SCORE.heavy>
42

>  <SCORE.norm>
-1.10544

>  <RMSD>
14.140

$$$$

 OpenBabel11021811413D
libRbt.so/2013.1/901 2013/11/27
 42 45  0  0  0  0  0  0  0  0999 V2000
   -7.4717   -5.8956   -2.5514 O   0  0  0  0  0  0  0  0  0  0  0  0
   -6.1250   -6.2779   -2.3109 C   0  0  0  0  0  0  0  0  0  0  0  0
   -5.4997   -5.3453   -1.2728 C   0  0  1  0  0  0  0  0  0  0  0  0
   -5.2844   -4.0245   -1.8157 O   0  0  0  0  0  0  0  0  0  0  0  0
   -6.3651   -5.1489   -0.0391 C   0  0  2  0  0  0  0  0  0  0  0  0
   -5.7689   -3.8662    0.5161 C   0  0  1  0  0  0  0  0  0  0  0  0
   -4.5395   -4.1526    1.1738 O   0  0  0  0  0  0  0  0  0  0  0  0
   -5.5004   -3.0494   -0.7643 C   0  0  2  0  0  0  0  0  0  0  0  0
   -3.5469   -7.2980    3.1136 C   0  0  2  0  0  0  0  0  0  0  0  0
   -4.8761   -7.1529    2.5905 O   0  0  0  0  0  0  0  0  0  0  0  0
   -4.8879   -6.4335    1.3443 C   0  0  2  0  0  0  0  0  0  0  0  0
   -6.2410   -6.2548    0.8765 O   0  0  0  0  0  0  0  0  0  0  0  0
   -4.0492   -7.1690    0.2850 C   0  0  2  0  0  0  0  0  0  0  0  0
   -4.7690   -8.3167   -0.2357 N   0  3  0  0  0  0  0  0  0  0  0  0
   -2.6677   -7.5897    0.7999 C   0  0  1  0  0  0  0  0  0  0  0  0
   -1.8073   -6.4617    0.8154 O   0  0  0  0  0  0  0  0  0  0  0  0
   -2.7329   -8.2019    2.1966 C   0  0  2  0  0  0  0  0  0  0  0  0
   -3.3235   -9.4948    2.1330 O   0  0  0  0  0  0  0  0  0  0  0  0
   -3.5856   -7.8572    4.5330 C   0  0  0  0  0  0  0  0  0  0  0  0
   -4.9060   -8.3755    4.8375 N   0  3  0  0  0  0  0  0  0  0  0  0
   -2.9968   -0.3222    0.1712 C   0  0  1  0  0  0  0  0  0  0  0  0
   -4.3212   -0.8944    0.1949 O   0  0  0  0  0  0  0  0  0  0  0  0
   -5.3517    0.0288   -0.2257 C   0  0  2  0  0  0  0  0  0  0  0  0
   -5.2164    0.3954   -1.6210 O   0  0  0  0  0  0  0  0  0  0  0  0
   -5.3642    1.2710    0.6735 C   0  0  2  0  0  0  0  0  0  0  0  0
   -6.2517    2.2758    0.1181 N   0  3  0  0  0  0  0  0  0  0  0  0
   -3.9701    1.8670    0.8333 C   0  0  1  0  0  0  0  0  0  0  0  0
   -3.9874    2.8582    1.8489 O   0  0  0  0  0  0  0  0  0  0  0  0
   -2.9074    0.8290    1.1597 C   0  0  2  0  0  0  0  0  0  0  0  0
   -1.6143    1.4138    1.1093 O   0  0  0  0  0  0  0  0  0  0  0  0
   -1.9676   -1.3697    0.5860 C   0  0  0  0  0  0  0  0  0  0  0  0
   -1.7818   -2.3525   -0.4658 N   0  3  0  0  0  0  0  0  0  0  0  0
   -6.7877   -1.8996   -4.8403 C   0  0  2  0  0  0  0  0  0  0  0  0
   -5.3749   -1.3654   -4.9699 C   0  0  0  0  0  0  0  0  0  0  0  0
   -5.1276   -0.2648   -3.9549 C   0  0  1  0  0  0  0  0  0  0  0  0
   -5.2747   -0.7494   -2.5118 C   0  0  2  0  0  0  0  0  0  0  0  0
   -6.6103   -1.5031   -2.3146 C   0  0  1  0  0  0  0  0  0  0  0  0
   -7.0278   -2.4552   -3.4431 C   0  0  1  0  0  0  0  0  0  0  0  0
   -6.9998   -2.9446   -5.8237 N   0  3  0  0  0  0  0  0  0  0  0  0
   -3.8060    0.2901   -4.1739 N   0  3  0  0  0  0  0  0  0  0  0  0
   -6.6471   -2.1955   -1.0426 O   0  0  0  0  0  0  0  0  0  0  0  0
   -8.3998   -2.8057   -3.2951 O   0  0  0  0  0  0  0  0  0  0  0  0
  1  2  1  0  0  0  0
  3  2  1  6  0  0  0
  3  4  1  0  0  0  0
  3  5  1  0  0  0  0
  4  8  1  0  0  0  0
  5  6  1  0  0  0  0
  5 12  1  1  0  0  0
  6  7  1  6  0  0  0
  6  8  1  0  0  0  0
  8 41  1  6  0  0  0
  9 10  1  0  0  0  0
  9 17  1  0  0  0  0
  9 19  1  1  0  0  0
 10 11  1  0  0  0  0
 11 12  1  6  0  0  0
 11 13  1  0  0  0  0
 13 14  1  1  0  0  0
 13 15  1  0  0  0  0
 15 16  1  1  0  0  0
 15 17  1  0  0  0  0
 17 18  1  6  0  0  0
 19 20  1  0  0  0  0
 21 22  1  0  0  0  0
 21 29  1  0  0  0  0
 21 31  1  1  0  0  0
 22 23  1  0  0  0  0
 23 24  1  6  0  0  0
 23 25  1  0  0  0  0
 25 26  1  6  0  0  0
 25 27  1  0  0  0  0
 27 28  1  1  0  0  0
 27 29  1  0  0  0  0
 29 30  1  6  0  0  0
 31 32  1  0  0  0  0
 33 34  1  0  0  0  0
 33 38  1  0  0  0  0
 33 39  1  6  0  0  0
 34 35  1  0  0  0  0
 35 36  1  0  0  0  0
 35 40  1  1  0  0  0
 36 24  1  1  0  0  0
 36 37  1  0  0  0  0
 37 38  1  0  0  0  0
 37 41  1  1  0  0  0
 38 42  1  1  0  0  0
M  CHG  6  14   1  20   1  26   1  32   1  39   1  40   1
M  END
>  <CHROM.1>
-174.98488012,-70.56946657,60.20146669,171.96252649,-55.20151426,13.39772264
157.68149610,-158.17846489,55.07732371,-177.99453457,99.15453592,72.76727057
58.86983033,179.84865095,77.58953424,-57.65948635,58.93655048,-72.01603804
-59.18467707,-163.29139649,-51.18651837,67.19725546,-4.80333088,-3.31027075
-0.37491330,1.38772462,1.02896878,2.88599082

>  <Name>


>  <RI>
0

>  <Rbt.Current_Directory>
/home/itssahil/PROJECTS/Mol_Feturizer/New_Systems/rnas/1qd3

>  <Rbt.Executable>
rbdock ($Id: //depot/dev/client3/rdock/2013.1/src/exe/rbdock.cxx#4 $)

>  <Rbt.Library>
libRbt.so (2013.1, Build901 2013/11/27)

>  <Rbt.Parameter_File>
/export/apps/rDock/src/rDock_2013.1_src/data/scripts/dock_solv.prm

>  <Rbt.Receptor>
prm/blind_docking_20.prm

>  <SCORE>
-55.555

>  <SCORE.INTER>
-44.6643

>  <SCORE.INTER.CONST>
1

>  <SCORE.INTER.POLAR>
-7.45181

>  <SCORE.INTER.ROT>
9

>  <SCORE.INTER.SOLV>
37.3891

>  <SCORE.INTER.VDW>
-26.9999

>  <SCORE.INTER.norm>
-1.06344

>  <SCORE.INTRA>
-11.221

>  <SCORE.INTRA.DIHEDRAL>
-24.709

>  <SCORE.INTRA.DIHEDRAL.0>
40.6252

>  <SCORE.INTRA.POLAR>
1.05861

>  <SCORE.INTRA.POLAR.0>
-1.20161

>  <SCORE.INTRA.REPUL>
-0.115675

>  <SCORE.INTRA.REPUL.0>
0.115675

>  <SCORE.INTRA.SOLV>
-5.82926

>  <SCORE.INTRA.SOLV.lig_0>
-154.895

>  <SCORE.INTRA.VDW>
1.02721

>  <SCORE.INTRA.VDW.0>
2.2925

>  <SCORE.INTRA.norm>
-0.267167

>  <SCORE.RESTR>
0.330345

>  <SCORE.RESTR.CAVITY>
0.330345

>  <SCORE.RESTR.norm>
0.00786536

>  <SCORE.SYSTEM>
0

>  <SCORE.SYSTEM.CONST>
0

>  <SCORE.SYSTEM.DIHEDRAL>
0

>  <SCORE.SYSTEM.SOLV>
0

>  <SCORE.SYSTEM.norm>
0

>  <SCORE.heavy>
42

>  <SCORE.norm>
-1.32274

>  <RMSD>
14.140

$$$$

 OpenBabel11021811413D
libRbt.so/2013.1/901 2013/11/27
 42 45  0  0  0  0  0  0  0  0999 V2000
   -0.5030   -5.0800   -1.1502 O   0  0  0  0  0  0  0  0  0  0  0  0
   -1.5924   -4.3126   -0.6584 C   0  0  0  0  0  0  0  0  0  0  0  0
   -2.9074   -4.8730   -1.2017 C   0  0  1  0  0  0  0  0  0  0  0  0
   -2.8701   -6.3144   -1.2830 O   0  0  0  0  0  0  0  0  0  0  0  0
   -4.1097   -4.5392   -0.3344 C   0  0  2  0  0  0  0  0  0  0  0  0
   -5.0956   -5.5932   -0.8098 C   0  0  1  0  0  0  0  0  0  0  0  0
   -5.6399   -5.2099   -2.0679 O   0  0  0  0  0  0  0  0  0  0  0  0
   -4.1920   -6.8307   -0.9850 C   0  0  2  0  0  0  0  0  0  0  0  0
   -3.4591    0.1291    0.4383 C   0  0  2  0  0  0  0  0  0  0  0  0
   -4.2459   -0.8823   -0.2093 O   0  0  0  0  0  0  0  0  0  0  0  0
   -3.8076   -2.2084    0.1373 C   0  0  2  0  0  0  0  0  0  0  0  0
   -4.5798   -3.1981   -0.5741 O   0  0  0  0  0  0  0  0  0  0  0  0
   -3.9153   -2.4365    1.6548 C   0  0  2  0  0  0  0  0  0  0  0  0
   -5.2948   -2.6635    2.0447 N   0  3  0  0  0  0  0  0  0  0  0  0
   -3.3055   -1.2955    2.4775 C   0  0  1  0  0  0  0  0  0  0  0  0
   -1.8920   -1.4181    2.4774 O   0  0  0  0  0  0  0  0  0  0  0  0
   -3.6992    0.0784    1.9418 C   0  0  2  0  0  0  0  0  0  0  0  0
   -5.0687    0.3370    2.2281 O   0  0  0  0  0  0  0  0  0  0  0  0
   -3.7936    1.5097   -0.1191 C   0  0  0  0  0  0  0  0  0  0  0  0
   -3.1959    1.6855   -1.4293 N   0  3  0  0  0  0  0  0  0  0  0  0
   -3.9006   -6.9085    4.0151 C   0  0  1  0  0  0  0  0  0  0  0  0
   -3.9216   -6.5092    2.6287 O   0  0  0  0  0  0  0  0  0  0  0  0
   -2.6065   -6.2429    2.0893 C   0  0  2  0  0  0  0  0  0  0  0  0
   -1.7883   -7.4377    2.0372 O   0  0  0  0  0  0  0  0  0  0  0  0
   -1.9112   -5.1310    2.8843 C   0  0  2  0  0  0  0  0  0  0  0  0
   -0.5244   -5.0199    2.4718 N   0  3  0  0  0  0  0  0  0  0  0  0
   -1.9682   -5.3896    4.3858 C   0  0  1  0  0  0  0  0  0  0  0  0
   -1.5298   -4.2359    5.0865 O   0  0  0  0  0  0  0  0  0  0  0  0
   -3.3542   -5.7807    4.8752 C   0  0  2  0  0  0  0  0  0  0  0  0
   -3.3008   -6.1880    6.2346 O   0  0  0  0  0  0  0  0  0  0  0  0
   -5.3179   -7.2106    4.4932 C   0  0  0  0  0  0  0  0  0  0  0  0
   -6.1610   -7.6111    3.3816 N   0  3  0  0  0  0  0  0  0  0  0  0
   -2.6769  -11.1044    0.0711 C   0  0  2  0  0  0  0  0  0  0  0  0
   -2.3289  -11.1534    1.5458 C   0  0  0  0  0  0  0  0  0  0  0  0
   -1.6617   -9.8607    1.9778 C   0  0  1  0  0  0  0  0  0  0  0  0
   -2.5630   -8.6399    1.7878 C   0  0  2  0  0  0  0  0  0  0  0  0
   -3.1490   -8.6018    0.3575 C   0  0  1  0  0  0  0  0  0  0  0  0
   -3.6170   -9.9431   -0.2224 C   0  0  1  0  0  0  0  0  0  0  0  0
   -3.3071  -12.3519   -0.3170 N   0  3  0  0  0  0  0  0  0  0  0  0
   -1.2527   -9.9817    3.3636 N   0  3  0  0  0  0  0  0  0  0  0  0
   -4.2045   -7.6162    0.2416 O   0  0  0  0  0  0  0  0  0  0  0  0
   -3.8047   -9.8210   -1.6285 O   0  0  0  0  0  0  0  0  0  0  0  0
  1  2  1  0  0  0  0
  3  2  1  1  0  0  0
  3  4  1  0  0  0  0
  3  5  1  0  0  0  0
  4  8  1  0  0  0  0
  5  6  1  0  0  0  0
  5 12  1  6  0  0  0
  6  7  1  6  0  0  0
  6  8  1  0  0  0  0
  8 41  1  1  0  0  0
  9 10  1  0  0  0  0
  9 17  1  0  0  0  0
  9 19  1  6  0  0  0
 10 11  1  0  0  0  0
 11 12  1  6  0  0  0
 11 13  1  0  0  0  0
 13 14  1  1  0  0  0
 13 15  1  0  0  0  0
 15 16  1  6  0  0  0
 15 17  1  0  0  0  0
 17 18  1  6  0  0  0
 19 20  1  0  0  0  0
 21 22  1  0  0  0  0
 21 29  1  0  0  0  0
 21 31  1  1  0  0  0
 22 23  1  0  0  0  0
 23 24  1  1  0  0  0
 23 25  1  0  0  0  0
 25 26  1  6  0  0  0
 25 27  1  0  0  0  0
 27 28  1  1  0  0  0
 27 29  1  0  0  0  0
 29 30  1  1  0  0  0
 31 32  1  0  0  0  0
 33 34  1  0  0  0  0
 33 38  1  0  0  0  0
 33 39  1  1  0  0  0
 34 35  1  0  0  0  0
 35 36  1  0  0  0  0
 35 40  1  1  0  0  0
 36 24  1  6  0  0  0
 36 37  1  0  0  0  0
 37 38  1  0  0  0  0
 37 41  1  1  0  0  0
 38 42  1  6  0  0  0
M  CHG  6  14   1  20   1  26   1  32   1  39   1  40   1
M  END
>  <CHROM.1>
-57.05156351,36.83181509,-81.19061062,-58.17768428,-47.63603882,-75.51885223
175.66022458,68.83745290,59.93436201,-73.96040240,-57.71269553,26.08852207
32.70129541,-170.79121301,-83.85468078,177.06101615,59.93880366,-84.82956361
-70.47181349,-178.73528256,138.73601178,175.79871220,-3.28739986,-5.36210081
1.29328399,2.07245647,-1.40835392,0.43724140

>  <Name>


>  <RI>
0

>  <Rbt.Current_Directory>
/home/itssahil/PROJECTS/Mol_Feturizer/New_Systems/rnas/1qd3

>  <Rbt.Executable>
rbdock ($Id: //depot/dev/client3/rdock/2013.1/src/exe/rbdock.cxx#4 $)

>  <Rbt.Library>
libRbt.so (2013.1, Build901 2013/11/27)

>  <Rbt.Parameter_File>
/export/apps/rDock/src/rDock_2013.1_src/data/scripts/dock_solv.prm

>  <Rbt.Receptor>
prm/blind_docking_80.prm

>  <SCORE>
-57.6789

>  <SCORE.INTER>
-39.0257

>  <SCORE.INTER.CONST>
1

>  <SCORE.INTER.POLAR>
-3.93752

>  <SCORE.INTER.ROT>
9

>  <SCORE.INTER.SOLV>
31.5702

>  <SCORE.INTER.VDW>
-33.0154

>  <SCORE.INTER.norm>
-0.929183

>  <SCORE.INTRA>
-19.3901

>  <SCORE.INTRA.DIHEDRAL>
-16.8555

>  <SCORE.INTRA.DIHEDRAL.0>
40.6252

>  <SCORE.INTRA.POLAR>
1.16155

>  <SCORE.INTRA.POLAR.0>
-1.20161

>  <SCORE.INTRA.REPUL>
-0.00835976

>  <SCORE.INTRA.REPUL.0>
0.115675

>  <SCORE.INTRA.SOLV>
-10.1078

>  <SCORE.INTRA.SOLV.lig_0>
-154.895

>  <SCORE.INTRA.VDW>
-9.81596

>  <SCORE.INTRA.VDW.0>
2.2925

>  <SCORE.INTRA.norm>
-0.46167

>  <SCORE.RESTR>
0.736901

>  <SCORE.RESTR.CAVITY>
0.736901

>  <SCORE.RESTR.norm>
0.0175453

>  <SCORE.SYSTEM>
0

>  <SCORE.SYSTEM.CONST>
0

>  <SCORE.SYSTEM.DIHEDRAL>
0

>  <SCORE.SYSTEM.SOLV>
0

>  <SCORE.SYSTEM.norm>
0

>  <SCORE.heavy>
42

>  <SCORE.norm>
-1.37331

>  <RMSD>
14.142

$$$$

 OpenBabel11021811413D
libRbt.so/2013.1/901 2013/11/27
 42 45  0  0  0  0  0  0  0  0999 V2000
   -1.7483   -3.9134   -0.9152 O   0  0  0  0  0  0  0  0  0  0  0  0
   -1.9559   -4.2465    0.4499 C   0  0  0  0  0  0  0  0  0  0  0  0
   -1.7305   -3.0122    1.3240 C   0  0  1  0  0  0  0  0  0  0  0  0
   -1.9157   -1.7942    0.5704 O   0  0  0  0  0  0  0  0  0  0  0  0
   -2.6904   -2.9212    2.4986 C   0  0  2  0  0  0  0  0  0  0  0  0
   -2.5738   -1.4446    2.8379 C   0  0  1  0  0  0  0  0  0  0  0  0
   -1.3623   -1.2082    3.5467 O   0  0  0  0  0  0  0  0  0  0  0  0
   -2.4998   -0.7932    1.4419 C   0  0  2  0  0  0  0  0  0  0  0  0
   -3.2634   -7.1816    2.7263 C   0  0  2  0  0  0  0  0  0  0  0  0
   -2.4963   -5.9679    2.7331 O   0  0  0  0  0  0  0  0  0  0  0  0
   -3.0352   -4.9964    3.6478 C   0  0  2  0  0  0  0  0  0  0  0  0
   -2.2772   -3.7703    3.5873 O   0  0  0  0  0  0  0  0  0  0  0  0
   -3.0439   -5.5488    5.0835 C   0  0  2  0  0  0  0  0  0  0  0  0
   -1.7098   -5.5197    5.6544 N   0  3  0  0  0  0  0  0  0  0  0  0
   -3.6387   -6.9586    5.1800 C   0  0  1  0  0  0  0  0  0  0  0  0
   -5.0538   -6.8781    5.1159 O   0  0  0  0  0  0  0  0  0  0  0  0
   -3.1286   -7.8786    4.0741 C   0  0  2  0  0  0  0  0  0  0  0  0
   -1.7685   -8.2199    4.3153 O   0  0  0  0  0  0  0  0  0  0  0  0
   -2.8103   -8.0978    1.5931 C   0  0  0  0  0  0  0  0  0  0  0  0
   -1.3966   -8.3985    1.7192 N   0  3  0  0  0  0  0  0  0  0  0  0
   -6.6743   -2.1469   -3.8277 C   0  0  1  0  0  0  0  0  0  0  0  0
   -7.3049   -1.4089   -2.7602 O   0  0  0  0  0  0  0  0  0  0  0  0
   -6.5766   -1.4717   -1.5123 C   0  0  2  0  0  0  0  0  0  0  0  0
   -5.2884   -0.8142   -1.6013 O   0  0  0  0  0  0  0  0  0  0  0  0
   -6.4246   -2.9253   -1.0479 C   0  0  2  0  0  0  0  0  0  0  0  0
   -5.5182   -2.9917    0.0834 N   0  3  0  0  0  0  0  0  0  0  0  0
   -5.9005   -3.8230   -2.1632 C   0  0  1  0  0  0  0  0  0  0  0  0
   -5.9992   -5.1826   -1.7687 O   0  0  0  0  0  0  0  0  0  0  0  0
   -6.6291   -3.6268   -3.4838 C   0  0  2  0  0  0  0  0  0  0  0  0
   -5.9763   -4.3469   -4.5193 O   0  0  0  0  0  0  0  0  0  0  0  0
   -7.4800   -1.9950   -5.1147 C   0  0  0  0  0  0  0  0  0  0  0  0
   -6.8063   -2.6465   -6.2230 N   0  3  0  0  0  0  0  0  0  0  0  0
   -3.7496    3.0286   -0.6193 C   0  0  2  0  0  0  0  0  0  0  0  0
   -5.1662    2.9439   -1.1524 C   0  0  0  0  0  0  0  0  0  0  0  0
   -5.4049    1.6004   -1.8164 C   0  0  1  0  0  0  0  0  0  0  0  0
   -5.2369    0.4270   -0.8501 C   0  0  2  0  0  0  0  0  0  0  0  0
   -3.8957    0.5259   -0.0872 C   0  0  1  0  0  0  0  0  0  0  0  0
   -3.4889    1.9243    0.3962 C   0  0  1  0  0  0  0  0  0  0  0  0
   -3.5460    4.3223    0.0043 N   0  3  0  0  0  0  0  0  0  0  0  0
   -6.7315    1.5930   -2.4015 N   0  3  0  0  0  0  0  0  0  0  0  0
   -3.8394   -0.4148    1.0132 O   0  0  0  0  0  0  0  0  0  0  0  0
   -2.1137    1.9257    0.7646 O   0  0  0  0  0  0  0  0  0  0  0  0
  1  2  1  0  0  0  0
  3  2  1  6  0  0  0
  3  4  1  0  0  0  0
  3  5  1  0  0  0  0
  4  8  1  0  0  0  0
  5  6  1  0  0  0  0
  5 12  1  1  0  0  0
  6  7  1  1  0  0  0
  6  8  1  0  0  0  0
  8 41  1  6  0  0  0
  9 10  1  0  0  0  0
  9 17  1  0  0  0  0
  9 19  1  6  0  0  0
 10 11  1  0  0  0  0
 11 12  1  1  0  0  0
 11 13  1  0  0  0  0
 13 14  1  6  0  0  0
 13 15  1  0  0  0  0
 15 16  1  6  0  0  0
 15 17  1  0  0  0  0
 17 18  1  1  0  0  0
 19 20  1  0  0  0  0
 21 22  1  0  0  0  0
 21 29  1  0  0  0  0
 21 31  1  6  0  0  0
 22 23  1  0  0  0  0
 23 24  1  6  0  0  0
 23 25  1  0  0  0  0
 25 26  1  1  0  0  0
 25 27  1  0  0  0  0
 27 28  1  1  0  0  0
 27 29  1  0  0  0  0
 29 30  1  6  0  0  0
 31 32  1  0  0  0  0
 33 34  1  0  0  0  0
 33 38  1  0  0  0  0
 33 39  1  1  0  0  0
 34 35  1  0  0  0  0
 35 36  1  0  0  0  0
 35 40  1  1  0  0  0
 36 24  1  6  0  0  0
 36 37  1  0  0  0  0
 37 38  1  0  0  0  0
 37 41  1  1  0  0  0
 38 42  1  6  0  0  0
M  CHG  6  14   1  20   1  26   1  32   1  39   1  40   1
M  END
>  <CHROM.1>
48.46813898,23.54467878,-101.61175061,-72.54916283,-79.54625762,57.67994897
82.78016458,155.46144464,-134.21826669,54.34539899,-63.09778534,175.65011511
109.25419172,-100.79028673,-22.18488131,58.47234053,-173.32905161,-64.46911293
56.67675398,84.51711418,156.21924501,155.06297413,-4.01718915,-2.75017288
0.43832075,0.91749594,1.01689053,2.97796722

>  <Name>


>  <RI>
0

>  <Rbt.Current_Directory>
/home/itssahil/PROJECTS/Mol_Feturizer/New_Systems/rnas/1qd3

>  <Rbt.Executable>
rbdock ($Id: //depot/dev/client3/rdock/2013.1/src/exe/rbdock.cxx#4 $)

>  <Rbt.Library>
libRbt.so (2013.1, Build901 2013/11/27)

>  <Rbt.Parameter_File>
/export/apps/rDock/src/rDock_2013.1_src/data/scripts/dock_solv.prm

>  <Rbt.Receptor>
prm/blind_docking_20.prm

>  <SCORE>
-45.9003

>  <SCORE.INTER>
-35.304

>  <SCORE.INTER.CONST>
1

>  <SCORE.INTER.POLAR>
-4.57035

>  <SCORE.INTER.ROT>
9

>  <SCORE.INTER.SOLV>
23.961

>  <SCORE.INTER.VDW>
-25.8885

>  <SCORE.INTER.norm>
-0.840572

>  <SCORE.INTRA>
-12.7221

>  <SCORE.INTRA.DIHEDRAL>
3.91154

>  <SCORE.INTRA.DIHEDRAL.0>
40.6252

>  <SCORE.INTRA.POLAR>
-1.49263

>  <SCORE.INTRA.POLAR.0>
-1.20161

>  <SCORE.INTRA.REPUL>
-0.115675

>  <SCORE.INTRA.REPUL.0>
0.115675

>  <SCORE.INTRA.SOLV>
-2.3369

>  <SCORE.INTRA.SOLV.lig_0>
-154.895

>  <SCORE.INTRA.VDW>
-7.85608

>  <SCORE.INTRA.VDW.0>
2.2925

>  <SCORE.INTRA.norm>
-0.302907

>  <SCORE.RESTR>
2.12581

>  <SCORE.RESTR.CAVITY>
2.12581

>  <SCORE.RESTR.norm>
0.0506146

>  <SCORE.SYSTEM>
0

>  <SCORE.SYSTEM.CONST>
0

>  <SCORE.SYSTEM.DIHEDRAL>
0

>  <SCORE.SYSTEM.SOLV>
0

>  <SCORE.SYSTEM.norm>
0

>  <SCORE.heavy>
42

>  <SCORE.norm>
-1.09286

>  <RMSD>
14.154

$$$$

 OpenBabel11021811413D
libRbt.so/2013.1/901 2013/11/27
 42 45  0  0  0  0  0  0  0  0999 V2000
   -2.0506   -1.1635    2.6789 O   0  0  0  0  0  0  0  0  0  0  0  0
   -1.8291   -2.2237    1.7598 C   0  0  0  0  0  0  0  0  0  0  0  0
   -3.0053   -2.3199    0.7873 C   0  0  1  0  0  0  0  0  0  0  0  0
   -2.9661   -3.5528    0.0363 O   0  0  0  0  0  0  0  0  0  0  0  0
   -4.3603   -2.2982    1.4751 C   0  0  2  0  0  0  0  0  0  0  0  0
   -5.2341   -2.8956    0.3850 C   0  0  1  0  0  0  0  0  0  0  0  0
   -5.4967   -1.9147   -0.6124 O   0  0  0  0  0  0  0  0  0  0  0  0
   -4.3263   -4.0005   -0.1928 C   0  0  2  0  0  0  0  0  0  0  0  0
   -3.7380    1.0633   -1.0453 C   0  0  2  0  0  0  0  0  0  0  0  0
   -4.4888    0.1168   -0.2694 O   0  0  0  0  0  0  0  0  0  0  0  0
   -4.0199    0.0431    1.0890 C   0  0  2  0  0  0  0  0  0  0  0  0
   -4.7557   -0.9569    1.8241 O   0  0  0  0  0  0  0  0  0  0  0  0
   -4.1419    1.4118    1.7806 C   0  0  2  0  0  0  0  0  0  0  0  0
   -5.5199    1.6825    2.1469 N   0  3  0  0  0  0  0  0  0  0  0  0
   -3.5738    2.5612    0.9398 C   0  0  1  0  0  0  0  0  0  0  0  0
   -2.1578    2.5528    1.0263 O   0  0  0  0  0  0  0  0  0  0  0  0
   -3.9969    2.4711   -0.5239 C   0  0  2  0  0  0  0  0  0  0  0  0
   -5.3766    2.7946   -0.6514 O   0  0  0  0  0  0  0  0  0  0  0  0
   -4.1018    0.9560   -2.5235 C   0  0  0  0  0  0  0  0  0  0  0  0
   -3.8851   -0.3965   -3.0016 N   0  3  0  0  0  0  0  0  0  0  0  0
   -3.2580   -6.5405    4.2199 C   0  0  1  0  0  0  0  0  0  0  0  0
   -3.5498   -5.6094    3.1569 O   0  0  0  0  0  0  0  0  0  0  0  0
   -2.4372   -5.4002    2.2571 C   0  0  2  0  0  0  0  0  0  0  0  0
   -2.1070   -6.5992    1.5133 O   0  0  0  0  0  0  0  0  0  0  0  0
   -1.2174   -4.8695    3.0201 C   0  0  2  0  0  0  0  0  0  0  0  0
   -0.0541   -4.8646    2.1527 N   0  3  0  0  0  0  0  0  0  0  0  0
   -0.9163   -5.7078    4.2575 C   0  0  1  0  0  0  0  0  0  0  0  0
    0.0588   -5.0521    5.0534 O   0  0  0  0  0  0  0  0  0  0  0  0
   -2.1479   -5.9941    5.1027 C   0  0  2  0  0  0  0  0  0  0  0  0
   -1.8374   -6.9274    6.1271 O   0  0  0  0  0  0  0  0  0  0  0  0
   -4.4921   -6.7368    5.0958 C   0  0  0  0  0  0  0  0  0  0  0  0
   -4.3874   -7.9639    5.8639 N   0  3  0  0  0  0  0  0  0  0  0  0
   -4.4433   -8.5240   -1.4761 C   0  0  2  0  0  0  0  0  0  0  0  0
   -3.9809   -9.3504   -0.2922 C   0  0  0  0  0  0  0  0  0  0  0  0
   -2.8562   -8.6441    0.4421 C   0  0  1  0  0  0  0  0  0  0  0  0
   -3.2799   -7.2861    1.0034 C   0  0  2  0  0  0  0  0  0  0  0  0
   -3.9626   -6.4259   -0.0851 C   0  0  1  0  0  0  0  0  0  0  0  0
   -4.9353   -7.1571   -1.0199 C   0  0  1  0  0  0  0  0  0  0  0  0
   -5.5129   -9.2227   -2.1630 N   0  3  0  0  0  0  0  0  0  0  0  0
   -2.3721   -9.5056    1.5031 N   0  3  0  0  0  0  0  0  0  0  0  0
   -4.6052   -5.2592    0.4848 O   0  0  0  0  0  0  0  0  0  0  0  0
   -5.2156   -6.3444   -2.1549 O   0  0  0  0  0  0  0  0  0  0  0  0
  1  2  1  0  0  0  0
  3  2  1  1  0  0  0
  3  4  1  0  0  0  0
  3  5  1  0  0  0  0
  4  8  1  0  0  0  0
  5  6  1  0  0  0  0
  5 12  1  6  0  0  0
  6  7  1  6  0  0  0
  6  8  1  0  0  0  0
  8 41  1  1  0  0  0
  9 10  1  0  0  0  0
  9 17  1  0  0  0  0
  9 19  1  6  0  0  0
 10 11  1  0  0  0  0
 11 12  1  1  0  0  0
 11 13  1  0  0  0  0
 13 14  1  6  0  0  0
 13 15  1  0  0  0  0
 15 16  1  6  0  0  0
 15 17  1  0  0  0  0
 17 18  1  1  0  0  0
 19 20  1  0  0  0  0
 21 22  1  0  0  0  0
 21 29  1  0  0  0  0
 21 31  1  1  0  0  0
 22 23  1  0  0  0  0
 23 24  1  1  0  0  0
 23 25  1  0  0  0  0
 25 26  1  6  0  0  0
 25 27  1  0  0  0  0
 27 28  1  1  0  0  0
 27 29  1  0  0  0  0
 29 30  1  1  0  0  0
 31 32  1  0  0  0  0
 33 34  1  0  0  0  0
 33 38  1  0  0  0  0
 33 39  1  1  0  0  0
 34 35  1  0  0  0  0
 35 36  1  0  0  0  0
 35 40  1  1  0  0  0
 36 24  1  6  0  0  0
 36 37  1  0  0  0  0
 37 38  1  0  0  0  0
 37 41  1  1  0  0  0
 38 42  1  6  0  0  0
M  CHG  6  14   1  20   1  26   1  32   1  39   1  40   1
M  END
>  <CHROM.1>
75.67468271,-167.20719439,18.39456823,-71.57099699,-71.58686452,-56.70344340
74.92146048,-134.66576223,54.81067269,170.98907445,44.51494179,160.59084816
43.78627957,-170.68041612,123.39603507,-179.25498112,70.57787351,80.14634789
62.25143923,59.21680856,132.37702337,178.72352710,-3.48894480,-3.71028459
1.23221383,-1.84536350,1.14416077,-3.13478196

>  <Name>


>  <RI>
0

>  <Rbt.Current_Directory>
/home/itssahil/PROJECTS/Mol_Feturizer/New_Systems/rnas/1qd3

>  <Rbt.Executable>
rbdock ($Id: //depot/dev/client3/rdock/2013.1/src/exe/rbdock.cxx#4 $)

>  <Rbt.Library>
libRbt.so (2013.1, Build901 2013/11/27)

>  <Rbt.Parameter_File>
/export/apps/rDock/src/rDock_2013.1_src/data/scripts/dock_solv.prm

>  <Rbt.Receptor>
prm/blind_docking_20.prm

>  <SCORE>
-60.861

>  <SCORE.INTER>
-48.7974

>  <SCORE.INTER.CONST>
1

>  <SCORE.INTER.POLAR>
-7.36444

>  <SCORE.INTER.ROT>
9

>  <SCORE.INTER.SOLV>
35.7284

>  <SCORE.INTER.VDW>
-29.4929

>  <SCORE.INTER.norm>
-1.16184

>  <SCORE.INTRA>
-12.5444

>  <SCORE.INTRA.DIHEDRAL>
-12.9019

>  <SCORE.INTRA.DIHEDRAL.0>
40.6252

>  <SCORE.INTRA.POLAR>
0.256835

>  <SCORE.INTRA.POLAR.0>
-1.20161

>  <SCORE.INTRA.REPUL>
-0.115675

>  <SCORE.INTRA.REPUL.0>
0.115675

>  <SCORE.INTRA.SOLV>
-6.95577

>  <SCORE.INTRA.SOLV.lig_0>
-154.895

>  <SCORE.INTRA.VDW>
-2.91044

>  <SCORE.INTRA.VDW.0>
2.2925

>  <SCORE.INTRA.norm>
-0.298677

>  <SCORE.RESTR>
0.480842

>  <SCORE.RESTR.CAVITY>
0.480842

>  <SCORE.RESTR.norm>
0.0114486

>  <SCORE.SYSTEM>
0

>  <SCORE.SYSTEM.CONST>
0

>  <SCORE.SYSTEM.DIHEDRAL>
0

>  <SCORE.SYSTEM.SOLV>
0

>  <SCORE.SYSTEM.norm>
0

>  <SCORE.heavy>
42

>  <SCORE.norm>
-1.44907

>  <RMSD>
14.158

$$$$

 OpenBabel11021811413D
libRbt.so/2013.1/901 2013/11/27
 42 45  0  0  0  0  0  0  0  0999 V2000
   -3.7592  -10.9894   -1.0751 O   0  0  0  0  0  0  0  0  0  0  0  0
   -3.6147  -10.0793    0.0059 C   0  0  0  0  0  0  0  0  0  0  0  0
   -3.1522   -8.7200   -0.5201 C   0  0  1  0  0  0  0  0  0  0  0  0
   -4.0592   -8.2078   -1.5204 O   0  0  0  0  0  0  0  0  0  0  0  0
   -3.0777   -7.6500    0.5565 C   0  0  2  0  0  0  0  0  0  0  0  0
   -3.1024   -6.3942   -0.2988 C   0  0  1  0  0  0  0  0  0  0  0  0
   -1.8213   -6.1847   -0.8825 O   0  0  0  0  0  0  0  0  0  0  0  0
   -4.1231   -6.7646   -1.3940 C   0  0  2  0  0  0  0  0  0  0  0  0
   -1.1803   -8.1015    4.9055 C   0  0  2  0  0  0  0  0  0  0  0  0
   -0.9479   -8.0986    3.4886 O   0  0  0  0  0  0  0  0  0  0  0  0
   -2.1183   -7.6993    2.7527 C   0  0  2  0  0  0  0  0  0  0  0  0
   -1.8689   -7.7632    1.3331 O   0  0  0  0  0  0  0  0  0  0  0  0
   -2.5545   -6.2800    3.1550 C   0  0  2  0  0  0  0  0  0  0  0  0
   -1.6898   -5.2844    2.5489 N   0  3  0  0  0  0  0  0  0  0  0  0
   -2.6208   -6.0809    4.6738 C   0  0  1  0  0  0  0  0  0  0  0  0
   -3.8073   -6.6755    5.1754 O   0  0  0  0  0  0  0  0  0  0  0  0
   -1.4100   -6.6751    5.3884 C   0  0  2  0  0  0  0  0  0  0  0  0
   -0.2576   -5.8802    5.1338 O   0  0  0  0  0  0  0  0  0  0  0  0
   -0.0070   -8.7420    5.6416 C   0  0  0  0  0  0  0  0  0  0  0  0
    0.2636  -10.0645    5.1099 N   0  3  0  0  0  0  0  0  0  0  0  0
   -4.9451   -4.2470    1.7881 C   0  0  1  0  0  0  0  0  0  0  0  0
   -5.8299   -3.7246    0.7750 O   0  0  0  0  0  0  0  0  0  0  0  0
   -5.1665   -2.8568   -0.1728 C   0  0  2  0  0  0  0  0  0  0  0  0
   -4.1931   -3.5708   -0.9744 O   0  0  0  0  0  0  0  0  0  0  0  0
   -4.5235   -1.6639    0.5449 C   0  0  2  0  0  0  0  0  0  0  0  0
   -3.6887   -0.9204   -0.3803 N   0  3  0  0  0  0  0  0  0  0  0  0
   -3.6801   -2.1080    1.7349 C   0  0  1  0  0  0  0  0  0  0  0  0
   -3.3025   -0.9755    2.5024 O   0  0  0  0  0  0  0  0  0  0  0  0
   -4.3888   -3.1115    2.6316 C   0  0  2  0  0  0  0  0  0  0  0  0
   -3.4907   -3.6239    3.6051 O   0  0  0  0  0  0  0  0  0  0  0  0
   -5.7113   -5.1827    2.7186 C   0  0  0  0  0  0  0  0  0  0  0  0
   -6.0879   -6.4015    2.0261 N   0  3  0  0  0  0  0  0  0  0  0  0
   -7.3243   -4.4282   -3.7240 C   0  0  2  0  0  0  0  0  0  0  0  0
   -6.0906   -3.7202   -4.2482 C   0  0  0  0  0  0  0  0  0  0  0  0
   -5.2811   -3.1435   -3.1014 C   0  0  1  0  0  0  0  0  0  0  0  0
   -4.7833   -4.2171   -2.1326 C   0  0  2  0  0  0  0  0  0  0  0  0
   -5.9407   -5.1409   -1.6879 C   0  0  1  0  0  0  0  0  0  0  0  0
   -6.9370   -5.5569   -2.7781 C   0  0  1  0  0  0  0  0  0  0  0  0
   -8.0822   -4.9644   -4.8384 N   0  3  0  0  0  0  0  0  0  0  0  0
   -4.1672   -2.3898   -3.6431 N   0  3  0  0  0  0  0  0  0  0  0  0
   -5.4484   -6.3128   -0.9928 O   0  0  0  0  0  0  0  0  0  0  0  0
   -8.1070   -6.1036   -2.1786 O   0  0  0  0  0  0  0  0  0  0  0  0
  1  2  1  0  0  0  0
  3  2  1  1  0  0  0
  3  4  1  0  0  0  0
  3  5  1  0  0  0  0
  4  8  1  0  0  0  0
  5  6  1  0  0  0  0
  5 12  1  6  0  0  0
  6  7  1  6  0  0  0
  6  8  1  0  0  0  0
  8 41  1  1  0  0  0
  9 10  1  0  0  0  0
  9 17  1  0  0  0  0
  9 19  1  1  0  0  0
 10 11  1  0  0  0  0
 11 12  1  6  0  0  0
 11 13  1  0  0  0  0
 13 14  1  1  0  0  0
 13 15  1  0  0  0  0
 15 16  1  1  0  0  0
 15 17  1  0  0  0  0
 17 18  1  6  0  0  0
 19 20  1  0  0  0  0
 21 22  1  0  0  0  0
 21 29  1  0  0  0  0
 21 31  1  1  0  0  0
 22 23  1  0  0  0  0
 23 24  1  1  0  0  0
 23 25  1  0  0  0  0
 25 26  1  6  0  0  0
 25 27  1  0  0  0  0
 27 28  1  1  0  0  0
 27 29  1  0  0  0  0
 29 30  1  1  0  0  0
 31 32  1  0  0  0  0
 33 34  1  0  0  0  0
 33 38  1  0  0  0  0
 33 39  1  6  0  0  0
 34 35  1  0  0  0  0
 35 36  1  0  0  0  0
 35 40  1  6  0  0  0
 36 24  1  1  0  0  0
 36 37  1  0  0  0  0
 37 38  1  0  0  0  0
 37 41  1  6  0  0  0
 38 42  1  1  0  0  0
M  CHG  6  14   1  20   1  26   1  32   1  39   1  40   1
M  END
>  <CHROM.1>
-54.56866069,56.25600824,-132.38517005,39.90537271,-137.53052707,-54.19048629
167.68607882,76.75567439,-175.41079732,37.75038178,-73.60937769,69.24864498
84.88976530,67.02979843,63.87843346,178.70929273,-176.69271087,-99.21068306
176.40785524,-32.13384098,-29.46739534,-56.75326199,-3.83970403,-5.64469219
0.75938617,0.11254842,1.02662004,-2.80193915

>  <Name>


>  <RI>
0

>  <Rbt.Current_Directory>
/home/itssahil/PROJECTS/Mol_Feturizer/New_Systems/rnas/1qd3

>  <Rbt.Executable>
rbdock ($Id: //depot/dev/client3/rdock/2013.1/src/exe/rbdock.cxx#4 $)

>  <Rbt.Library>
libRbt.so (2013.1, Build901 2013/11/27)

>  <Rbt.Parameter_File>
/export/apps/rDock/src/rDock_2013.1_src/data/scripts/dock_solv.prm

>  <Rbt.Receptor>
prm/blind_docking_40.prm

>  <SCORE>
-50.9427

>  <SCORE.INTER>
-38.7198

>  <SCORE.INTER.CONST>
1

>  <SCORE.INTER.POLAR>
-4.20228

>  <SCORE.INTER.ROT>
9

>  <SCORE.INTER.SOLV>
21.0348

>  <SCORE.INTER.VDW>
-28.4172

>  <SCORE.INTER.norm>
-0.921899

>  <SCORE.INTRA>
-17.2366

>  <SCORE.INTRA.DIHEDRAL>
-10.7659

>  <SCORE.INTRA.DIHEDRAL.0>
40.6252

>  <SCORE.INTRA.POLAR>
-0.531849

>  <SCORE.INTRA.POLAR.0>
-1.20161

>  <SCORE.INTRA.REPUL>
-0.112082

>  <SCORE.INTRA.REPUL.0>
0.115675

>  <SCORE.INTRA.SOLV>
-0.975797

>  <SCORE.INTRA.SOLV.lig_0>
-154.895

>  <SCORE.INTRA.VDW>
-8.99701

>  <SCORE.INTRA.VDW.0>
2.2925

>  <SCORE.INTRA.norm>
-0.410394

>  <SCORE.RESTR>
5.01358

>  <SCORE.RESTR.CAVITY>
5.01358

>  <SCORE.RESTR.norm>
0.119371

>  <SCORE.SYSTEM>
0

>  <SCORE.SYSTEM.CONST>
0

>  <SCORE.SYSTEM.DIHEDRAL>
0

>  <SCORE.SYSTEM.SOLV>
0

>  <SCORE.SYSTEM.norm>
0

>  <SCORE.heavy>
42

>  <SCORE.norm>
-1.21292

>  <RMSD>
14.158

$$$$

 OpenBabel11021811413D
libRbt.so/2013.1/901 2013/11/27
 42 45  0  0  0  0  0  0  0  0999 V2000
   -6.0948   -8.5513   -0.7290 O   0  0  0  0  0  0  0  0  0  0  0  0
   -4.8334   -8.7975   -1.3338 C   0  0  0  0  0  0  0  0  0  0  0  0
   -3.9419   -7.5631   -1.1928 C   0  0  1  0  0  0  0  0  0  0  0  0
   -4.5159   -6.4213   -1.8654 O   0  0  0  0  0  0  0  0  0  0  0  0
   -3.7331   -7.1312    0.2492 C   0  0  2  0  0  0  0  0  0  0  0  0
   -3.2850   -5.6936    0.0457 C   0  0  1  0  0  0  0  0  0  0  0  0
   -1.9248   -5.6686   -0.3729 O   0  0  0  0  0  0  0  0  0  0  0  0
   -4.1968   -5.2270   -1.1073 C   0  0  2  0  0  0  0  0  0  0  0  0
   -3.2515   -7.2952    4.4620 C   0  0  2  0  0  0  0  0  0  0  0  0
   -3.4933   -7.7998    3.1398 O   0  0  0  0  0  0  0  0  0  0  0  0
   -2.4283   -7.4628    2.2326 C   0  0  2  0  0  0  0  0  0  0  0  0
   -2.7296   -7.9333    0.9024 O   0  0  0  0  0  0  0  0  0  0  0  0
   -1.0938   -8.0537    2.7187 C   0  0  2  0  0  0  0  0  0  0  0  0
   -1.0323   -9.4782    2.4474 N   0  3  0  0  0  0  0  0  0  0  0  0
   -0.8201   -7.7770    4.2017 C   0  0  1  0  0  0  0  0  0  0  0  0
   -0.3771   -6.4381    4.3569 O   0  0  0  0  0  0  0  0  0  0  0  0
   -2.0527   -8.0114    5.0708 C   0  0  2  0  0  0  0  0  0  0  0  0
   -2.3159   -9.4058    5.1741 O   0  0  0  0  0  0  0  0  0  0  0  0
   -4.4893   -7.4668    5.3379 C   0  0  0  0  0  0  0  0  0  0  0  0
   -4.7321   -8.8725    5.6020 N   0  3  0  0  0  0  0  0  0  0  0  0
   -5.7129    1.2054    0.0957 C   0  0  1  0  0  0  0  0  0  0  0  0
   -4.9585    0.7354   -1.0410 O   0  0  0  0  0  0  0  0  0  0  0  0
   -4.4318   -0.6001   -0.8665 C   0  0  2  0  0  0  0  0  0  0  0  0
   -5.4842   -1.5927   -0.7833 O   0  0  0  0  0  0  0  0  0  0  0  0
   -3.5142   -0.6630    0.3606 C   0  0  2  0  0  0  0  0  0  0  0  0
   -3.1635   -2.0418    0.6468 N   0  3  0  0  0  0  0  0  0  0  0  0
   -4.1723   -0.0477    1.5905 C   0  0  1  0  0  0  0  0  0  0  0  0
   -3.2138    0.0871    2.6284 O   0  0  0  0  0  0  0  0  0  0  0  0
   -4.8118    1.3046    1.3157 C   0  0  2  0  0  0  0  0  0  0  0  0
   -5.5635    1.7330    2.4418 O   0  0  0  0  0  0  0  0  0  0  0  0
   -6.2671    2.5991   -0.1853 C   0  0  0  0  0  0  0  0  0  0  0  0
   -7.4036    2.5286   -1.0854 N   0  3  0  0  0  0  0  0  0  0  0  0
   -7.2659   -3.9843   -3.8173 C   0  0  2  0  0  0  0  0  0  0  0  0
   -6.3811   -2.8311   -4.2477 C   0  0  0  0  0  0  0  0  0  0  0  0
   -6.1676   -1.8663   -3.0960 C   0  0  1  0  0  0  0  0  0  0  0  0
   -5.4730   -2.5197   -1.9004 C   0  0  2  0  0  0  0  0  0  0  0  0
   -6.1805   -3.8352   -1.5005 C   0  0  1  0  0  0  0  0  0  0  0  0
   -6.6393   -4.7389   -2.6526 C   0  0  1  0  0  0  0  0  0  0  0  0
   -7.4587   -4.8873   -4.9359 N   0  3  0  0  0  0  0  0  0  0  0  0
   -5.4038   -0.7285   -3.5697 N   0  3  0  0  0  0  0  0  0  0  0  0
   -5.3897   -4.5983   -0.5565 O   0  0  0  0  0  0  0  0  0  0  0  0
   -7.5543   -5.7145   -2.1647 O   0  0  0  0  0  0  0  0  0  0  0  0
  1  2  1  0  0  0  0
  3  2  1  1  0  0  0
  3  4  1  0  0  0  0
  3  5  1  0  0  0  0
  4  8  1  0  0  0  0
  5  6  1  0  0  0  0
  5 12  1  6  0  0  0
  6  7  1  6  0  0  0
  6  8  1  0  0  0  0
  8 41  1  1  0  0  0
  9 10  1  0  0  0  0
  9 17  1  0  0  0  0
  9 19  1  1  0  0  0
 10 11  1  0  0  0  0
 11 12  1  6  0  0  0
 11 13  1  0  0  0  0
 13 14  1  1  0  0  0
 13 15  1  0  0  0  0
 15 16  1  6  0  0  0
 15 17  1  0  0  0  0
 17 18  1  6  0  0  0
 19 20  1  0  0  0  0
 21 22  1  0  0  0  0
 21 29  1  0  0  0  0
 21 31  1  6  0  0  0
 22 23  1  0  0  0  0
 23 24  1  1  0  0  0
 23 25  1  0  0  0  0
 25 26  1  1  0  0  0
 25 27  1  0  0  0  0
 27 28  1  1  0  0  0
 27 29  1  0  0  0  0
 29 30  1  1  0  0  0
 31 32  1  0  0  0  0
 33 34  1  0  0  0  0
 33 38  1  0  0  0  0
 33 39  1  6  0  0  0
 34 35  1  0  0  0  0
 35 36  1  0  0  0  0
 35 40  1  6  0  0  0
 36 24  1  1  0  0  0
 36 37  1  0  0  0  0
 37 38  1  0  0  0  0
 37 41  1  1  0  0  0
 38 42  1  1  0  0  0
M  CHG  6  14   1  20   1  26   1  32   1  39   1  40   1
M  END
>  <CHROM.1>
170.04491199,-61.75647842,174.70267604,-63.39126511,-77.14783368,68.30197201
74.38303427,-172.80069904,-177.21551176,177.33281301,-74.97011023,75.75695902
114.49310281,-81.16740202,72.42744502,51.23552225,-179.66509148,-172.82317911
-62.54750511,-64.59579307,-71.81986908,-66.10102715,-4.38159318,-4.34254708
0.40131446,0.78570451,1.08630985,-2.92472403

>  <Name>


>  <RI>
0

>  <Rbt.Current_Directory>
/home/itssahil/PROJECTS/Mol_Feturizer/New_Systems/rnas/1qd3

>  <Rbt.Executable>
rbdock ($Id: //depot/dev/client3/rdock/2013.1/src/exe/rbdock.cxx#4 $)

>  <Rbt.Library>
libRbt.so (2013.1, Build901 2013/11/27)

>  <Rbt.Parameter_File>
/export/apps/rDock/src/rDock_2013.1_src/data/scripts/dock_solv.prm

>  <Rbt.Receptor>
prm/blind_docking_20.prm

>  <SCORE>
-56.8707

>  <SCORE.INTER>
-33.199

>  <SCORE.INTER.CONST>
1

>  <SCORE.INTER.POLAR>
-2.82436

>  <SCORE.INTER.ROT>
9

>  <SCORE.INTER.SOLV>
24.659

>  <SCORE.INTER.VDW>
-30.5378

>  <SCORE.INTER.norm>
-0.790453

>  <SCORE.INTRA>
-24.7624

>  <SCORE.INTRA.DIHEDRAL>
-23.5979

>  <SCORE.INTRA.DIHEDRAL.0>
40.6252

>  <SCORE.INTRA.POLAR>
-0.56068

>  <SCORE.INTRA.POLAR.0>
-1.20161

>  <SCORE.INTRA.REPUL>
-0.115675

>  <SCORE.INTRA.REPUL.0>
0.115675

>  <SCORE.INTRA.SOLV>
-6.56827

>  <SCORE.INTRA.SOLV.lig_0>
-154.895

>  <SCORE.INTRA.VDW>
-7.19467

>  <SCORE.INTRA.VDW.0>
2.2925

>  <SCORE.INTRA.norm>
-0.589581

>  <SCORE.RESTR>
1.09068

>  <SCORE.RESTR.CAVITY>
1.09068

>  <SCORE.RESTR.norm>
0.0259686

>  <SCORE.SYSTEM>
0

>  <SCORE.SYSTEM.CONST>
0

>  <SCORE.SYSTEM.DIHEDRAL>
0

>  <SCORE.SYSTEM.SOLV>
0

>  <SCORE.SYSTEM.norm>
0

>  <SCORE.heavy>
42

>  <SCORE.norm>
-1.35407

>  <RMSD>
14.159

$$$$

 OpenBabel11021811413D
libRbt.so/2013.1/901 2013/11/27
 42 45  0  0  0  0  0  0  0  0999 V2000
   -4.0889    2.2391    2.4275 O   0  0  0  0  0  0  0  0  0  0  0  0
   -4.5899    1.0853    1.7677 C   0  0  0  0  0  0  0  0  0  0  0  0
   -3.4558    0.0845    1.5424 C   0  0  1  0  0  0  0  0  0  0  0  0
   -2.8088   -0.2645    2.7855 O   0  0  0  0  0  0  0  0  0  0  0  0
   -3.9217   -1.2289    0.9363 C   0  0  2  0  0  0  0  0  0  0  0  0
   -2.7540   -2.1310    1.2989 C   0  0  1  0  0  0  0  0  0  0  0  0
   -1.6613   -1.8790    0.4223 O   0  0  0  0  0  0  0  0  0  0  0  0
   -2.4034   -1.6554    2.7235 C   0  0  2  0  0  0  0  0  0  0  0  0
   -6.8629   -3.1497   -1.7692 C   0  0  2  0  0  0  0  0  0  0  0  0
   -6.1648   -2.0009   -1.2650 O   0  0  0  0  0  0  0  0  0  0  0  0
   -4.7683   -2.2725   -1.0488 C   0  0  2  0  0  0  0  0  0  0  0  0
   -4.1096   -1.1177   -0.4883 O   0  0  0  0  0  0  0  0  0  0  0  0
   -4.0868   -2.6908   -2.3629 C   0  0  2  0  0  0  0  0  0  0  0  0
   -3.8516   -1.5367   -3.2109 N   0  3  0  0  0  0  0  0  0  0  0  0
   -4.8661   -3.7682   -3.1262 C   0  0  1  0  0  0  0  0  0  0  0  0
   -4.6460   -5.0299   -2.5158 O   0  0  0  0  0  0  0  0  0  0  0  0
   -6.3636   -3.4765   -3.1708 C   0  0  2  0  0  0  0  0  0  0  0  0
   -6.6200   -2.3864   -4.0486 O   0  0  0  0  0  0  0  0  0  0  0  0
   -8.3692   -2.9051   -1.7724 C   0  0  0  0  0  0  0  0  0  0  0  0
   -9.0844   -4.1511   -1.9750 N   0  3  0  0  0  0  0  0  0  0  0  0
   -4.7952   -6.8220    3.6191 C   0  0  1  0  0  0  0  0  0  0  0  0
   -3.4184   -7.0736    3.2682 O   0  0  0  0  0  0  0  0  0  0  0  0
   -3.0265   -6.4667    2.0154 C   0  0  2  0  0  0  0  0  0  0  0  0
   -3.0518   -5.0194    2.0814 O   0  0  0  0  0  0  0  0  0  0  0  0
   -3.9022   -6.9832    0.8674 C   0  0  2  0  0  0  0  0  0  0  0  0
   -3.6428   -6.2167   -0.3372 N   0  3  0  0  0  0  0  0  0  0  0  0
   -5.3863   -6.8973    1.2060 C   0  0  1  0  0  0  0  0  0  0  0  0
   -6.1410   -7.5957    0.2277 O   0  0  0  0  0  0  0  0  0  0  0  0
   -5.7198   -7.4442    2.5855 C   0  0  2  0  0  0  0  0  0  0  0  0
   -7.0731   -7.1652    2.9131 O   0  0  0  0  0  0  0  0  0  0  0  0
   -5.1148   -7.4582    4.9689 C   0  0  0  0  0  0  0  0  0  0  0  0
   -4.4954   -8.7661    5.0803 N   0  3  0  0  0  0  0  0  0  0  0  0
   -0.5209   -4.6213    5.4778 C   0  0  2  0  0  0  0  0  0  0  0  0
    0.0854   -5.1610    4.1975 C   0  0  0  0  0  0  0  0  0  0  0  0
   -1.0040   -5.6112    3.2419 C   0  0  1  0  0  0  0  0  0  0  0  0
   -1.9358   -4.4705    2.8303 C   0  0  2  0  0  0  0  0  0  0  0  0
   -2.4575   -3.7075    4.0699 C   0  0  1  0  0  0  0  0  0  0  0  0
   -1.4373   -3.4410    5.1845 C   0  0  1  0  0  0  0  0  0  0  0  0
    0.5398   -4.2038    6.3747 N   0  3  0  0  0  0  0  0  0  0  0  0
   -0.3884   -6.2127    2.0751 N   0  3  0  0  0  0  0  0  0  0  0  0
   -3.1166   -2.4728    3.6955 O   0  0  0  0  0  0  0  0  0  0  0  0
   -2.1146   -3.0518    6.3748 O   0  0  0  0  0  0  0  0  0  0  0  0
  1  2  1  0  0  0  0
  3  2  1  1  0  0  0
  3  4  1  0  0  0  0
  3  5  1  0  0  0  0
  4  8  1  0  0  0  0
  5  6  1  0  0  0  0
  5 12  1  6  0  0  0
  6  7  1  6  0  0  0
  6  8  1  0  0  0  0
  8 41  1  1  0  0  0
  9 10  1  0  0  0  0
  9 17  1  0  0  0  0
  9 19  1  6  0  0  0
 10 11  1  0  0  0  0
 11 12  1  6  0  0  0
 11 13  1  0  0  0  0
 13 14  1  6  0  0  0
 13 15  1  0  0  0  0
 15 16  1  1  0  0  0
 15 17  1  0  0  0  0
 17 18  1  6  0  0  0
 19 20  1  0  0  0  0
 21 22  1  0  0  0  0
 21 29  1  0  0  0  0
 21 31  1  1  0  0  0
 22 23  1  0  0  0  0
 23 24  1  1  0  0  0
 23 25  1  0  0  0  0
 25 26  1  6  0  0  0
 25 27  1  0  0  0  0
 27 28  1  6  0  0  0
 27 29  1  0  0  0  0
 29 30  1  1  0  0  0
 31 32  1  0  0  0  0
 33 34  1  0  0  0  0
 33 38  1  0  0  0  0
 33 39  1  1  0  0  0
 34 35  1  0  0  0  0
 35 36  1  0  0  0  0
 35 40  1  6  0  0  0
 36 24  1  1  0  0  0
 36 37  1  0  0  0  0
 37 38  1  0  0  0  0
 37 41  1  6  0  0  0
 38 42  1  1  0  0  0
M  CHG  6  14   1  20   1  26   1  32   1  39   1  40   1
M  END
>  <CHROM.1>
67.66899622,56.43627918,-169.93713143,-64.56000853,-157.35753329,-166.53387581
100.37240793,-88.81111692,-69.42296143,-149.60634045,118.15297657,-40.63116542
74.71079513,4.09528942,88.33311919,-66.48537865,-93.44790494,32.81610030
-31.68722262,-62.33113847,-46.35999012,-36.48001974,-3.90800860,-3.93699253
1.38596645,-2.45591886,0.89747028,2.70687893

>  <Name>


>  <RI>
0

>  <Rbt.Current_Directory>
/home/itssahil/PROJECTS/Mol_Feturizer/New_Systems/rnas/1qd3

>  <Rbt.Executable>
rbdock ($Id: //depot/dev/client3/rdock/2013.1/src/exe/rbdock.cxx#4 $)

>  <Rbt.Library>
libRbt.so (2013.1, Build901 2013/11/27)

>  <Rbt.Parameter_File>
/export/apps/rDock/src/rDock_2013.1_src/data/scripts/dock_solv.prm

>  <Rbt.Receptor>
prm/blind_docking_40.prm

>  <SCORE>
-39.2453

>  <SCORE.INTER>
-40.0378

>  <SCORE.INTER.CONST>
1

>  <SCORE.INTER.POLAR>
-6.11331

>  <SCORE.INTER.ROT>
9

>  <SCORE.INTER.SOLV>
39.2343

>  <SCORE.INTER.VDW>
-28.9923

>  <SCORE.INTER.norm>
-0.953282

>  <SCORE.INTRA>
-2.36555

>  <SCORE.INTRA.DIHEDRAL>
1.96664

>  <SCORE.INTRA.DIHEDRAL.0>
40.6252

>  <SCORE.INTRA.POLAR>
-0.296329

>  <SCORE.INTRA.POLAR.0>
-1.20161

>  <SCORE.INTRA.REPUL>
-0.115675

>  <SCORE.INTRA.REPUL.0>
0.115675

>  <SCORE.INTRA.SOLV>
-6.40612

>  <SCORE.INTRA.SOLV.lig_0>
-154.895

>  <SCORE.INTRA.VDW>
1.44009

>  <SCORE.INTRA.VDW.0>
2.2925

>  <SCORE.INTRA.norm>
-0.0563226

>  <SCORE.RESTR>
3.15809

>  <SCORE.RESTR.CAVITY>
3.15809

>  <SCORE.RESTR.norm>
0.0751926

>  <SCORE.SYSTEM>
0

>  <SCORE.SYSTEM.CONST>
0

>  <SCORE.SYSTEM.DIHEDRAL>
0

>  <SCORE.SYSTEM.SOLV>
0

>  <SCORE.SYSTEM.norm>
0

>  <SCORE.heavy>
42

>  <SCORE.norm>
-0.934412

>  <RMSD>
14.160

$$$$

 OpenBabel11021811413D
libRbt.so/2013.1/901 2013/11/27
 42 45  0  0  0  0  0  0  0  0999 V2000
   -3.4765   -4.3996   -2.6520 O   0  0  0  0  0  0  0  0  0  0  0  0
   -3.2418   -5.0092   -1.3906 C   0  0  0  0  0  0  0  0  0  0  0  0
   -3.7776   -6.4414   -1.4001 C   0  0  1  0  0  0  0  0  0  0  0  0
   -3.0277   -7.2885   -0.5026 O   0  0  0  0  0  0  0  0  0  0  0  0
   -5.2264   -6.5465   -0.9536 C   0  0  2  0  0  0  0  0  0  0  0  0
   -5.2980   -8.0201   -0.5899 C   0  0  1  0  0  0  0  0  0  0  0  0
   -5.3931   -8.8037   -1.7744 O   0  0  0  0  0  0  0  0  0  0  0  0
   -3.9324   -8.2567    0.0867 C   0  0  2  0  0  0  0  0  0  0  0  0
   -6.4555   -3.3428   -4.2748 C   0  0  2  0  0  0  0  0  0  0  0  0
   -6.7245   -4.6239   -3.6850 O   0  0  0  0  0  0  0  0  0  0  0  0
   -5.8798   -4.8807   -2.5486 C   0  0  2  0  0  0  0  0  0  0  0  0
   -6.1349   -6.1972   -2.0164 O   0  0  0  0  0  0  0  0  0  0  0  0
   -6.0940   -3.8141   -1.4610 C   0  0  2  0  0  0  0  0  0  0  0  0
   -7.3324   -4.0527   -0.7427 N   0  3  0  0  0  0  0  0  0  0  0  0
   -6.0585   -2.3827   -2.0094 C   0  0  1  0  0  0  0  0  0  0  0  0
   -4.7116   -1.9984   -2.2354 O   0  0  0  0  0  0  0  0  0  0  0  0
   -6.8548   -2.2393   -3.3035 C   0  0  2  0  0  0  0  0  0  0  0  0
   -8.2486   -2.3113   -3.0265 O   0  0  0  0  0  0  0  0  0  0  0  0
   -7.1970   -3.1945   -5.6003 C   0  0  0  0  0  0  0  0  0  0  0  0
   -7.0017   -1.8636   -6.1439 N   0  3  0  0  0  0  0  0  0  0  0  0
   -2.4574   -5.0290    2.8353 C   0  0  1  0  0  0  0  0  0  0  0  0
   -1.6946   -6.2406    3.0155 O   0  0  0  0  0  0  0  0  0  0  0  0
   -1.9528   -6.8976    4.2777 C   0  0  2  0  0  0  0  0  0  0  0  0
   -3.3120   -7.3920    4.3650 O   0  0  0  0  0  0  0  0  0  0  0  0
   -1.6279   -5.9634    5.4496 C   0  0  2  0  0  0  0  0  0  0  0  0
   -2.0868   -6.5518    6.6942 N   0  3  0  0  0  0  0  0  0  0  0  0
   -2.2730   -4.5930    5.2754 C   0  0  1  0  0  0  0  0  0  0  0  0
   -1.7598   -3.6959    6.2481 O   0  0  0  0  0  0  0  0  0  0  0  0
   -2.0669   -4.0046    3.8881 C   0  0  2  0  0  0  0  0  0  0  0  0
   -2.8437   -2.8262    3.7314 O   0  0  0  0  0  0  0  0  0  0  0  0
   -2.1598   -4.4231    1.4668 C   0  0  0  0  0  0  0  0  0  0  0  0
   -0.8218   -3.8616    1.4331 N   0  3  0  0  0  0  0  0  0  0  0  0
   -1.9151  -11.0163    2.6294 C   0  0  2  0  0  0  0  0  0  0  0  0
   -2.5035  -11.0758    4.0252 C   0  0  0  0  0  0  0  0  0  0  0  0
   -2.5703   -9.6872    4.6336 C   0  0  1  0  0  0  0  0  0  0  0  0
   -3.4580   -8.7343    3.8318 C   0  0  2  0  0  0  0  0  0  0  0  0
   -3.0758   -8.7506    2.3336 C   0  0  1  0  0  0  0  0  0  0  0  0
   -2.7566  -10.1236    1.7274 C   0  0  1  0  0  0  0  0  0  0  0  0
   -1.8570  -12.3547    2.0734 N   0  3  0  0  0  0  0  0  0  0  0  0
   -3.0415   -9.7939    6.0006 N   0  3  0  0  0  0  0  0  0  0  0  0
   -4.0663   -8.0697    1.5249 O   0  0  0  0  0  0  0  0  0  0  0  0
   -2.1038   -9.9565    0.4731 O   0  0  0  0  0  0  0  0  0  0  0  0
  1  2  1  0  0  0  0
  3  2  1  1  0  0  0
  3  4  1  0  0  0  0
  3  5  1  0  0  0  0
  4  8  1  0  0  0  0
  5  6  1  0  0  0  0
  5 12  1  6  0  0  0
  6  7  1  6  0  0  0
  6  8  1  0  0  0  0
  8 41  1  1  0  0  0
  9 10  1  0  0  0  0
  9 17  1  0  0  0  0
  9 19  1  6  0  0  0
 10 11  1  0  0  0  0
 11 12  1  1  0  0  0
 11 13  1  0  0  0  0
 13 14  1  6  0  0  0
 13 15  1  0  0  0  0
 15 16  1  6  0  0  0
 15 17  1  0  0  0  0
 17 18  1  1  0  0  0
 19 20  1  0  0  0  0
 21 22  1  0  0  0  0
 21 29  1  0  0  0  0
 21 31  1  6  0  0  0
 22 23  1  0  0  0  0
 23 24  1  6  0  0  0
 23 25  1  0  0  0  0
 25 26  1  1  0  0  0
 25 27  1  0  0  0  0
 27 28  1  1  0  0  0
 27 29  1  0  0  0  0
 29 30  1  1  0  0  0
 31 32  1  0  0  0  0
 33 34  1  0  0  0  0
 33 38  1  0  0  0  0
 33 39  1  6  0  0  0
 34 35  1  0  0  0  0
 35 36  1  0  0  0  0
 35 40  1  1  0  0  0
 36 24  1  1  0  0  0
 36 37  1  0  0  0  0
 37 38  1  0  0  0  0
 37 41  1  6  0  0  0
 38 42  1  6  0  0  0
M  CHG  6  14   1  20   1  26   1  32   1  39   1  40   1
M  END
>  <CHROM.1>
-64.83793037,150.95793254,-56.01889401,-176.04285963,-86.88902081,175.80526260
174.63961594,-49.33965805,-47.26659311,37.95049392,59.74218906,-71.36405832
88.12593298,60.71669063,-50.67870240,-171.96632605,60.82084444,75.04148228
-179.71556165,-40.34545779,-168.47832763,-174.37110983,-3.92336087,-6.08490953
0.74225895,2.78001163,-1.11391857,0.15638352

>  <Name>


>  <RI>
0

>  <Rbt.Current_Directory>
/home/itssahil/PROJECTS/Mol_Feturizer/New_Systems/rnas/1qd3

>  <Rbt.Executable>
rbdock ($Id: //depot/dev/client3/rdock/2013.1/src/exe/rbdock.cxx#4 $)

>  <Rbt.Library>
libRbt.so (2013.1, Build901 2013/11/27)

>  <Rbt.Parameter_File>
/export/apps/rDock/src/rDock_2013.1_src/data/scripts/dock_solv.prm

>  <Rbt.Receptor>
prm/blind_docking_60.prm

>  <SCORE>
-36.6847

>  <SCORE.INTER>
-36.6166

>  <SCORE.INTER.CONST>
1

>  <SCORE.INTER.POLAR>
-5.1041

>  <SCORE.INTER.ROT>
9

>  <SCORE.INTER.SOLV>
25.2498

>  <SCORE.INTER.VDW>
-25.414

>  <SCORE.INTER.norm>
-0.871824

>  <SCORE.INTRA>
-2.26118

>  <SCORE.INTRA.DIHEDRAL>
-23.9035

>  <SCORE.INTRA.DIHEDRAL.0>
40.6252

>  <SCORE.INTRA.POLAR>
0.645195

>  <SCORE.INTRA.POLAR.0>
-1.20161

>  <SCORE.INTRA.REPUL>
-0.115675

>  <SCORE.INTRA.REPUL.0>
0.115675

>  <SCORE.INTRA.SOLV>
-3.94954

>  <SCORE.INTRA.SOLV.lig_0>
-154.895

>  <SCORE.INTRA.VDW>
10.05

>  <SCORE.INTRA.VDW.0>
2.2925

>  <SCORE.INTRA.norm>
-0.0538377

>  <SCORE.RESTR>
2.19309

>  <SCORE.RESTR.CAVITY>
2.19309

>  <SCORE.RESTR.norm>
0.0522165

>  <SCORE.SYSTEM>
0

>  <SCORE.SYSTEM.CONST>
0

>  <SCORE.SYSTEM.DIHEDRAL>
0

>  <SCORE.SYSTEM.SOLV>
0

>  <SCORE.SYSTEM.norm>
0

>  <SCORE.heavy>
42

>  <SCORE.norm>
-0.873446

>  <RMSD>
14.164

$$$$

 OpenBabel11021811413D
libRbt.so/2013.1/901 2013/11/27
 42 45  0  0  0  0  0  0  0  0999 V2000
   -1.5131   -2.9736    0.7161 O   0  0  0  0  0  0  0  0  0  0  0  0
   -1.8558   -2.4314   -0.5513 C   0  0  0  0  0  0  0  0  0  0  0  0
   -3.0973   -3.1374   -1.0978 C   0  0  1  0  0  0  0  0  0  0  0  0
   -2.9073   -4.5680   -1.1507 O   0  0  0  0  0  0  0  0  0  0  0  0
   -4.3391   -2.9167   -0.2500 C   0  0  2  0  0  0  0  0  0  0  0  0
   -5.2023   -4.0774   -0.7155 C   0  0  1  0  0  0  0  0  0  0  0  0
   -5.7679   -3.7766   -1.9864 O   0  0  0  0  0  0  0  0  0  0  0  0
   -4.1711   -5.2156   -0.8569 C   0  0  2  0  0  0  0  0  0  0  0  0
   -3.3420    1.5776   -1.1885 C   0  0  2  0  0  0  0  0  0  0  0  0
   -4.2800    0.4966   -1.3027 O   0  0  0  0  0  0  0  0  0  0  0  0
   -4.0226   -0.5423   -0.3408 C   0  0  2  0  0  0  0  0  0  0  0  0
   -4.9448   -1.6373   -0.5206 O   0  0  0  0  0  0  0  0  0  0  0  0
   -4.1202    0.0083    1.0923 C   0  0  2  0  0  0  0  0  0  0  0  0
   -5.5068    0.1875    1.4817 N   0  3  0  0  0  0  0  0  0  0  0  0
   -3.3345    1.3101    1.2893 C   0  0  1  0  0  0  0  0  0  0  0  0
   -1.9527    1.0122    1.4111 O   0  0  0  0  0  0  0  0  0  0  0  0
   -3.5461    2.2929    0.1409 C   0  0  2  0  0  0  0  0  0  0  0  0
   -4.8577    2.8406    0.2061 O   0  0  0  0  0  0  0  0  0  0  0  0
   -3.4947    2.5478   -2.3565 C   0  0  0  0  0  0  0  0  0  0  0  0
   -2.3924    3.4909   -2.3791 N   0  3  0  0  0  0  0  0  0  0  0  0
   -4.3730   -6.1097    2.9941 C   0  0  1  0  0  0  0  0  0  0  0  0
   -3.5182   -4.9927    2.6723 O   0  0  0  0  0  0  0  0  0  0  0  0
   -2.1160   -5.2584    2.9062 C   0  0  2  0  0  0  0  0  0  0  0  0
   -1.6023   -6.2844    2.0211 O   0  0  0  0  0  0  0  0  0  0  0  0
   -1.8729   -5.6236    4.3756 C   0  0  2  0  0  0  0  0  0  0  0  0
   -0.5102   -6.0902    4.5513 N   0  3  0  0  0  0  0  0  0  0  0  0
   -2.8377   -6.7015    4.8571 C   0  0  1  0  0  0  0  0  0  0  0  0
   -2.7378   -6.8376    6.2662 O   0  0  0  0  0  0  0  0  0  0  0  0
   -4.2845   -6.4246    4.4784 C   0  0  2  0  0  0  0  0  0  0  0  0
   -5.0988   -7.5464    4.7869 O   0  0  0  0  0  0  0  0  0  0  0  0
   -5.8256   -5.7633    2.6800 C   0  0  0  0  0  0  0  0  0  0  0  0
   -6.5891   -6.9632    2.3900 N   0  3  0  0  0  0  0  0  0  0  0  0
   -3.1639   -9.6370   -0.0814 C   0  0  2  0  0  0  0  0  0  0  0  0
   -2.7433   -9.8345    1.3616 C   0  0  0  0  0  0  0  0  0  0  0  0
   -1.8589   -8.6893    1.8189 C   0  0  1  0  0  0  0  0  0  0  0  0
   -2.5682   -7.3358    1.7579 C   0  0  2  0  0  0  0  0  0  0  0  0
   -3.2226   -7.1158    0.3744 C   0  0  1  0  0  0  0  0  0  0  0  0
   -3.9268   -8.3295   -0.2463 C   0  0  1  0  0  0  0  0  0  0  0  0
   -4.0023  -10.7461   -0.4950 N   0  3  0  0  0  0  0  0  0  0  0  0
   -1.3946   -8.9612    3.1654 N   0  3  0  0  0  0  0  0  0  0  0  0
   -4.1163   -5.9756    0.3844 O   0  0  0  0  0  0  0  0  0  0  0  0
   -4.1739   -8.0889   -1.6277 O   0  0  0  0  0  0  0  0  0  0  0  0
  1  2  1  0  0  0  0
  3  2  1  1  0  0  0
  3  4  1  0  0  0  0
  3  5  1  0  0  0  0
  4  8  1  0  0  0  0
  5  6  1  0  0  0  0
  5 12  1  6  0  0  0
  6  7  1  6  0  0  0
  6  8  1  0  0  0  0
  8 41  1  1  0  0  0
  9 10  1  0  0  0  0
  9 17  1  0  0  0  0
  9 19  1  6  0  0  0
 10 11  1  0  0  0  0
 11 12  1  1  0  0  0
 11 13  1  0  0  0  0
 13 14  1  6  0  0  0
 13 15  1  0  0  0  0
 15 16  1  6  0  0  0
 15 17  1  0  0  0  0
 17 18  1  6  0  0  0
 19 20  1  0  0  0  0
 21 22  1  0  0  0  0
 21 29  1  0  0  0  0
 21 31  1  1  0  0  0
 22 23  1  0  0  0  0
 23 24  1  6  0  0  0
 23 25  1  0  0  0  0
 25 26  1  6  0  0  0
 25 27  1  0  0  0  0
 27 28  1  1  0  0  0
 27 29  1  0  0  0  0
 29 30  1  6  0  0  0
 31 32  1  0  0  0  0
 33 34  1  0  0  0  0
 33 38  1  0  0  0  0
 33 39  1  1  0  0  0
 34 35  1  0  0  0  0
 35 36  1  0  0  0  0
 35 40  1  1  0  0  0
 36 24  1  6  0  0  0
 36 37  1  0  0  0  0
 37 38  1  0  0  0  0
 37 41  1  1  0  0  0
 38 42  1  6  0  0  0
M  CHG  6  14   1  20   1  26   1  32   1  39   1  40   1
M  END
>  <CHROM.1>
55.92770595,-55.20484442,-55.82554615,178.55998433,-65.54095404,-169.22221070
144.85434086,73.15723508,64.19153015,52.99724927,164.57887717,153.41928082
-36.52790457,-137.29677130,98.72851844,52.89717389,-154.09389491,88.97878405
66.70450258,-56.32508368,145.83577500,64.12413336,-3.51584549,-4.16040615
1.03561804,-1.75134842,1.31211357,3.01312473

>  <Name>


>  <RI>
0

>  <Rbt.Current_Directory>
/home/itssahil/PROJECTS/Mol_Feturizer/New_Systems/rnas/1qd3

>  <Rbt.Executable>
rbdock ($Id: //depot/dev/client3/rdock/2013.1/src/exe/rbdock.cxx#4 $)

>  <Rbt.Library>
libRbt.so (2013.1, Build901 2013/11/27)

>  <Rbt.Parameter_File>
/export/apps/rDock/src/rDock_2013.1_src/data/scripts/dock_solv.prm

>  <Rbt.Receptor>
prm/blind_docking_20.prm

>  <SCORE>
-47.348

>  <SCORE.INTER>
-41.8323

>  <SCORE.INTER.CONST>
1

>  <SCORE.INTER.POLAR>
-5.51309

>  <SCORE.INTER.ROT>
9

>  <SCORE.INTER.SOLV>
32.2709

>  <SCORE.INTER.VDW>
-29.8682

>  <SCORE.INTER.norm>
-0.996007

>  <SCORE.INTRA>
-6.51796

>  <SCORE.INTRA.DIHEDRAL>
-11.5579

>  <SCORE.INTRA.DIHEDRAL.0>
40.6252

>  <SCORE.INTRA.POLAR>
1.14265

>  <SCORE.INTRA.POLAR.0>
-1.20161

>  <SCORE.INTRA.REPUL>
-0.115675

>  <SCORE.INTRA.REPUL.0>
0.115675

>  <SCORE.INTRA.SOLV>
-3.76444

>  <SCORE.INTRA.SOLV.lig_0>
-154.895

>  <SCORE.INTRA.VDW>
-2.16344

>  <SCORE.INTRA.VDW.0>
2.2925

>  <SCORE.INTRA.norm>
-0.155189

>  <SCORE.RESTR>
1.00224

>  <SCORE.RESTR.CAVITY>
1.00224

>  <SCORE.RESTR.norm>
0.0238628

>  <SCORE.SYSTEM>
0

>  <SCORE.SYSTEM.CONST>
0

>  <SCORE.SYSTEM.DIHEDRAL>
0

>  <SCORE.SYSTEM.SOLV>
0

>  <SCORE.SYSTEM.norm>
0

>  <SCORE.heavy>
42

>  <SCORE.norm>
-1.12733

>  <RMSD>
14.169

$$$$

 OpenBabel11021811413D
libRbt.so/2013.1/901 2013/11/27
 42 45  0  0  0  0  0  0  0  0999 V2000
   -1.5910   -3.4191   -0.9513 O   0  0  0  0  0  0  0  0  0  0  0  0
   -1.5409   -4.8380   -0.9070 C   0  0  0  0  0  0  0  0  0  0  0  0
   -2.9035   -5.4163   -1.2908 C   0  0  1  0  0  0  0  0  0  0  0  0
   -2.8902   -6.8600   -1.2547 O   0  0  0  0  0  0  0  0  0  0  0  0
   -4.0244   -4.9901   -0.3573 C   0  0  2  0  0  0  0  0  0  0  0  0
   -5.0592   -6.0608   -0.6600 C   0  0  1  0  0  0  0  0  0  0  0  0
   -5.7031   -5.7716   -1.8960 O   0  0  0  0  0  0  0  0  0  0  0  0
   -4.1883   -7.3253   -0.8061 C   0  0  2  0  0  0  0  0  0  0  0  0
   -3.6326   -0.3039    0.4766 C   0  0  2  0  0  0  0  0  0  0  0  0
   -4.2849   -1.3391   -0.2746 O   0  0  0  0  0  0  0  0  0  0  0  0
   -3.8684   -2.6513    0.1443 C   0  0  2  0  0  0  0  0  0  0  0  0
   -4.4971   -3.6645   -0.6678 O   0  0  0  0  0  0  0  0  0  0  0  0
   -4.1980   -2.8770    1.6299 C   0  0  2  0  0  0  0  0  0  0  0  0
   -5.6138   -3.1410    1.8088 N   0  3  0  0  0  0  0  0  0  0  0  0
   -3.7505   -1.7165    2.5265 C   0  0  1  0  0  0  0  0  0  0  0  0
   -2.3505   -1.7997    2.7407 O   0  0  0  0  0  0  0  0  0  0  0  0
   -4.0957   -0.3560    1.9269 C   0  0  2  0  0  0  0  0  0  0  0  0
   -5.4993   -0.1347    2.0012 O   0  0  0  0  0  0  0  0  0  0  0  0
   -3.9163    1.0649   -0.1355 C   0  0  0  0  0  0  0  0  0  0  0  0
   -3.0976    1.2718   -1.3153 N   0  3  0  0  0  0  0  0  0  0  0  0
   -3.9805   -6.9423    3.8652 C   0  0  1  0  0  0  0  0  0  0  0  0
   -3.8803   -6.6770    2.4504 O   0  0  0  0  0  0  0  0  0  0  0  0
   -2.5324   -6.3825    2.0169 C   0  0  2  0  0  0  0  0  0  0  0  0
   -1.6527   -7.5247    2.1634 O   0  0  0  0  0  0  0  0  0  0  0  0
   -1.9803   -5.1605    2.7609 C   0  0  2  0  0  0  0  0  0  0  0  0
   -0.5662   -5.0039    2.4754 N   0  3  0  0  0  0  0  0  0  0  0  0
   -2.1770   -5.2800    4.2680 C   0  0  1  0  0  0  0  0  0  0  0  0
   -1.8725   -4.0410    4.8896 O   0  0  0  0  0  0  0  0  0  0  0  0
   -3.5837   -5.7075    4.6576 C   0  0  2  0  0  0  0  0  0  0  0  0
   -3.6486   -5.9814    6.0495 O   0  0  0  0  0  0  0  0  0  0  0  0
   -5.4219   -7.2844    4.2316 C   0  0  0  0  0  0  0  0  0  0  0  0
   -6.2954   -7.1274    3.0831 N   0  3  0  0  0  0  0  0  0  0  0  0
   -2.3476  -11.3887    0.5246 C   0  0  2  0  0  0  0  0  0  0  0  0
   -1.9504  -11.2955    1.9846 C   0  0  0  0  0  0  0  0  0  0  0  0
   -1.3608   -9.9308    2.2890 C   0  0  1  0  0  0  0  0  0  0  0  0
   -2.3500   -8.7918    2.0378 C   0  0  2  0  0  0  0  0  0  0  0  0
   -2.9824   -8.9081    0.6316 C   0  0  1  0  0  0  0  0  0  0  0  0
   -3.3747  -10.3199    0.1762 C   0  0  1  0  0  0  0  0  0  0  0  0
   -2.9020  -12.7025    0.2590 N   0  3  0  0  0  0  0  0  0  0  0  0
   -0.9006   -9.9122    3.6639 N   0  3  0  0  0  0  0  0  0  0  0  0
   -4.1067   -8.0073    0.4783 O   0  0  0  0  0  0  0  0  0  0  0  0
   -3.6150  -10.3242   -1.2271 O   0  0  0  0  0  0  0  0  0  0  0  0
  1  2  1  0  0  0  0
  3  2  1  1  0  0  0
  3  4  1  0  0  0  0
  3  5  1  0  0  0  0
  4  8  1  0  0  0  0
  5  6  1  0  0  0  0
  5 12  1  6  0  0  0
  6  7  1  6  0  0  0
  6  8  1  0  0  0  0
  8 41  1  1  0  0  0
  9 10  1  0  0  0  0
  9 17  1  0  0  0  0
  9 19  1  6  0  0  0
 10 11  1  0  0  0  0
 11 12  1  6  0  0  0
 11 13  1  0  0  0  0
 13 14  1  6  0  0  0
 13 15  1  0  0  0  0
 15 16  1  6  0  0  0
 15 17  1  0  0  0  0
 17 18  1  6  0  0  0
 19 20  1  0  0  0  0
 21 22  1  0  0  0  0
 21 29  1  0  0  0  0
 21 31  1  6  0  0  0
 22 23  1  0  0  0  0
 23 24  1  1  0  0  0
 23 25  1  0  0  0  0
 25 26  1  1  0  0  0
 25 27  1  0  0  0  0
 27 28  1  1  0  0  0
 27 29  1  0  0  0  0
 29 30  1  1  0  0  0
 31 32  1  0  0  0  0
 33 34  1  0  0  0  0
 33 38  1  0  0  0  0
 33 39  1  1  0  0  0
 34 35  1  0  0  0  0
 35 36  1  0  0  0  0
 35 40  1  1  0  0  0
 36 24  1  6  0  0  0
 36 37  1  0  0  0  0
 37 38  1  0  0  0  0
 37 41  1  1  0  0  0
 38 42  1  6  0  0  0
M  CHG  6  14   1  20   1  26   1  32   1  39   1  40   1
M  END
>  <CHROM.1>
-179.19678835,-179.92347694,-95.40602350,84.49219909,-42.11940808,-77.53273478
175.17537921,-174.98423029,-63.93640981,47.00188525,-58.66038079,-5.15109172
29.35304285,-176.64405467,50.45295218,-175.43451673,62.26729630,65.36095739
47.72512338,76.61817893,138.79925476,-57.31218285,-3.34002693,-5.57330097
1.34450391,2.29537185,-1.39043227,0.64205859

>  <Name>


>  <RI>
0

>  <Rbt.Current_Directory>
/home/itssahil/PROJECTS/Mol_Feturizer/New_Systems/rnas/1qd3

>  <Rbt.Executable>
rbdock ($Id: //depot/dev/client3/rdock/2013.1/src/exe/rbdock.cxx#4 $)

>  <Rbt.Library>
libRbt.so (2013.1, Build901 2013/11/27)

>  <Rbt.Parameter_File>
/export/apps/rDock/src/rDock_2013.1_src/data/scripts/dock_solv.prm

>  <Rbt.Receptor>
prm/blind_docking_80.prm

>  <SCORE>
-63.3821

>  <SCORE.INTER>
-47.5253

>  <SCORE.INTER.CONST>
1

>  <SCORE.INTER.POLAR>
-5.68224

>  <SCORE.INTER.ROT>
9

>  <SCORE.INTER.SOLV>
29.1485

>  <SCORE.INTER.VDW>
-32.0589

>  <SCORE.INTER.norm>
-1.13155

>  <SCORE.INTRA>
-16.5164

>  <SCORE.INTRA.DIHEDRAL>
-13.0296

>  <SCORE.INTRA.DIHEDRAL.0>
40.6252

>  <SCORE.INTRA.POLAR>
0.387785

>  <SCORE.INTRA.POLAR.0>
-1.20161

>  <SCORE.INTRA.REPUL>
-0.0250943

>  <SCORE.INTRA.REPUL.0>
0.115675

>  <SCORE.INTRA.SOLV>
-6.12478

>  <SCORE.INTRA.SOLV.lig_0>
-154.895

>  <SCORE.INTRA.VDW>
-8.13222

>  <SCORE.INTRA.VDW.0>
2.2925

>  <SCORE.INTRA.norm>
-0.393247

>  <SCORE.RESTR>
0.659549

>  <SCORE.RESTR.CAVITY>
0.659549

>  <SCORE.RESTR.norm>
0.0157036

>  <SCORE.SYSTEM>
0

>  <SCORE.SYSTEM.CONST>
0

>  <SCORE.SYSTEM.DIHEDRAL>
0

>  <SCORE.SYSTEM.SOLV>
0

>  <SCORE.SYSTEM.norm>
0

>  <SCORE.heavy>
42

>  <SCORE.norm>
-1.5091

>  <RMSD>
14.182

$$$$

 OpenBabel11021811413D
libRbt.so/2013.1/901 2013/11/27
 42 45  0  0  0  0  0  0  0  0999 V2000
   -3.5773   -4.4147    2.7684 O   0  0  0  0  0  0  0  0  0  0  0  0
   -4.2671   -5.6011    3.1347 C   0  0  0  0  0  0  0  0  0  0  0  0
   -5.0721   -6.1208    1.9429 C   0  0  1  0  0  0  0  0  0  0  0  0
   -5.9826   -5.1160    1.4460 O   0  0  0  0  0  0  0  0  0  0  0  0
   -4.2075   -6.5172    0.7577 C   0  0  2  0  0  0  0  0  0  0  0  0
   -5.2380   -6.4892   -0.3586 C   0  0  1  0  0  0  0  0  0  0  0  0
   -6.0462   -7.6592   -0.2964 O   0  0  0  0  0  0  0  0  0  0  0  0
   -6.0809   -5.2501    0.0055 C   0  0  2  0  0  0  0  0  0  0  0  0
   -3.2948   -8.7023    4.4697 C   0  0  2  0  0  0  0  0  0  0  0  0
   -3.8808   -8.5943    3.1634 O   0  0  0  0  0  0  0  0  0  0  0  0
   -2.9878   -7.9696    2.2236 C   0  0  2  0  0  0  0  0  0  0  0  0
   -3.6275   -7.8240    0.9386 O   0  0  0  0  0  0  0  0  0  0  0  0
   -1.6896   -8.7832    2.0850 C   0  0  2  0  0  0  0  0  0  0  0  0
   -1.9073   -9.9653    1.2716 N   0  3  0  0  0  0  0  0  0  0  0  0
   -1.0751   -9.1668    3.4363 C   0  0  1  0  0  0  0  0  0  0  0  0
   -0.4073   -8.0422    3.9861 O   0  0  0  0  0  0  0  0  0  0  0  0
   -2.1219   -9.6732    4.4249 C   0  0  2  0  0  0  0  0  0  0  0  0
   -2.5709  -10.9663    4.0366 O   0  0  0  0  0  0  0  0  0  0  0  0
   -4.3355   -9.1543    5.4903 C   0  0  0  0  0  0  0  0  0  0  0  0
   -4.6010   -8.0955    6.4460 N   0  3  0  0  0  0  0  0  0  0  0  0
   -3.3600    1.0080   -0.2249 C   0  0  1  0  0  0  0  0  0  0  0  0
   -3.1515   -0.2752   -0.8510 O   0  0  0  0  0  0  0  0  0  0  0  0
   -4.0050   -1.3160   -0.3221 C   0  0  2  0  0  0  0  0  0  0  0  0
   -5.4034   -1.0722   -0.6131 O   0  0  0  0  0  0  0  0  0  0  0  0
   -3.7758   -1.4893    1.1843 C   0  0  2  0  0  0  0  0  0  0  0  0
   -4.7782   -2.3801    1.7386 N   0  3  0  0  0  0  0  0  0  0  0  0
   -3.8284   -0.1555    1.9210 C   0  0  1  0  0  0  0  0  0  0  0  0
   -3.3813   -0.3293    3.2567 O   0  0  0  0  0  0  0  0  0  0  0  0
   -3.0042    0.9331    1.2509 C   0  0  2  0  0  0  0  0  0  0  0  0
   -3.2438    2.1870    1.8730 O   0  0  0  0  0  0  0  0  0  0  0  0
   -2.4549    2.0556   -0.8669 C   0  0  0  0  0  0  0  0  0  0  0  0
   -2.9264    3.3953   -0.5677 N   0  3  0  0  0  0  0  0  0  0  0  0
   -8.3981   -2.9726   -2.9625 C   0  0  2  0  0  0  0  0  0  0  0  0
   -7.6117   -1.8398   -3.5921 C   0  0  0  0  0  0  0  0  0  0  0  0
   -6.8980   -1.0308   -2.5249 C   0  0  1  0  0  0  0  0  0  0  0  0
   -5.8924   -1.8630   -1.7280 C   0  0  2  0  0  0  0  0  0  0  0  0
   -6.5424   -3.1651   -1.2055 C   0  0  1  0  0  0  0  0  0  0  0  0
   -7.4772   -3.8970   -2.1775 C   0  0  1  0  0  0  0  0  0  0  0  0
   -9.0742   -3.7257   -4.0016 N   0  3  0  0  0  0  0  0  0  0  0  0
   -6.2411    0.0998   -3.1513 N   0  3  0  0  0  0  0  0  0  0  0  0
   -5.5496   -4.0835   -0.6861 O   0  0  0  0  0  0  0  0  0  0  0  0
   -8.2523   -4.8583   -1.4689 O   0  0  0  0  0  0  0  0  0  0  0  0
  1  2  1  0  0  0  0
  3  2  1  1  0  0  0
  3  4  1  0  0  0  0
  3  5  1  0  0  0  0
  4  8  1  0  0  0  0
  5  6  1  0  0  0  0
  5 12  1  1  0  0  0
  6  7  1  1  0  0  0
  6  8  1  0  0  0  0
  8 41  1  6  0  0  0
  9 10  1  0  0  0  0
  9 17  1  0  0  0  0
  9 19  1  1  0  0  0
 10 11  1  0  0  0  0
 11 12  1  6  0  0  0
 11 13  1  0  0  0  0
 13 14  1  1  0  0  0
 13 15  1  0  0  0  0
 15 16  1  1  0  0  0
 15 17  1  0  0  0  0
 17 18  1  6  0  0  0
 19 20  1  0  0  0  0
 21 22  1  0  0  0  0
 21 29  1  0  0  0  0
 21 31  1  6  0  0  0
 22 23  1  0  0  0  0
 23 24  1  1  0  0  0
 23 25  1  0  0  0  0
 25 26  1  1  0  0  0
 25 27  1  0  0  0  0
 27 28  1  1  0  0  0
 27 29  1  0  0  0  0
 29 30  1  1  0  0  0
 31 32  1  0  0  0  0
 33 34  1  0  0  0  0
 33 38  1  0  0  0  0
 33 39  1  6  0  0  0
 34 35  1  0  0  0  0
 35 36  1  0  0  0  0
 35 40  1  6  0  0  0
 36 24  1  1  0  0  0
 36 37  1  0  0  0  0
 37 38  1  0  0  0  0
 37 41  1  6  0  0  0
 38 42  1  1  0  0  0
M  CHG  6  14   1  20   1  26   1  32   1  39   1  40   1
M  END
>  <CHROM.1>
-55.90760932,-56.26922647,-49.65988485,-22.27938507,-102.70290954,-113.29044520
96.11125728,19.92351524,-61.72076414,48.91932371,31.96171093,162.06637373
101.10166308,-143.94056976,-69.44294567,40.52402361,58.24741149,68.76872276
-75.97554087,76.44354213,171.35811447,-59.69054834,-4.48150338,-4.25571998
0.86990039,-1.26106146,-0.81556185,-0.24660650

>  <Name>


>  <RI>
0

>  <Rbt.Current_Directory>
/home/itssahil/PROJECTS/Mol_Feturizer/New_Systems/rnas/1qd3

>  <Rbt.Executable>
rbdock ($Id: //depot/dev/client3/rdock/2013.1/src/exe/rbdock.cxx#4 $)

>  <Rbt.Library>
libRbt.so (2013.1, Build901 2013/11/27)

>  <Rbt.Parameter_File>
/export/apps/rDock/src/rDock_2013.1_src/data/scripts/dock_solv.prm

>  <Rbt.Receptor>
prm/blind_docking_100.prm

>  <SCORE>
-50.38

>  <SCORE.INTER>
-42.4381

>  <SCORE.INTER.CONST>
1

>  <SCORE.INTER.POLAR>
-5.88252

>  <SCORE.INTER.ROT>
9

>  <SCORE.INTER.SOLV>
24.2703

>  <SCORE.INTER.VDW>
-26.3738

>  <SCORE.INTER.norm>
-1.01043

>  <SCORE.INTRA>
-11.0882

>  <SCORE.INTRA.DIHEDRAL>
0.981019

>  <SCORE.INTRA.DIHEDRAL.0>
40.6252

>  <SCORE.INTRA.POLAR>
-1.06558

>  <SCORE.INTRA.POLAR.0>
-1.20161

>  <SCORE.INTRA.REPUL>
-0.115675

>  <SCORE.INTRA.REPUL.0>
0.115675

>  <SCORE.INTRA.SOLV>
-3.92457

>  <SCORE.INTRA.SOLV.lig_0>
-154.895

>  <SCORE.INTRA.VDW>
-5.41502

>  <SCORE.INTRA.VDW.0>
2.2925

>  <SCORE.INTRA.norm>
-0.264004

>  <SCORE.RESTR>
3.14626

>  <SCORE.RESTR.CAVITY>
3.14626

>  <SCORE.RESTR.norm>
0.0749108

>  <SCORE.SYSTEM>
0

>  <SCORE.SYSTEM.CONST>
0

>  <SCORE.SYSTEM.DIHEDRAL>
0

>  <SCORE.SYSTEM.SOLV>
0

>  <SCORE.SYSTEM.norm>
0

>  <SCORE.heavy>
42

>  <SCORE.norm>
-1.19952

>  <RMSD>
14.185

$$$$

 OpenBabel11021811413D
libRbt.so/2013.1/901 2013/11/27
 42 45  0  0  0  0  0  0  0  0999 V2000
   -5.4659   -2.6583    1.6432 O   0  0  0  0  0  0  0  0  0  0  0  0
   -5.5822   -3.2078    0.3385 C   0  0  0  0  0  0  0  0  0  0  0  0
   -4.2386   -3.7926   -0.0985 C   0  0  1  0  0  0  0  0  0  0  0  0
   -3.7460   -4.7519    0.8621 O   0  0  0  0  0  0  0  0  0  0  0  0
   -4.3051   -4.5324   -1.4243 C   0  0  2  0  0  0  0  0  0  0  0  0
   -3.0473   -5.3799   -1.3321 C   0  0  1  0  0  0  0  0  0  0  0  0
   -1.9048   -4.5761   -1.6051 O   0  0  0  0  0  0  0  0  0  0  0  0
   -3.0471   -5.8046    0.1505 C   0  0  2  0  0  0  0  0  0  0  0  0
   -7.3144   -5.1195   -3.9077 C   0  0  2  0  0  0  0  0  0  0  0  0
   -6.3074   -4.7666   -2.9471 O   0  0  0  0  0  0  0  0  0  0  0  0
   -5.3001   -3.9096   -3.5144 C   0  0  2  0  0  0  0  0  0  0  0  0
   -4.2747   -3.6220   -2.5411 O   0  0  0  0  0  0  0  0  0  0  0  0
   -5.9270   -2.6035   -4.0317 C   0  0  2  0  0  0  0  0  0  0  0  0
   -6.2353   -1.7092   -2.9310 N   0  3  0  0  0  0  0  0  0  0  0  0
   -7.1701   -2.8371   -4.8983 C   0  0  1  0  0  0  0  0  0  0  0  0
   -6.7693   -3.2532   -6.1941 O   0  0  0  0  0  0  0  0  0  0  0  0
   -8.1086   -3.8784   -4.2947 C   0  0  2  0  0  0  0  0  0  0  0  0
   -8.7618   -3.3388   -3.1516 O   0  0  0  0  0  0  0  0  0  0  0  0
   -8.2348   -6.2012   -3.3495 C   0  0  0  0  0  0  0  0  0  0  0  0
   -7.4606   -7.3445   -2.9039 N   0  3  0  0  0  0  0  0  0  0  0  0
   -2.7543   -6.6395    5.1226 C   0  0  1  0  0  0  0  0  0  0  0  0
   -3.3238   -6.2180    3.8656 O   0  0  0  0  0  0  0  0  0  0  0  0
   -2.3321   -5.9619    2.8446 C   0  0  2  0  0  0  0  0  0  0  0  0
   -1.6274   -7.1672    2.4570 O   0  0  0  0  0  0  0  0  0  0  0  0
   -1.3542   -4.8727    3.3021 C   0  0  2  0  0  0  0  0  0  0  0  0
   -0.2488   -4.7748    2.3671 N   0  3  0  0  0  0  0  0  0  0  0  0
   -0.8071   -5.1543    4.6971 C   0  0  1  0  0  0  0  0  0  0  0  0
   -0.1014   -4.0183    5.1720 O   0  0  0  0  0  0  0  0  0  0  0  0
   -1.8861   -5.5333    5.6997 C   0  0  2  0  0  0  0  0  0  0  0  0
   -1.2980   -5.9629    6.9189 O   0  0  0  0  0  0  0  0  0  0  0  0
   -3.8649   -6.9289    6.1283 C   0  0  0  0  0  0  0  0  0  0  0  0
   -4.5386   -8.1735    5.8062 N   0  3  0  0  0  0  0  0  0  0  0  0
   -2.7255  -10.7655    0.4706 C   0  0  2  0  0  0  0  0  0  0  0  0
   -2.6332  -10.7872    1.9835 C   0  0  0  0  0  0  0  0  0  0  0  0
   -1.8585   -9.5831    2.4861 C   0  0  1  0  0  0  0  0  0  0  0  0
   -2.5230   -8.2570    2.1137 C   0  0  2  0  0  0  0  0  0  0  0  0
   -2.8563   -8.2096    0.6046 C   0  0  1  0  0  0  0  0  0  0  0  0
   -3.4201   -9.4981   -0.0089 C   0  0  1  0  0  0  0  0  0  0  0  0
   -3.4645  -11.9280    0.0162 N   0  3  0  0  0  0  0  0  0  0  0  0
   -1.7031   -9.6892    3.9238 N   0  3  0  0  0  0  0  0  0  0  0  0
   -3.7186   -7.0900    0.2855 O   0  0  0  0  0  0  0  0  0  0  0  0
   -3.3562   -9.4236   -1.4293 O   0  0  0  0  0  0  0  0  0  0  0  0
  1  2  1  0  0  0  0
  3  2  1  1  0  0  0
  3  4  1  0  0  0  0
  3  5  1  0  0  0  0
  4  8  1  0  0  0  0
  5  6  1  0  0  0  0
  5 12  1  6  0  0  0
  6  7  1  1  0  0  0
  6  8  1  0  0  0  0
  8 41  1  6  0  0  0
  9 10  1  0  0  0  0
  9 17  1  0  0  0  0
  9 19  1  1  0  0  0
 10 11  1  0  0  0  0
 11 12  1  1  0  0  0
 11 13  1  0  0  0  0
 13 14  1  1  0  0  0
 13 15  1  0  0  0  0
 15 16  1  6  0  0  0
 15 17  1  0  0  0  0
 17 18  1  1  0  0  0
 19 20  1  0  0  0  0
 21 22  1  0  0  0  0
 21 29  1  0  0  0  0
 21 31  1  1  0  0  0
 22 23  1  0  0  0  0
 23 24  1  1  0  0  0
 23 25  1  0  0  0  0
 25 26  1  6  0  0  0
 25 27  1  0  0  0  0
 27 28  1  1  0  0  0
 27 29  1  0  0  0  0
 29 30  1  1  0  0  0
 31 32  1  0  0  0  0
 33 34  1  0  0  0  0
 33 38  1  0  0  0  0
 33 39  1  1  0  0  0
 34 35  1  0  0  0  0
 35 36  1  0  0  0  0
 35 40  1  1  0  0  0
 36 24  1  6  0  0  0
 36 37  1  0  0  0  0
 37 38  1  0  0  0  0
 37 41  1  1  0  0  0
 38 42  1  6  0  0  0
M  CHG  6  14   1  20   1  26   1  32   1  39   1  40   1
M  END
>  <CHROM.1>
-60.15388778,54.82623829,-132.11048442,66.23080336,-133.78162098,-54.51188680
16.46283564,68.57961999,-178.79628054,-171.09615257,89.76129847,73.65549949
51.28631553,-148.26694893,40.28755844,63.18561981,-173.71578043,-165.31213526
-63.54925097,58.49120138,80.48960417,176.36247342,-3.94860777,-5.94216553
0.46260843,-2.93034863,1.05781084,-2.97817778

>  <Name>


>  <RI>
0

>  <Rbt.Current_Directory>
/home/itssahil/PROJECTS/Mol_Feturizer/New_Systems/rnas/1qd3

>  <Rbt.Executable>
rbdock ($Id: //depot/dev/client3/rdock/2013.1/src/exe/rbdock.cxx#4 $)

>  <Rbt.Library>
libRbt.so (2013.1, Build901 2013/11/27)

>  <Rbt.Parameter_File>
/export/apps/rDock/src/rDock_2013.1_src/data/scripts/dock_solv.prm

>  <Rbt.Receptor>
prm/blind_docking_40.prm

>  <SCORE>
-39.7341

>  <SCORE.INTER>
-30.3203

>  <SCORE.INTER.CONST>
1

>  <SCORE.INTER.POLAR>
-4.29245

>  <SCORE.INTER.ROT>
9

>  <SCORE.INTER.SOLV>
23.225

>  <SCORE.INTER.VDW>
-23.2471

>  <SCORE.INTER.norm>
-0.721913

>  <SCORE.INTRA>
-13.9849

>  <SCORE.INTRA.DIHEDRAL>
-8.80268

>  <SCORE.INTRA.DIHEDRAL.0>
40.6252

>  <SCORE.INTRA.POLAR>
1.19335

>  <SCORE.INTRA.POLAR.0>
-1.20161

>  <SCORE.INTRA.REPUL>
-0.115675

>  <SCORE.INTRA.REPUL.0>
0.115675

>  <SCORE.INTRA.SOLV>
-10.9019

>  <SCORE.INTRA.SOLV.lig_0>
-154.895

>  <SCORE.INTRA.VDW>
-7.61163

>  <SCORE.INTRA.VDW.0>
2.2925

>  <SCORE.INTRA.norm>
-0.332974

>  <SCORE.RESTR>
4.57121

>  <SCORE.RESTR.CAVITY>
4.57121

>  <SCORE.RESTR.norm>
0.108838

>  <SCORE.SYSTEM>
0

>  <SCORE.SYSTEM.CONST>
0

>  <SCORE.SYSTEM.DIHEDRAL>
0

>  <SCORE.SYSTEM.SOLV>
0

>  <SCORE.SYSTEM.norm>
0

>  <SCORE.heavy>
42

>  <SCORE.norm>
-0.946049

>  <RMSD>
14.189

$$$$

 OpenBabel11021811413D
libRbt.so/2013.1/901 2013/11/27
 42 45  0  0  0  0  0  0  0  0999 V2000
   -6.1386   -3.5606    2.0598 O   0  0  0  0  0  0  0  0  0  0  0  0
   -5.3942   -2.7656    1.1479 C   0  0  0  0  0  0  0  0  0  0  0  0
   -3.9313   -2.7047    1.5889 C   0  0  1  0  0  0  0  0  0  0  0  0
   -3.3989   -4.0261    1.8260 O   0  0  0  0  0  0  0  0  0  0  0  0
   -3.0155   -2.0696    0.5557 C   0  0  2  0  0  0  0  0  0  0  0  0
   -1.6674   -2.5942    1.0206 C   0  0  1  0  0  0  0  0  0  0  0  0
   -1.2313   -1.8583    2.1583 O   0  0  0  0  0  0  0  0  0  0  0  0
   -2.0038   -4.0424    1.4308 C   0  0  2  0  0  0  0  0  0  0  0  0
   -5.7057    1.1722   -1.2091 C   0  0  2  0  0  0  0  0  0  0  0  0
   -4.9467    0.6622   -0.1022 O   0  0  0  0  0  0  0  0  0  0  0  0
   -3.7962   -0.0844   -0.5378 C   0  0  2  0  0  0  0  0  0  0  0  0
   -3.0896   -0.6309    0.5952 O   0  0  0  0  0  0  0  0  0  0  0  0
   -2.8586    0.8025   -1.3749 C   0  0  2  0  0  0  0  0  0  0  0  0
   -2.1002    1.6989   -0.5218 N   0  3  0  0  0  0  0  0  0  0  0  0
   -3.5939    1.5917   -2.4645 C   0  0  1  0  0  0  0  0  0  0  0  0
   -3.8852    0.7309   -3.5540 O   0  0  0  0  0  0  0  0  0  0  0  0
   -4.8861    2.2207   -1.9506 C   0  0  2  0  0  0  0  0  0  0  0  0
   -4.5856    3.3094   -1.0852 O   0  0  0  0  0  0  0  0  0  0  0  0
   -7.0303    1.7581   -0.7285 C   0  0  0  0  0  0  0  0  0  0  0  0
   -6.8141    3.0432   -0.0908 N   0  3  0  0  0  0  0  0  0  0  0  0
   -3.0775   -6.4300    4.1513 C   0  0  1  0  0  0  0  0  0  0  0  0
   -2.1492   -6.0369    3.1189 O   0  0  0  0  0  0  0  0  0  0  0  0
   -1.8731   -7.0891    2.1660 C   0  0  2  0  0  0  0  0  0  0  0  0
   -3.0445   -7.4392    1.3883 O   0  0  0  0  0  0  0  0  0  0  0  0
   -1.2909   -8.3192    2.8729 C   0  0  2  0  0  0  0  0  0  0  0  0
   -1.2165   -9.4339    1.9467 N   0  3  0  0  0  0  0  0  0  0  0  0
   -2.1282   -8.7261    4.0804 C   0  0  1  0  0  0  0  0  0  0  0  0
   -1.4339   -9.7076    4.8346 O   0  0  0  0  0  0  0  0  0  0  0  0
   -2.4867   -7.5562    4.9838 C   0  0  2  0  0  0  0  0  0  0  0  0
   -3.4157   -7.9659    5.9766 O   0  0  0  0  0  0  0  0  0  0  0  0
   -3.3467   -5.2547    5.0867 C   0  0  0  0  0  0  0  0  0  0  0  0
   -2.3685   -4.2017    4.8839 N   0  3  0  0  0  0  0  0  0  0  0  0
   -5.0991   -5.1401   -1.5430 C   0  0  2  0  0  0  0  0  0  0  0  0
   -5.8782   -5.6055   -0.3286 C   0  0  0  0  0  0  0  0  0  0  0  0
   -5.1340   -6.7183    0.3859 C   0  0  1  0  0  0  0  0  0  0  0  0
   -3.7620   -6.2767    0.8972 C   0  0  2  0  0  0  0  0  0  0  0  0
   -2.9483   -5.5902   -0.2242 C   0  0  1  0  0  0  0  0  0  0  0  0
   -3.7226   -4.6307   -1.1375 C   0  0  1  0  0  0  0  0  0  0  0  0
   -5.8334   -4.0820   -2.2101 N   0  3  0  0  0  0  0  0  0  0  0  0
   -5.9523   -7.2063    1.4789 N   0  3  0  0  0  0  0  0  0  0  0  0
   -1.7696   -4.9318    0.3013 O   0  0  0  0  0  0  0  0  0  0  0  0
   -2.9535   -4.3474   -2.3016 O   0  0  0  0  0  0  0  0  0  0  0  0
  1  2  1  0  0  0  0
  3  2  1  6  0  0  0
  3  4  1  0  0  0  0
  3  5  1  0  0  0  0
  4  8  1  0  0  0  0
  5  6  1  0  0  0  0
  5 12  1  1  0  0  0
  6  7  1  1  0  0  0
  6  8  1  0  0  0  0
  8 41  1  6  0  0  0
  9 10  1  0  0  0  0
  9 17  1  0  0  0  0
  9 19  1  1  0  0  0
 10 11  1  0  0  0  0
 11 12  1  1  0  0  0
 11 13  1  0  0  0  0
 13 14  1  1  0  0  0
 13 15  1  0  0  0  0
 15 16  1  6  0  0  0
 15 17  1  0  0  0  0
 17 18  1  1  0  0  0
 19 20  1  0  0  0  0
 21 22  1  0  0  0  0
 21 29  1  0  0  0  0
 21 31  1  1  0  0  0
 22 23  1  0  0  0  0
 23 24  1  1  0  0  0
 23 25  1  0  0  0  0
 25 26  1  6  0  0  0
 25 27  1  0  0  0  0
 27 28  1  1  0  0  0
 27 29  1  0  0  0  0
 29 30  1  1  0  0  0
 31 32  1  0  0  0  0
 33 34  1  0  0  0  0
 33 38  1  0  0  0  0
 33 39  1  1  0  0  0
 34 35  1  0  0  0  0
 35 36  1  0  0  0  0
 35 40  1  1  0  0  0
 36 24  1  6  0  0  0
 36 37  1  0  0  0  0
 37 38  1  0  0  0  0
 37 41  1  1  0  0  0
 38 42  1  6  0  0  0
M  CHG  6  14   1  20   1  26   1  32   1  39   1  40   1
M  END
>  <CHROM.1>
52.68245251,51.35628983,-107.38308965,-34.49103920,1.47000519,75.06226009
120.05804580,-159.35024645,-75.68451365,-165.18271703,161.17392461,-14.05335070
45.44610503,-166.72306293,177.02607151,-136.38657307,-168.89731464,44.42827337
166.73530695,143.72665914,-50.66431569,-4.85891315,-3.59734945,-3.54981707
0.96006280,2.08796639,-1.16046784,0.01273314

>  <Name>


>  <RI>
0

>  <Rbt.Current_Directory>
/home/itssahil/PROJECTS/Mol_Feturizer/New_Systems/rnas/1qd3

>  <Rbt.Executable>
rbdock ($Id: //depot/dev/client3/rdock/2013.1/src/exe/rbdock.cxx#4 $)

>  <Rbt.Library>
libRbt.so (2013.1, Build901 2013/11/27)

>  <Rbt.Parameter_File>
/export/apps/rDock/src/rDock_2013.1_src/data/scripts/dock_solv.prm

>  <Rbt.Receptor>
prm/blind_docking_20.prm

>  <SCORE>
-23.516

>  <SCORE.INTER>
-26.3252

>  <SCORE.INTER.CONST>
1

>  <SCORE.INTER.POLAR>
-4.98352

>  <SCORE.INTER.ROT>
9

>  <SCORE.INTER.SOLV>
33.7237

>  <SCORE.INTER.VDW>
-21.7797

>  <SCORE.INTER.norm>
-0.626792

>  <SCORE.INTRA>
1.31542

>  <SCORE.INTRA.DIHEDRAL>
12.5706

>  <SCORE.INTRA.DIHEDRAL.0>
40.6252

>  <SCORE.INTRA.POLAR>
0.679279

>  <SCORE.INTRA.POLAR.0>
-1.20161

>  <SCORE.INTRA.REPUL>
-0.114506

>  <SCORE.INTRA.REPUL.0>
0.115675

>  <SCORE.INTRA.SOLV>
-3.77112

>  <SCORE.INTRA.SOLV.lig_0>
-154.895

>  <SCORE.INTRA.VDW>
-4.82133

>  <SCORE.INTRA.VDW.0>
2.2925

>  <SCORE.INTRA.norm>
0.0313195

>  <SCORE.RESTR>
1.49384

>  <SCORE.RESTR.CAVITY>
1.49384

>  <SCORE.RESTR.norm>
0.0355676

>  <SCORE.SYSTEM>
0

>  <SCORE.SYSTEM.CONST>
0

>  <SCORE.SYSTEM.DIHEDRAL>
0

>  <SCORE.SYSTEM.SOLV>
0

>  <SCORE.SYSTEM.norm>
0

>  <SCORE.heavy>
42

>  <SCORE.norm>
-0.559904

>  <RMSD>
14.194

$$$$

 OpenBabel11021811413D
libRbt.so/2013.1/901 2013/11/27
 42 45  0  0  0  0  0  0  0  0999 V2000
   -7.3399   -7.8865   -2.0116 O   0  0  0  0  0  0  0  0  0  0  0  0
   -6.1090   -7.2090   -1.8031 C   0  0  0  0  0  0  0  0  0  0  0  0
   -6.0536   -6.6636   -0.3756 C   0  0  1  0  0  0  0  0  0  0  0  0
   -5.6162   -7.6760    0.5567 O   0  0  0  0  0  0  0  0  0  0  0  0
   -5.0858   -5.5037   -0.2100 C   0  0  2  0  0  0  0  0  0  0  0  0
   -4.8767   -5.5300    1.2948 C   0  0  1  0  0  0  0  0  0  0  0  0
   -6.0016   -4.9507    1.9468 O   0  0  0  0  0  0  0  0  0  0  0  0
   -4.8210   -7.0426    1.5908 C   0  0  2  0  0  0  0  0  0  0  0  0
   -6.4257   -4.4699   -4.2312 C   0  0  2  0  0  0  0  0  0  0  0  0
   -6.5981   -4.6051   -2.8122 O   0  0  0  0  0  0  0  0  0  0  0  0
   -5.4852   -4.0595   -2.0811 C   0  0  2  0  0  0  0  0  0  0  0  0
   -5.6627   -4.2635   -0.6639 O   0  0  0  0  0  0  0  0  0  0  0  0
   -5.3159   -2.5617   -2.3881 C   0  0  2  0  0  0  0  0  0  0  0  0
   -6.3139   -1.7761   -1.6856 N   0  3  0  0  0  0  0  0  0  0  0  0
   -5.3459   -2.2500   -3.8890 C   0  0  1  0  0  0  0  0  0  0  0  0
   -4.0959   -2.5926   -4.4661 O   0  0  0  0  0  0  0  0  0  0  0  0
   -6.4642   -2.9955   -4.6123 C   0  0  2  0  0  0  0  0  0  0  0  0
   -7.7249   -2.4331   -4.2674 O   0  0  0  0  0  0  0  0  0  0  0  0
   -7.5001   -5.2529   -4.9806 C   0  0  0  0  0  0  0  0  0  0  0  0
   -7.3738   -6.6726   -4.7098 N   0  3  0  0  0  0  0  0  0  0  0  0
   -1.7409   -5.0139    1.7070 C   0  0  1  0  0  0  0  0  0  0  0  0
   -1.2873   -5.8700    2.7764 O   0  0  0  0  0  0  0  0  0  0  0  0
   -1.8869   -5.5565    4.0545 C   0  0  2  0  0  0  0  0  0  0  0  0
   -3.3136   -5.8097    4.0623 O   0  0  0  0  0  0  0  0  0  0  0  0
   -1.5803   -4.1082    4.4547 C   0  0  2  0  0  0  0  0  0  0  0  0
   -2.3560   -3.7428    5.6253 N   0  3  0  0  0  0  0  0  0  0  0  0
   -1.8887   -3.1324    3.3246 C   0  0  1  0  0  0  0  0  0  0  0  0
   -1.3743   -1.8496    3.6470 O   0  0  0  0  0  0  0  0  0  0  0  0
   -1.3322   -3.5756    1.9803 C   0  0  2  0  0  0  0  0  0  0  0  0
   -1.8101   -2.7293    0.9449 O   0  0  0  0  0  0  0  0  0  0  0  0
   -1.0958   -5.4365    0.3903 C   0  0  0  0  0  0  0  0  0  0  0  0
   -1.7164   -4.7521   -0.7292 N   0  3  0  0  0  0  0  0  0  0  0  0
   -2.4287   -9.9653    4.2801 C   0  0  2  0  0  0  0  0  0  0  0  0
   -3.3597   -9.3801    5.3235 C   0  0  0  0  0  0  0  0  0  0  0  0
   -3.2464   -7.8670    5.3482 C   0  0  1  0  0  0  0  0  0  0  0  0
   -3.6343   -7.2248    4.0155 C   0  0  2  0  0  0  0  0  0  0  0  0
   -2.8874   -7.8959    2.8397 C   0  0  1  0  0  0  0  0  0  0  0  0
   -2.7618   -9.4241    2.8963 C   0  0  1  0  0  0  0  0  0  0  0  0
   -2.5519  -11.4106    4.2808 N   0  3  0  0  0  0  0  0  0  0  0  0
   -4.0717   -7.3501    6.4224 N   0  3  0  0  0  0  0  0  0  0  0  0
   -3.4353   -7.4904    1.5613 O   0  0  0  0  0  0  0  0  0  0  0  0
   -1.7819   -9.8620    1.9608 O   0  0  0  0  0  0  0  0  0  0  0  0
  1  2  1  0  0  0  0
  3  2  1  6  0  0  0
  3  4  1  0  0  0  0
  3  5  1  0  0  0  0
  4  8  1  0  0  0  0
  5  6  1  0  0  0  0
  5 12  1  1  0  0  0
  6  7  1  1  0  0  0
  6  8  1  0  0  0  0
  8 41  1  6  0  0  0
  9 10  1  0  0  0  0
  9 17  1  0  0  0  0
  9 19  1  6  0  0  0
 10 11  1  0  0  0  0
 11 12  1  1  0  0  0
 11 13  1  0  0  0  0
 13 14  1  1  0  0  0
 13 15  1  0  0  0  0
 15 16  1  6  0  0  0
 15 17  1  0  0  0  0
 17 18  1  1  0  0  0
 19 20  1  0  0  0  0
 21 22  1  0  0  0  0
 21 29  1  0  0  0  0
 21 31  1  6  0  0  0
 22 23  1  0  0  0  0
 23 24  1  6  0  0  0
 23 25  1  0  0  0  0
 25 26  1  1  0  0  0
 25 27  1  0  0  0  0
 27 28  1  1  0  0  0
 27 29  1  0  0  0  0
 29 30  1  6  0  0  0
 31 32  1  0  0  0  0
 33 34  1  0  0  0  0
 33 38  1  0  0  0  0
 33 39  1  6  0  0  0
 34 35  1  0  0  0  0
 35 36  1  0  0  0  0
 35 40  1  1  0  0  0
 36 24  1  1  0  0  0
 36 37  1  0  0  0  0
 37 38  1  0  0  0  0
 37 41  1  6  0  0  0
 38 42  1  6  0  0  0
M  CHG  6  14   1  20   1  26   1  32   1  39   1  40   1
M  END
>  <CHROM.1>
-49.99768361,83.43590360,-85.92405406,-53.76984571,-131.42044638,-63.64951211
90.63492470,48.06882148,-48.35438784,39.46823920,68.17667429,169.68443057
69.91017146,70.02281674,5.35196535,-179.03366744,-90.80272198,-127.81244326
-100.12586855,-148.50655247,-24.43812472,-52.97932941,-4.10940125,-5.60041755
0.73274758,2.35900390,-0.95357474,-0.47791003

>  <Name>


>  <RI>
0

>  <Rbt.Current_Directory>
/home/itssahil/PROJECTS/Mol_Feturizer/New_Systems/rnas/1qd3

>  <Rbt.Executable>
rbdock ($Id: //depot/dev/client3/rdock/2013.1/src/exe/rbdock.cxx#4 $)

>  <Rbt.Library>
libRbt.so (2013.1, Build901 2013/11/27)

>  <Rbt.Parameter_File>
/export/apps/rDock/src/rDock_2013.1_src/data/scripts/dock_solv.prm

>  <Rbt.Receptor>
prm/blind_docking_80.prm

>  <SCORE>
-52.8453

>  <SCORE.INTER>
-46.32

>  <SCORE.INTER.CONST>
1

>  <SCORE.INTER.POLAR>
-6.70795

>  <SCORE.INTER.ROT>
9

>  <SCORE.INTER.SOLV>
35.7396

>  <SCORE.INTER.VDW>
-30.0334

>  <SCORE.INTER.norm>
-1.10286

>  <SCORE.INTRA>
-8.20586

>  <SCORE.INTRA.DIHEDRAL>
-0.209129

>  <SCORE.INTRA.DIHEDRAL.0>
40.6252

>  <SCORE.INTRA.POLAR>
-0.141757

>  <SCORE.INTRA.POLAR.0>
-1.20161

>  <SCORE.INTRA.REPUL>
-0.115675

>  <SCORE.INTRA.REPUL.0>
0.115675

>  <SCORE.INTRA.SOLV>
-4.3854

>  <SCORE.INTRA.SOLV.lig_0>
-154.895

>  <SCORE.INTRA.VDW>
-4.84825

>  <SCORE.INTRA.VDW.0>
2.2925

>  <SCORE.INTRA.norm>
-0.195378

>  <SCORE.RESTR>
1.68063

>  <SCORE.RESTR.CAVITY>
1.68063

>  <SCORE.RESTR.norm>
0.0400151

>  <SCORE.SYSTEM>
0

>  <SCORE.SYSTEM.CONST>
0

>  <SCORE.SYSTEM.DIHEDRAL>
0

>  <SCORE.SYSTEM.SOLV>
0

>  <SCORE.SYSTEM.norm>
0

>  <SCORE.heavy>
42

>  <SCORE.norm>
-1.25822

>  <RMSD>
14.217

$$$$

 OpenBabel11021811413D
libRbt.so/2013.1/901 2013/11/27
 42 45  0  0  0  0  0  0  0  0999 V2000
   -0.0714   -3.4120    5.9813 O   0  0  0  0  0  0  0  0  0  0  0  0
   -1.1297   -3.1711    5.0649 C   0  0  0  0  0  0  0  0  0  0  0  0
   -0.9077   -3.9879    3.7913 C   0  0  1  0  0  0  0  0  0  0  0  0
   -1.1735   -5.3899    4.0137 O   0  0  0  0  0  0  0  0  0  0  0  0
   -1.8125   -3.5729    2.6430 C   0  0  2  0  0  0  0  0  0  0  0  0
   -1.7338   -4.8117    1.7667 C   0  0  1  0  0  0  0  0  0  0  0  0
   -0.4990   -4.8224    1.0588 O   0  0  0  0  0  0  0  0  0  0  0  0
   -1.7512   -5.9500    2.8072 C   0  0  2  0  0  0  0  0  0  0  0  0
   -2.9276    0.5274    0.4890 C   0  0  2  0  0  0  0  0  0  0  0  0
   -1.8856   -0.3045    1.0217 O   0  0  0  0  0  0  0  0  0  0  0  0
   -2.3739   -1.6063    1.3926 C   0  0  2  0  0  0  0  0  0  0  0  0
   -1.3165   -2.3951    1.9769 O   0  0  0  0  0  0  0  0  0  0  0  0
   -2.9692   -2.3306    0.1730 C   0  0  2  0  0  0  0  0  0  0  0  0
   -1.9171   -2.8408   -0.6869 N   0  3  0  0  0  0  0  0  0  0  0  0
   -3.9411   -1.4565   -0.6282 C   0  0  1  0  0  0  0  0  0  0  0  0
   -5.1875   -1.3974    0.0471 O   0  0  0  0  0  0  0  0  0  0  0  0
   -3.4071   -0.0424   -0.8399 C   0  0  2  0  0  0  0  0  0  0  0  0
   -2.3380   -0.0626   -1.7786 O   0  0  0  0  0  0  0  0  0  0  0  0
   -2.4363    1.9623    0.3192 C   0  0  0  0  0  0  0  0  0  0  0  0
   -3.5336    2.8317   -0.0615 N   0  3  0  0  0  0  0  0  0  0  0  0
   -4.6142   -5.1672    0.7486 C   0  0  1  0  0  0  0  0  0  0  0  0
   -4.9968   -6.3669    1.4532 O   0  0  0  0  0  0  0  0  0  0  0  0
   -4.8206   -7.5710    0.6718 C   0  0  2  0  0  0  0  0  0  0  0  0
   -3.4248   -7.8330    0.3844 O   0  0  0  0  0  0  0  0  0  0  0  0
   -5.6475   -7.5040   -0.6180 C   0  0  2  0  0  0  0  0  0  0  0  0
   -5.3015   -8.6138   -1.4865 N   0  3  0  0  0  0  0  0  0  0  0  0
   -5.4235   -6.1941   -1.3654 C   0  0  1  0  0  0  0  0  0  0  0  0
   -6.3732   -6.0731   -2.4131 O   0  0  0  0  0  0  0  0  0  0  0  0
   -5.5045   -4.9693   -0.4673 C   0  0  2  0  0  0  0  0  0  0  0  0
   -5.1039   -3.8078   -1.1794 O   0  0  0  0  0  0  0  0  0  0  0  0
   -4.7896   -3.9514    1.6539 C   0  0  0  0  0  0  0  0  0  0  0  0
   -6.1649   -3.8400    2.1044 N   0  3  0  0  0  0  0  0  0  0  0  0
   -2.9651  -10.0809    3.9670 C   0  0  2  0  0  0  0  0  0  0  0  0
   -2.1294  -10.4771    2.7658 C   0  0  0  0  0  0  0  0  0  0  0  0
   -2.6942   -9.8614    1.4990 C   0  0  1  0  0  0  0  0  0  0  0  0
   -2.6970   -8.3325    1.5370 C   0  0  2  0  0  0  0  0  0  0  0  0
   -3.3502   -7.8125    2.8385 C   0  0  1  0  0  0  0  0  0  0  0  0
   -2.9956   -8.5669    4.1267 C   0  0  1  0  0  0  0  0  0  0  0  0
   -2.4084  -10.6860    5.1620 N   0  3  0  0  0  0  0  0  0  0  0  0
   -1.9333  -10.3416    0.3620 N   0  3  0  0  0  0  0  0  0  0  0  0
   -3.1229   -6.3928    3.0168 O   0  0  0  0  0  0  0  0  0  0  0  0
   -3.9083   -8.2115    5.1600 O   0  0  0  0  0  0  0  0  0  0  0  0
  1  2  1  0  0  0  0
  3  2  1  1  0  0  0
  3  4  1  0  0  0  0
  3  5  1  0  0  0  0
  4  8  1  0  0  0  0
  5  6  1  0  0  0  0
  5 12  1  6  0  0  0
  6  7  1  1  0  0  0
  6  8  1  0  0  0  0
  8 41  1  1  0  0  0
  9 10  1  0  0  0  0
  9 17  1  0  0  0  0
  9 19  1  6  0  0  0
 10 11  1  0  0  0  0
 11 12  1  6  0  0  0
 11 13  1  0  0  0  0
 13 14  1  6  0  0  0
 13 15  1  0  0  0  0
 15 16  1  1  0  0  0
 15 17  1  0  0  0  0
 17 18  1  6  0  0  0
 19 20  1  0  0  0  0
 21 22  1  0  0  0  0
 21 29  1  0  0  0  0
 21 31  1  1  0  0  0
 22 23  1  0  0  0  0
 23 24  1  6  0  0  0
 23 25  1  0  0  0  0
 25 26  1  6  0  0  0
 25 27  1  0  0  0  0
 27 28  1  6  0  0  0
 27 29  1  0  0  0  0
 29 30  1  6  0  0  0
 31 32  1  0  0  0  0
 33 34  1  0  0  0  0
 33 38  1  0  0  0  0
 33 39  1  1  0  0  0
 34 35  1  0  0  0  0
 35 36  1  0  0  0  0
 35 40  1  6  0  0  0
 36 24  1  6  0  0  0
 36 37  1  0  0  0  0
 37 38  1  0  0  0  0
 37 41  1  1  0  0  0
 38 42  1  1  0  0  0
M  CHG  6  14   1  20   1  26   1  32   1  39   1  40   1
M  END
>  <CHROM.1>
-175.53420083,73.43793049,-150.93311033,-44.37524030,-117.23553133,-172.99129782
166.42969778,-115.69840615,-177.90456597,159.18212686,-72.61960085,-58.41926078
74.60492938,94.04142647,-150.79027758,68.96857732,-173.49653369,35.18185753
144.27547316,-5.29060355,-46.97738149,71.23247656,-3.18829179,-4.85562888
1.37490467,-1.56065969,0.93471622,2.86157751

>  <Name>


>  <RI>
0

>  <Rbt.Current_Directory>
/home/itssahil/PROJECTS/Mol_Feturizer/New_Systems/rnas/1qd3

>  <Rbt.Executable>
rbdock ($Id: //depot/dev/client3/rdock/2013.1/src/exe/rbdock.cxx#4 $)

>  <Rbt.Library>
libRbt.so (2013.1, Build901 2013/11/27)

>  <Rbt.Parameter_File>
/export/apps/rDock/src/rDock_2013.1_src/data/scripts/dock_solv.prm

>  <Rbt.Receptor>
prm/blind_docking_100.prm

>  <SCORE>
-54.511

>  <SCORE.INTER>
-52.0266

>  <SCORE.INTER.CONST>
1

>  <SCORE.INTER.POLAR>
-8.30997

>  <SCORE.INTER.ROT>
9

>  <SCORE.INTER.SOLV>
30.2096

>  <SCORE.INTER.VDW>
-26.6544

>  <SCORE.INTER.norm>
-1.23873

>  <SCORE.INTRA>
-2.59691

>  <SCORE.INTRA.DIHEDRAL>
-5.29094

>  <SCORE.INTRA.DIHEDRAL.0>
40.6252

>  <SCORE.INTRA.POLAR>
1.03431

>  <SCORE.INTRA.POLAR.0>
-1.20161

>  <SCORE.INTRA.REPUL>
-0.115675

>  <SCORE.INTRA.REPUL.0>
0.115675

>  <SCORE.INTRA.SOLV>
-4.03257

>  <SCORE.INTRA.SOLV.lig_0>
-154.895

>  <SCORE.INTRA.VDW>
-0.873446

>  <SCORE.INTRA.VDW.0>
2.2925

>  <SCORE.INTRA.norm>
-0.0618313

>  <SCORE.RESTR>
0.112498

>  <SCORE.RESTR.CAVITY>
0.112498

>  <SCORE.RESTR.norm>
0.00267852

>  <SCORE.SYSTEM>
0

>  <SCORE.SYSTEM.CONST>
0

>  <SCORE.SYSTEM.DIHEDRAL>
0

>  <SCORE.SYSTEM.SOLV>
0

>  <SCORE.SYSTEM.norm>
0

>  <SCORE.heavy>
42

>  <SCORE.norm>
-1.29788

>  <RMSD>
14.223

$$$$

 OpenBabel11021811413D
libRbt.so/2013.1/901 2013/11/27
 42 45  0  0  0  0  0  0  0  0999 V2000
   -2.6110   -4.2034    0.0727 O   0  0  0  0  0  0  0  0  0  0  0  0
   -1.8520   -4.8695   -0.9262 C   0  0  0  0  0  0  0  0  0  0  0  0
   -2.4014   -6.2807   -1.1386 C   0  0  1  0  0  0  0  0  0  0  0  0
   -2.0178   -7.1613   -0.0601 O   0  0  0  0  0  0  0  0  0  0  0  0
   -3.9190   -6.3351   -1.1965 C   0  0  2  0  0  0  0  0  0  0  0  0
   -4.1548   -7.8075   -0.9044 C   0  0  1  0  0  0  0  0  0  0  0  0
   -3.8793   -8.5788   -2.0685 O   0  0  0  0  0  0  0  0  0  0  0  0
   -3.0975   -8.0992    0.1798 C   0  0  2  0  0  0  0  0  0  0  0  0
   -6.2894   -3.0314   -3.6518 C   0  0  2  0  0  0  0  0  0  0  0  0
   -5.4327   -4.1824   -3.7020 O   0  0  0  0  0  0  0  0  0  0  0  0
   -5.3259   -4.8293   -2.4209 C   0  0  2  0  0  0  0  0  0  0  0  0
   -4.4139   -5.9450   -2.4926 O   0  0  0  0  0  0  0  0  0  0  0  0
   -6.7071   -5.2989   -1.9331 C   0  0  2  0  0  0  0  0  0  0  0  0
   -7.1208   -6.4993   -2.6362 N   0  3  0  0  0  0  0  0  0  0  0  0
   -7.7837   -4.2130   -2.0449 C   0  0  1  0  0  0  0  0  0  0  0  0
   -7.6319   -3.2880   -0.9799 O   0  0  0  0  0  0  0  0  0  0  0  0
   -7.7217   -3.4721   -3.3779 C   0  0  2  0  0  0  0  0  0  0  0  0
   -8.1828   -4.3177   -4.4252 O   0  0  0  0  0  0  0  0  0  0  0  0
   -6.2041   -2.2403   -4.9540 C   0  0  0  0  0  0  0  0  0  0  0  0
   -7.5254   -1.8140   -5.3753 N   0  3  0  0  0  0  0  0  0  0  0  0
   -4.3309   -4.8094    2.2848 C   0  0  1  0  0  0  0  0  0  0  0  0
   -3.4277   -5.8519    1.8609 O   0  0  0  0  0  0  0  0  0  0  0  0
   -2.3396   -6.0782    2.7862 C   0  0  2  0  0  0  0  0  0  0  0  0
   -2.8057   -6.5940    4.0575 O   0  0  0  0  0  0  0  0  0  0  0  0
   -1.5173   -4.7979    2.9769 C   0  0  2  0  0  0  0  0  0  0  0  0
   -0.5660   -4.9766    4.0581 N   0  3  0  0  0  0  0  0  0  0  0  0
   -2.4048   -3.5968    3.2838 C   0  0  1  0  0  0  0  0  0  0  0  0
   -1.6363   -2.4055    3.2181 O   0  0  0  0  0  0  0  0  0  0  0  0
   -3.5991   -3.4788    2.3494 C   0  0  2  0  0  0  0  0  0  0  0  0
   -4.4802   -2.4608    2.8009 O   0  0  0  0  0  0  0  0  0  0  0  0
   -5.4691   -4.6636    1.2789 C   0  0  0  0  0  0  0  0  0  0  0  0
   -6.1696   -5.9234    1.1090 N   0  3  0  0  0  0  0  0  0  0  0  0
   -2.6185  -10.8300    3.7089 C   0  0  2  0  0  0  0  0  0  0  0  0
   -3.2170  -10.2454    4.9731 C   0  0  0  0  0  0  0  0  0  0  0  0
   -2.8443   -8.7808    5.1098 C   0  0  1  0  0  0  0  0  0  0  0  0
   -3.3663   -7.9290    3.9518 C   0  0  2  0  0  0  0  0  0  0  0  0
   -2.9858   -8.5539    2.5897 C   0  0  1  0  0  0  0  0  0  0  0  0
   -3.1146  -10.0790    2.4806 C   0  0  1  0  0  0  0  0  0  0  0  0
   -2.9843  -12.2298    3.6051 N   0  3  0  0  0  0  0  0  0  0  0  0
   -3.3464   -8.2828    6.3756 N   0  3  0  0  0  0  0  0  0  0  0  0
   -3.6924   -7.9173    1.4968 O   0  0  0  0  0  0  0  0  0  0  0  0
   -2.4229  -10.5396    1.3245 O   0  0  0  0  0  0  0  0  0  0  0  0
  1  2  1  0  0  0  0
  3  2  1  1  0  0  0
  3  4  1  0  0  0  0
  3  5  1  0  0  0  0
  4  8  1  0  0  0  0
  5  6  1  0  0  0  0
  5 12  1  6  0  0  0
  6  7  1  6  0  0  0
  6  8  1  0  0  0  0
  8 41  1  1  0  0  0
  9 10  1  0  0  0  0
  9 17  1  0  0  0  0
  9 19  1  6  0  0  0
 10 11  1  0  0  0  0
 11 12  1  6  0  0  0
 11 13  1  0  0  0  0
 13 14  1  6  0  0  0
 13 15  1  0  0  0  0
 15 16  1  1  0  0  0
 15 17  1  0  0  0  0
 17 18  1  6  0  0  0
 19 20  1  0  0  0  0
 21 22  1  0  0  0  0
 21 29  1  0  0  0  0
 21 31  1  6  0  0  0
 22 23  1  0  0  0  0
 23 24  1  1  0  0  0
 23 25  1  0  0  0  0
 25 26  1  1  0  0  0
 25 27  1  0  0  0  0
 27 28  1  6  0  0  0
 27 29  1  0  0  0  0
 29 30  1  1  0  0  0
 31 32  1  0  0  0  0
 33 34  1  0  0  0  0
 33 38  1  0  0  0  0
 33 39  1  6  0  0  0
 34 35  1  0  0  0  0
 35 36  1  0  0  0  0
 35 40  1  1  0  0  0
 36 24  1  6  0  0  0
 36 37  1  0  0  0  0
 37 38  1  0  0  0  0
 37 41  1  6  0  0  0
 38 42  1  6  0  0  0
M  CHG  6  14   1  20   1  26   1  32   1  39   1  40   1
M  END
>  <CHROM.1>
-175.84215962,-75.43573140,-122.46032715,-174.64441713,-82.21028719,137.42461693
160.09971323,4.16326428,62.97685277,60.99212133,-64.78751009,56.84220039
66.65302935,135.97061095,82.35490368,-27.43087197,17.82287150,69.67283579
55.94046767,63.17340720,160.09453639,-58.97851048,-4.14939623,-6.02691016
0.55058892,-2.65304426,1.06755830,-3.10717872

>  <Name>


>  <RI>
0

>  <Rbt.Current_Directory>
/home/itssahil/PROJECTS/Mol_Feturizer/New_Systems/rnas/1qd3

>  <Rbt.Executable>
rbdock ($Id: //depot/dev/client3/rdock/2013.1/src/exe/rbdock.cxx#4 $)

>  <Rbt.Library>
libRbt.so (2013.1, Build901 2013/11/27)

>  <Rbt.Parameter_File>
/export/apps/rDock/src/rDock_2013.1_src/data/scripts/dock_solv.prm

>  <Rbt.Receptor>
prm/blind_docking_100.prm

>  <SCORE>
-21.9981

>  <SCORE.INTER>
-27.2951

>  <SCORE.INTER.CONST>
1

>  <SCORE.INTER.POLAR>
-5.1649

>  <SCORE.INTER.ROT>
9

>  <SCORE.INTER.SOLV>
28.161

>  <SCORE.INTER.VDW>
-19.9674

>  <SCORE.INTER.norm>
-0.649884

>  <SCORE.INTRA>
4.70964

>  <SCORE.INTRA.DIHEDRAL>
-1.04139

>  <SCORE.INTRA.DIHEDRAL.0>
40.6252

>  <SCORE.INTRA.POLAR>
0.330642

>  <SCORE.INTRA.POLAR.0>
-1.20161

>  <SCORE.INTRA.REPUL>
-0.115675

>  <SCORE.INTRA.REPUL.0>
0.115675

>  <SCORE.INTRA.SOLV>
-0.430945

>  <SCORE.INTRA.SOLV.lig_0>
-154.895

>  <SCORE.INTRA.VDW>
4.9

>  <SCORE.INTRA.VDW.0>
2.2925

>  <SCORE.INTRA.norm>
0.112134

>  <SCORE.RESTR>
0.587435

>  <SCORE.RESTR.CAVITY>
0.587435

>  <SCORE.RESTR.norm>
0.0139865

>  <SCORE.SYSTEM>
0

>  <SCORE.SYSTEM.CONST>
0

>  <SCORE.SYSTEM.DIHEDRAL>
0

>  <SCORE.SYSTEM.SOLV>
0

>  <SCORE.SYSTEM.norm>
0

>  <SCORE.heavy>
42

>  <SCORE.norm>
-0.523764

>  <RMSD>
14.230

$$$$

 OpenBabel11021811413D
libRbt.so/2013.1/901 2013/11/27
 42 45  0  0  0  0  0  0  0  0999 V2000
   -5.7460   -3.6790    1.6862 O   0  0  0  0  0  0  0  0  0  0  0  0
   -4.5462   -3.0252    1.2979 C   0  0  0  0  0  0  0  0  0  0  0  0
   -3.4175   -3.4013    2.2586 C   0  0  1  0  0  0  0  0  0  0  0  0
   -3.2929   -4.8344    2.3868 O   0  0  0  0  0  0  0  0  0  0  0  0
   -2.0527   -2.9066    1.8092 C   0  0  2  0  0  0  0  0  0  0  0  0
   -1.1468   -3.8165    2.6218 C   0  0  1  0  0  0  0  0  0  0  0  0
   -1.0936   -3.3628    3.9698 O   0  0  0  0  0  0  0  0  0  0  0  0
   -1.8908   -5.1657    2.5518 C   0  0  2  0  0  0  0  0  0  0  0  0
   -3.5602    1.5883    1.2082 C   0  0  2  0  0  0  0  0  0  0  0  0
   -2.5659    0.7189    1.7712 O   0  0  0  0  0  0  0  0  0  0  0  0
   -2.8470   -0.6661    1.5001 C   0  0  2  0  0  0  0  0  0  0  0  0
   -1.8628   -1.5140    2.1278 O   0  0  0  0  0  0  0  0  0  0  0  0
   -2.8866   -0.9254   -0.0157 C   0  0  2  0  0  0  0  0  0  0  0  0
   -1.5443   -0.9686   -0.5659 N   0  3  0  0  0  0  0  0  0  0  0  0
   -3.7462    0.0915   -0.7758 C   0  0  1  0  0  0  0  0  0  0  0  0
   -5.1176   -0.2286   -0.6031 O   0  0  0  0  0  0  0  0  0  0  0  0
   -3.4935    1.5236   -0.3123 C   0  0  2  0  0  0  0  0  0  0  0  0
   -2.2184    1.9628   -0.7658 O   0  0  0  0  0  0  0  0  0  0  0  0
   -3.3641    3.0194    1.7002 C   0  0  0  0  0  0  0  0  0  0  0  0
   -3.9204    3.9629    0.7488 N   0  3  0  0  0  0  0  0  0  0  0  0
   -4.0116   -7.8692    4.6080 C   0  0  1  0  0  0  0  0  0  0  0  0
   -2.8821   -7.2907    3.9212 O   0  0  0  0  0  0  0  0  0  0  0  0
   -2.4224   -8.0860    2.8042 C   0  0  2  0  0  0  0  0  0  0  0  0
   -3.4069   -8.1531    1.7431 O   0  0  0  0  0  0  0  0  0  0  0  0
   -2.0159   -9.4891    3.2708 C   0  0  2  0  0  0  0  0  0  0  0  0
   -1.7596  -10.3383    2.1223 N   0  3  0  0  0  0  0  0  0  0  0  0
   -3.0936  -10.1306    4.1377 C   0  0  1  0  0  0  0  0  0  0  0  0
   -2.5849  -11.3128    4.7359 O   0  0  0  0  0  0  0  0  0  0  0  0
   -3.6221   -9.2040    5.2218 C   0  0  2  0  0  0  0  0  0  0  0  0
   -4.7441   -9.7885    5.8668 O   0  0  0  0  0  0  0  0  0  0  0  0
   -4.4595   -6.9512    5.7418 C   0  0  0  0  0  0  0  0  0  0  0  0
   -3.4165   -6.8243    6.7431 N   0  3  0  0  0  0  0  0  0  0  0  0
   -3.7395   -5.4473   -1.5230 C   0  0  2  0  0  0  0  0  0  0  0  0
   -4.9916   -5.7611   -0.7281 C   0  0  0  0  0  0  0  0  0  0  0  0
   -4.7907   -7.0109    0.1088 C   0  0  1  0  0  0  0  0  0  0  0  0
   -3.6593   -6.8630    1.1271 C   0  0  2  0  0  0  0  0  0  0  0  0
   -2.3706   -6.3410    0.4507 C   0  0  1  0  0  0  0  0  0  0  0  0
   -2.5515   -5.2326   -0.5949 C   0  0  1  0  0  0  0  0  0  0  0  0
   -3.9594   -4.2538   -2.3174 N   0  3  0  0  0  0  0  0  0  0  0  0
   -6.0365   -7.3372    0.7750 N   0  3  0  0  0  0  0  0  0  0  0  0
   -1.3804   -5.9419    1.4300 O   0  0  0  0  0  0  0  0  0  0  0  0
   -1.3606   -5.0958   -1.3631 O   0  0  0  0  0  0  0  0  0  0  0  0
  1  2  1  0  0  0  0
  3  2  1  6  0  0  0
  3  4  1  0  0  0  0
  3  5  1  0  0  0  0
  4  8  1  0  0  0  0
  5  6  1  0  0  0  0
  5 12  1  1  0  0  0
  6  7  1  1  0  0  0
  6  8  1  0  0  0  0
  8 41  1  6  0  0  0
  9 10  1  0  0  0  0
  9 17  1  0  0  0  0
  9 19  1  6  0  0  0
 10 11  1  0  0  0  0
 11 12  1  1  0  0  0
 11 13  1  0  0  0  0
 13 14  1  6  0  0  0
 13 15  1  0  0  0  0
 15 16  1  1  0  0  0
 15 17  1  0  0  0  0
 17 18  1  1  0  0  0
 19 20  1  0  0  0  0
 21 22  1  0  0  0  0
 21 29  1  0  0  0  0
 21 31  1  1  0  0  0
 22 23  1  0  0  0  0
 23 24  1  6  0  0  0
 23 25  1  0  0  0  0
 25 26  1  6  0  0  0
 25 27  1  0  0  0  0
 27 28  1  1  0  0  0
 27 29  1  0  0  0  0
 29 30  1  6  0  0  0
 31 32  1  0  0  0  0
 33 34  1  0  0  0  0
 33 38  1  0  0  0  0
 33 39  1  1  0  0  0
 34 35  1  0  0  0  0
 35 36  1  0  0  0  0
 35 40  1  1  0  0  0
 36 24  1  6  0  0  0
 36 37  1  0  0  0  0
 37 38  1  0  0  0  0
 37 41  1  1  0  0  0
 38 42  1  6  0  0  0
M  CHG  6  14   1  20   1  26   1  32   1  39   1  40   1
M  END
>  <CHROM.1>
163.21661999,52.70054966,-59.75160648,-172.15845415,-5.72427884,154.78733662
-176.10904081,-176.56591959,60.62696064,-172.26493586,76.40073338,-63.61898067
64.96609056,-175.19689678,171.05815180,58.23168594,-38.24752541,98.21483343
-31.34775408,-179.61374709,-43.87044010,178.68746338,-3.18290877,-4.42505516
1.74100949,1.51505847,-1.48951218,-0.39737864

>  <Name>


>  <RI>
0

>  <Rbt.Current_Directory>
/home/itssahil/PROJECTS/Mol_Feturizer/New_Systems/rnas/1qd3

>  <Rbt.Executable>
rbdock ($Id: //depot/dev/client3/rdock/2013.1/src/exe/rbdock.cxx#4 $)

>  <Rbt.Library>
libRbt.so (2013.1, Build901 2013/11/27)

>  <Rbt.Parameter_File>
/export/apps/rDock/src/rDock_2013.1_src/data/scripts/dock_solv.prm

>  <Rbt.Receptor>
prm/blind_docking_100.prm

>  <SCORE>
-63.8655

>  <SCORE.INTER>
-55.8055

>  <SCORE.INTER.CONST>
1

>  <SCORE.INTER.POLAR>
-8.16927

>  <SCORE.INTER.ROT>
9

>  <SCORE.INTER.SOLV>
37.4569

>  <SCORE.INTER.VDW>
-32.0584

>  <SCORE.INTER.norm>
-1.3287

>  <SCORE.INTRA>
-8.30658

>  <SCORE.INTRA.DIHEDRAL>
-18.4378

>  <SCORE.INTRA.DIHEDRAL.0>
40.6252

>  <SCORE.INTRA.POLAR>
1.14169

>  <SCORE.INTRA.POLAR.0>
-1.20161

>  <SCORE.INTRA.REPUL>
-0.115675

>  <SCORE.INTRA.REPUL.0>
0.115675

>  <SCORE.INTRA.SOLV>
-7.23068

>  <SCORE.INTRA.SOLV.lig_0>
-154.895

>  <SCORE.INTRA.VDW>
1.22429

>  <SCORE.INTRA.VDW.0>
2.2925

>  <SCORE.INTRA.norm>
-0.197776

>  <SCORE.RESTR>
0.246549

>  <SCORE.RESTR.CAVITY>
0.246549

>  <SCORE.RESTR.norm>
0.00587021

>  <SCORE.SYSTEM>
0

>  <SCORE.SYSTEM.CONST>
0

>  <SCORE.SYSTEM.DIHEDRAL>
0

>  <SCORE.SYSTEM.SOLV>
0

>  <SCORE.SYSTEM.norm>
0

>  <SCORE.heavy>
42

>  <SCORE.norm>
-1.52061

>  <RMSD>
14.231

$$$$

 OpenBabel11021811413D
libRbt.so/2013.1/901 2013/11/27
 42 45  0  0  0  0  0  0  0  0999 V2000
   -1.1994   -2.0721    4.6580 O   0  0  0  0  0  0  0  0  0  0  0  0
   -1.9382   -2.3078    3.4679 C   0  0  0  0  0  0  0  0  0  0  0  0
   -1.3032   -3.4565    2.6833 C   0  0  1  0  0  0  0  0  0  0  0  0
   -0.9949   -4.5737    3.5450 O   0  0  0  0  0  0  0  0  0  0  0  0
   -2.2035   -4.0124    1.5924 C   0  0  2  0  0  0  0  0  0  0  0  0
   -1.5598   -5.3702    1.3670 C   0  0  1  0  0  0  0  0  0  0  0  0
   -0.3743   -5.2180    0.5941 O   0  0  0  0  0  0  0  0  0  0  0  0
   -1.1976   -5.8027    2.8024 C   0  0  2  0  0  0  0  0  0  0  0  0
   -3.2340    0.2258   -0.3517 C   0  0  2  0  0  0  0  0  0  0  0  0
   -2.8252   -1.1329   -0.5712 O   0  0  0  0  0  0  0  0  0  0  0  0
   -2.6417   -1.8456    0.6654 C   0  0  2  0  0  0  0  0  0  0  0  0
   -2.1758   -3.1872    0.4112 O   0  0  0  0  0  0  0  0  0  0  0  0
   -3.9509   -1.8788    1.4723 C   0  0  2  0  0  0  0  0  0  0  0  0
   -4.8752   -2.8487    0.9143 N   0  3  0  0  0  0  0  0  0  0  0  0
   -4.6196   -0.5038    1.5871 C   0  0  1  0  0  0  0  0  0  0  0  0
   -3.9417    0.2693    2.5646 O   0  0  0  0  0  0  0  0  0  0  0  0
   -4.6297    0.2472    0.2584 C   0  0  2  0  0  0  0  0  0  0  0  0
   -5.5627   -0.3538   -0.6320 O   0  0  0  0  0  0  0  0  0  0  0  0
   -3.1996    1.0155   -1.6571 C   0  0  0  0  0  0  0  0  0  0  0  0
   -3.2971    0.1194   -2.7939 N   0  3  0  0  0  0  0  0  0  0  0  0
   -4.1712   -7.2068    0.9655 C   0  0  1  0  0  0  0  0  0  0  0  0
   -3.9490   -8.2697    1.9157 O   0  0  0  0  0  0  0  0  0  0  0  0
   -3.0074   -9.2647    1.4523 C   0  0  2  0  0  0  0  0  0  0  0  0
   -1.6722   -8.7216    1.3033 O   0  0  0  0  0  0  0  0  0  0  0  0
   -3.4940   -9.9019    0.1451 C   0  0  2  0  0  0  0  0  0  0  0  0
   -2.4500  -10.7385   -0.4170 N   0  3  0  0  0  0  0  0  0  0  0  0
   -3.8988   -8.8489   -0.8805 C   0  0  1  0  0  0  0  0  0  0  0  0
   -4.5578   -9.4729   -1.9716 O   0  0  0  0  0  0  0  0  0  0  0  0
   -4.7946   -7.7631   -0.3043 C   0  0  2  0  0  0  0  0  0  0  0  0
   -4.9797   -6.7217   -1.2517 O   0  0  0  0  0  0  0  0  0  0  0  0
   -5.1405   -6.1812    1.5463 C   0  0  0  0  0  0  0  0  0  0  0  0
   -6.3554   -6.8265    2.0091 N   0  3  0  0  0  0  0  0  0  0  0  0
   -0.9562   -9.5150    5.4213 C   0  0  2  0  0  0  0  0  0  0  0  0
    0.1282   -9.8801    4.4269 C   0  0  0  0  0  0  0  0  0  0  0  0
   -0.4322   -9.9117    3.0170 C   0  0  1  0  0  0  0  0  0  0  0  0
   -0.9866   -8.5575    2.5724 C   0  0  2  0  0  0  0  0  0  0  0  0
   -1.9611   -7.9850    3.6276 C   0  0  1  0  0  0  0  0  0  0  0  0
   -1.5482   -8.1502    5.0962 C   0  0  1  0  0  0  0  0  0  0  0  0
   -0.3968   -9.4974    6.7594 N   0  3  0  0  0  0  0  0  0  0  0  0
    0.6040  -10.3615    2.1080 N   0  3  0  0  0  0  0  0  0  0  0  0
   -2.2841   -6.5990    3.3563 O   0  0  0  0  0  0  0  0  0  0  0  0
   -2.6652   -7.8976    5.9421 O   0  0  0  0  0  0  0  0  0  0  0  0
  1  2  1  0  0  0  0
  3  2  1  1  0  0  0
  3  4  1  0  0  0  0
  3  5  1  0  0  0  0
  4  8  1  0  0  0  0
  5  6  1  0  0  0  0
  5 12  1  6  0  0  0
  6  7  1  6  0  0  0
  6  8  1  0  0  0  0
  8 41  1  1  0  0  0
  9 10  1  0  0  0  0
  9 17  1  0  0  0  0
  9 19  1  6  0  0  0
 10 11  1  0  0  0  0
 11 12  1  6  0  0  0
 11 13  1  0  0  0  0
 13 14  1  6  0  0  0
 13 15  1  0  0  0  0
 15 16  1  1  0  0  0
 15 17  1  0  0  0  0
 17 18  1  6  0  0  0
 19 20  1  0  0  0  0
 21 22  1  0  0  0  0
 21 29  1  0  0  0  0
 21 31  1  1  0  0  0
 22 23  1  0  0  0  0
 23 24  1  6  0  0  0
 23 25  1  0  0  0  0
 25 26  1  6  0  0  0
 25 27  1  0  0  0  0
 27 28  1  6  0  0  0
 27 29  1  0  0  0  0
 29 30  1  6  0  0  0
 31 32  1  0  0  0  0
 33 34  1  0  0  0  0
 33 38  1  0  0  0  0
 33 39  1  1  0  0  0
 34 35  1  0  0  0  0
 35 36  1  0  0  0  0
 35 40  1  6  0  0  0
 36 24  1  6  0  0  0
 36 37  1  0  0  0  0
 37 38  1  0  0  0  0
 37 41  1  6  0  0  0
 38 42  1  1  0  0  0
M  CHG  6  14   1  20   1  26   1  32   1  39   1  40   1
M  END
>  <CHROM.1>
67.11104727,46.29523106,-61.08802790,-53.20481193,-128.68412327,22.82741377
-169.69091273,142.85016699,-168.15643598,173.95346625,-177.42031742,-52.91623308
76.75555870,79.83781226,-170.91554507,176.75365328,168.78933754,138.83658193
178.49535450,-167.55973673,-35.52772781,60.11832737,-2.74930333,-5.49127354
1.63185652,-2.00812988,1.04386796,-3.06263994

>  <Name>


>  <RI>
0

>  <Rbt.Current_Directory>
/home/itssahil/PROJECTS/Mol_Feturizer/New_Systems/rnas/1qd3

>  <Rbt.Executable>
rbdock ($Id: //depot/dev/client3/rdock/2013.1/src/exe/rbdock.cxx#4 $)

>  <Rbt.Library>
libRbt.so (2013.1, Build901 2013/11/27)

>  <Rbt.Parameter_File>
/export/apps/rDock/src/rDock_2013.1_src/data/scripts/dock_solv.prm

>  <Rbt.Receptor>
prm/blind_docking_80.prm

>  <SCORE>
-57.9545

>  <SCORE.INTER>
-52.5379

>  <SCORE.INTER.CONST>
1

>  <SCORE.INTER.POLAR>
-7.81137

>  <SCORE.INTER.ROT>
9

>  <SCORE.INTER.SOLV>
31.0779

>  <SCORE.INTER.VDW>
-28.9466

>  <SCORE.INTER.norm>
-1.2509

>  <SCORE.INTRA>
-9.44317

>  <SCORE.INTRA.DIHEDRAL>
-13.5472

>  <SCORE.INTRA.DIHEDRAL.0>
40.6252

>  <SCORE.INTRA.POLAR>
1.15927

>  <SCORE.INTRA.POLAR.0>
-1.20161

>  <SCORE.INTRA.REPUL>
-0.111706

>  <SCORE.INTRA.REPUL.0>
0.115675

>  <SCORE.INTRA.SOLV>
-7.65654

>  <SCORE.INTRA.SOLV.lig_0>
-154.895

>  <SCORE.INTRA.VDW>
-2.22428

>  <SCORE.INTRA.VDW.0>
2.2925

>  <SCORE.INTRA.norm>
-0.224837

>  <SCORE.RESTR>
4.02658

>  <SCORE.RESTR.CAVITY>
4.02658

>  <SCORE.RESTR.norm>
0.0958708

>  <SCORE.SYSTEM>
0

>  <SCORE.SYSTEM.CONST>
0

>  <SCORE.SYSTEM.DIHEDRAL>
0

>  <SCORE.SYSTEM.SOLV>
0

>  <SCORE.SYSTEM.norm>
0

>  <SCORE.heavy>
42

>  <SCORE.norm>
-1.37987

>  <RMSD>
14.233

$$$$

 OpenBabel11021811413D
libRbt.so/2013.1/901 2013/11/27
 42 45  0  0  0  0  0  0  0  0999 V2000
   -7.0210   -4.4183    0.2984 O   0  0  0  0  0  0  0  0  0  0  0  0
   -7.4464   -3.8659   -0.9392 C   0  0  0  0  0  0  0  0  0  0  0  0
   -6.2351   -3.3621   -1.7249 C   0  0  1  0  0  0  0  0  0  0  0  0
   -5.3997   -2.5095   -0.9119 O   0  0  0  0  0  0  0  0  0  0  0  0
   -5.3296   -4.4780   -2.2189 C   0  0  2  0  0  0  0  0  0  0  0  0
   -4.0492   -3.7019   -2.4777 C   0  0  1  0  0  0  0  0  0  0  0  0
   -4.1639   -2.9781   -3.6979 O   0  0  0  0  0  0  0  0  0  0  0  0
   -4.0152   -2.7212   -1.2878 C   0  0  2  0  0  0  0  0  0  0  0  0
   -7.5381   -2.7091   -5.6081 C   0  0  2  0  0  0  0  0  0  0  0  0
   -6.4812   -3.5084   -5.0553 O   0  0  0  0  0  0  0  0  0  0  0  0
   -6.9467   -4.3484   -3.9836 C   0  0  2  0  0  0  0  0  0  0  0  0
   -5.8509   -5.0936   -3.4131 O   0  0  0  0  0  0  0  0  0  0  0  0
   -8.0424   -5.3065   -4.4816 C   0  0  2  0  0  0  0  0  0  0  0  0
   -7.4643   -6.3983   -5.2434 N   0  3  0  0  0  0  0  0  0  0  0  0
   -9.1315   -4.6000   -5.2972 C   0  0  1  0  0  0  0  0  0  0  0  0
  -10.0125   -3.9201   -4.4171 O   0  0  0  0  0  0  0  0  0  0  0  0
   -8.5502   -3.6105   -6.3035 C   0  0  2  0  0  0  0  0  0  0  0  0
   -7.9269   -4.3140   -7.3717 O   0  0  0  0  0  0  0  0  0  0  0  0
   -6.9776   -1.6723   -6.5775 C   0  0  0  0  0  0  0  0  0  0  0  0
   -7.7965   -0.4747   -6.5676 N   0  3  0  0  0  0  0  0  0  0  0  0
   -1.5972   -6.4184    4.3546 C   0  0  1  0  0  0  0  0  0  0  0  0
   -1.0830   -5.9371    3.0952 O   0  0  0  0  0  0  0  0  0  0  0  0
   -2.1159   -5.6744    2.1176 C   0  0  2  0  0  0  0  0  0  0  0  0
   -2.9782   -4.5811    2.5185 O   0  0  0  0  0  0  0  0  0  0  0  0
   -2.9281   -6.9441    1.8351 C   0  0  2  0  0  0  0  0  0  0  0  0
   -4.0846   -6.6214    1.0202 N   0  3  0  0  0  0  0  0  0  0  0  0
   -3.3939   -7.6151    3.1225 C   0  0  1  0  0  0  0  0  0  0  0  0
   -3.9299   -8.8956    2.8273 O   0  0  0  0  0  0  0  0  0  0  0  0
   -2.2896   -7.7572    4.1587 C   0  0  2  0  0  0  0  0  0  0  0  0
   -2.8260   -8.2123    5.3924 O   0  0  0  0  0  0  0  0  0  0  0  0
   -0.4514   -6.6294    5.3401 C   0  0  0  0  0  0  0  0  0  0  0  0
   -0.9596   -7.0079    6.6459 N   0  3  0  0  0  0  0  0  0  0  0  0
   -3.0683   -0.3405    2.1881 C   0  0  2  0  0  0  0  0  0  0  0  0
   -2.0066   -0.9633    3.0730 C   0  0  0  0  0  0  0  0  0  0  0  0
   -2.3602   -2.4036    3.3943 C   0  0  1  0  0  0  0  0  0  0  0  0
   -2.4497   -3.2815    2.1453 C   0  0  2  0  0  0  0  0  0  0  0  0
   -3.3570   -2.6311    1.0755 C   0  0  1  0  0  0  0  0  0  0  0  0
   -3.2065   -1.1161    0.8849 C   0  0  1  0  0  0  0  0  0  0  0  0
   -2.7099    1.0353    1.9009 N   0  3  0  0  0  0  0  0  0  0  0  0
   -1.3794   -2.9341    4.3211 N   0  3  0  0  0  0  0  0  0  0  0  0
   -3.2407   -3.3054   -0.2014 O   0  0  0  0  0  0  0  0  0  0  0  0
   -4.3108   -0.6118    0.1410 O   0  0  0  0  0  0  0  0  0  0  0  0
  1  2  1  0  0  0  0
  3  2  1  1  0  0  0
  3  4  1  0  0  0  0
  3  5  1  0  0  0  0
  4  8  1  0  0  0  0
  5  6  1  0  0  0  0
  5 12  1  6  0  0  0
  6  7  1  6  0  0  0
  6  8  1  0  0  0  0
  8 41  1  1  0  0  0
  9 10  1  0  0  0  0
  9 17  1  0  0  0  0
  9 19  1  6  0  0  0
 10 11  1  0  0  0  0
 11 12  1  6  0  0  0
 11 13  1  0  0  0  0
 13 14  1  6  0  0  0
 13 15  1  0  0  0  0
 15 16  1  1  0  0  0
 15 17  1  0  0  0  0
 17 18  1  6  0  0  0
 19 20  1  0  0  0  0
 21 22  1  0  0  0  0
 21 29  1  0  0  0  0
 21 31  1  1  0  0  0
 22 23  1  0  0  0  0
 23 24  1  1  0  0  0
 23 25  1  0  0  0  0
 25 26  1  6  0  0  0
 25 27  1  0  0  0  0
 27 28  1  6  0  0  0
 27 29  1  0  0  0  0
 29 30  1  1  0  0  0
 31 32  1  0  0  0  0
 33 34  1  0  0  0  0
 33 38  1  0  0  0  0
 33 39  1  6  0  0  0
 34 35  1  0  0  0  0
 35 36  1  0  0  0  0
 35 40  1  1  0  0  0
 36 24  1  1  0  0  0
 36 37  1  0  0  0  0
 37 38  1  0  0  0  0
 37 41  1  6  0  0  0
 38 42  1  1  0  0  0
M  CHG  6  14   1  20   1  26   1  32   1  39   1  40   1
M  END
>  <CHROM.1>
63.54149550,-50.53159712,11.04910047,-177.67010963,-50.56251413,-148.70416785
97.77021827,43.49293058,-177.08642240,-171.14515402,94.23749366,175.30910372
85.36624324,-124.86007961,67.91823705,-170.95510428,73.15921084,-53.46698970
-130.19807709,77.46508942,-177.27949829,78.53070321,-4.61685123,-4.12003738
-0.38077499,2.69165587,-0.97355882,-0.31021520

>  <Name>


>  <RI>
0

>  <Rbt.Current_Directory>
/home/itssahil/PROJECTS/Mol_Feturizer/New_Systems/rnas/1qd3

>  <Rbt.Executable>
rbdock ($Id: //depot/dev/client3/rdock/2013.1/src/exe/rbdock.cxx#4 $)

>  <Rbt.Library>
libRbt.so (2013.1, Build901 2013/11/27)

>  <Rbt.Parameter_File>
/export/apps/rDock/src/rDock_2013.1_src/data/scripts/dock_solv.prm

>  <Rbt.Receptor>
prm/blind_docking_40.prm

>  <SCORE>
-29.1377

>  <SCORE.INTER>
-30.3048

>  <SCORE.INTER.CONST>
1

>  <SCORE.INTER.POLAR>
-4.64774

>  <SCORE.INTER.ROT>
9

>  <SCORE.INTER.SOLV>
29.7466

>  <SCORE.INTER.VDW>
-24.2263

>  <SCORE.INTER.norm>
-0.721542

>  <SCORE.INTRA>
-3.45997

>  <SCORE.INTRA.DIHEDRAL>
-3.41529

>  <SCORE.INTRA.DIHEDRAL.0>
40.6252

>  <SCORE.INTRA.POLAR>
0.505084

>  <SCORE.INTRA.POLAR.0>
-1.20161

>  <SCORE.INTRA.REPUL>
0.393475

>  <SCORE.INTRA.REPUL.0>
0.115675

>  <SCORE.INTRA.SOLV>
-6.89514

>  <SCORE.INTRA.SOLV.lig_0>
-154.895

>  <SCORE.INTRA.VDW>
-1.98942

>  <SCORE.INTRA.VDW.0>
2.2925

>  <SCORE.INTRA.norm>
-0.0823802

>  <SCORE.RESTR>
4.62707

>  <SCORE.RESTR.CAVITY>
4.62707

>  <SCORE.RESTR.norm>
0.110168

>  <SCORE.SYSTEM>
0

>  <SCORE.SYSTEM.CONST>
0

>  <SCORE.SYSTEM.DIHEDRAL>
0

>  <SCORE.SYSTEM.SOLV>
0

>  <SCORE.SYSTEM.norm>
0

>  <SCORE.heavy>
42

>  <SCORE.norm>
-0.693754

>  <RMSD>
14.235

$$$$

 OpenBabel11021811413D
libRbt.so/2013.1/901 2013/11/27
 42 45  0  0  0  0  0  0  0  0999 V2000
   -2.7057   -7.8395   -0.0488 O   0  0  0  0  0  0  0  0  0  0  0  0
   -2.1362   -7.0055    0.9501 C   0  0  0  0  0  0  0  0  0  0  0  0
   -3.0983   -5.8640    1.2817 C   0  0  1  0  0  0  0  0  0  0  0  0
   -3.2170   -4.9402    0.1780 O   0  0  0  0  0  0  0  0  0  0  0  0
   -4.5121   -6.3342    1.5808 C   0  0  2  0  0  0  0  0  0  0  0  0
   -5.2846   -5.0434    1.3662 C   0  0  1  0  0  0  0  0  0  0  0  0
   -5.1129   -4.1877    2.4905 O   0  0  0  0  0  0  0  0  0  0  0  0
   -4.5775   -4.4400    0.1355 C   0  0  2  0  0  0  0  0  0  0  0  0
   -1.3901   -6.2044    4.4952 C   0  0  2  0  0  0  0  0  0  0  0  0
   -2.6936   -5.9368    3.9561 O   0  0  0  0  0  0  0  0  0  0  0  0
   -3.3511   -7.1393    3.5173 C   0  0  2  0  0  0  0  0  0  0  0  0
   -4.6315   -6.8294    2.9290 O   0  0  0  0  0  0  0  0  0  0  0  0
   -3.5251   -8.1212    4.6887 C   0  0  2  0  0  0  0  0  0  0  0  0
   -4.6123   -7.7026    5.5542 N   0  3  0  0  0  0  0  0  0  0  0  0
   -2.2394   -8.3213    5.4996 C   0  0  1  0  0  0  0  0  0  0  0  0
   -1.3681   -9.1907    4.7941 O   0  0  0  0  0  0  0  0  0  0  0  0
   -1.5249   -7.0032    5.7853 C   0  0  2  0  0  0  0  0  0  0  0  0
   -2.2544   -6.2547    6.7508 O   0  0  0  0  0  0  0  0  0  0  0  0
   -0.6313   -4.9030    4.7388 C   0  0  0  0  0  0  0  0  0  0  0  0
    0.6322   -5.1694    5.4003 N   0  3  0  0  0  0  0  0  0  0  0  0
   -5.0314    0.5327    0.8615 C   0  0  1  0  0  0  0  0  0  0  0  0
   -5.1626    0.5030   -0.5752 O   0  0  0  0  0  0  0  0  0  0  0  0
   -4.6901   -0.7284   -1.1682 C   0  0  2  0  0  0  0  0  0  0  0  0
   -5.4989   -1.8653   -0.7771 O   0  0  0  0  0  0  0  0  0  0  0  0
   -3.2122   -0.9589   -0.8301 C   0  0  2  0  0  0  0  0  0  0  0  0
   -2.8099   -2.2890   -1.2480 N   0  3  0  0  0  0  0  0  0  0  0  0
   -2.9424   -0.7995    0.6620 C   0  0  1  0  0  0  0  0  0  0  0  0
   -1.5427   -0.7858    0.8959 O   0  0  0  0  0  0  0  0  0  0  0  0
   -3.5649    0.4558    1.2537 C   0  0  2  0  0  0  0  0  0  0  0  0
   -3.4397    0.4491    2.6682 O   0  0  0  0  0  0  0  0  0  0  0  0
   -5.5894    1.8428    1.4100 C   0  0  0  0  0  0  0  0  0  0  0  0
   -6.0480    2.6981    0.3307 N   0  3  0  0  0  0  0  0  0  0  0  0
   -8.4128   -3.9764   -3.0470 C   0  0  2  0  0  0  0  0  0  0  0  0
   -7.8281   -2.7101   -3.6409 C   0  0  0  0  0  0  0  0  0  0  0  0
   -7.1372   -1.8894   -2.5677 C   0  0  1  0  0  0  0  0  0  0  0  0
   -5.9739   -2.6353   -1.9124 C   0  0  2  0  0  0  0  0  0  0  0  0
   -6.4111   -4.0439   -1.4480 C   0  0  1  0  0  0  0  0  0  0  0  0
   -7.3227   -4.8237   -2.4047 C   0  0  1  0  0  0  0  0  0  0  0  0
   -9.0714   -4.7387   -4.0906 N   0  3  0  0  0  0  0  0  0  0  0  0
   -6.6800   -0.6424   -3.1493 N   0  3  0  0  0  0  0  0  0  0  0  0
   -5.2723   -4.8578   -1.0745 O   0  0  0  0  0  0  0  0  0  0  0  0
   -7.9112   -5.9244   -1.7196 O   0  0  0  0  0  0  0  0  0  0  0  0
  1  2  1  0  0  0  0
  3  2  1  6  0  0  0
  3  4  1  0  0  0  0
  3  5  1  0  0  0  0
  4  8  1  0  0  0  0
  5  6  1  0  0  0  0
  5 12  1  1  0  0  0
  6  7  1  1  0  0  0
  6  8  1  0  0  0  0
  8 41  1  6  0  0  0
  9 10  1  0  0  0  0
  9 17  1  0  0  0  0
  9 19  1  1  0  0  0
 10 11  1  0  0  0  0
 11 12  1  1  0  0  0
 11 13  1  0  0  0  0
 13 14  1  1  0  0  0
 13 15  1  0  0  0  0
 15 16  1  6  0  0  0
 15 17  1  0  0  0  0
 17 18  1  1  0  0  0
 19 20  1  0  0  0  0
 21 22  1  0  0  0  0
 21 29  1  0  0  0  0
 21 31  1  6  0  0  0
 22 23  1  0  0  0  0
 23 24  1  1  0  0  0
 23 25  1  0  0  0  0
 25 26  1  1  0  0  0
 25 27  1  0  0  0  0
 27 28  1  6  0  0  0
 27 29  1  0  0  0  0
 29 30  1  1  0  0  0
 31 32  1  0  0  0  0
 33 34  1  0  0  0  0
 33 38  1  0  0  0  0
 33 39  1  6  0  0  0
 34 35  1  0  0  0  0
 35 36  1  0  0  0  0
 35 40  1  6  0  0  0
 36 24  1  1  0  0  0
 36 37  1  0  0  0  0
 37 38  1  0  0  0  0
 37 41  1  6  0  0  0
 38 42  1  1  0  0  0
M  CHG  6  14   1  20   1  26   1  32   1  39   1  40   1
M  END
>  <CHROM.1>
166.24454242,-68.74051956,-17.63022494,63.18247028,-158.31071959,174.57852665
78.43782620,-153.11869739,-57.52004284,-63.94966314,47.31270020,-1.93901480
127.48887682,-76.74632923,151.29282544,49.35253306,60.00234360,-159.32697728
-61.37124968,166.06268425,68.82843076,63.21434399,-4.26285626,-3.94269983
1.07768247,0.80052253,0.89349047,2.95161377

>  <Name>


>  <RI>
0

>  <Rbt.Current_Directory>
/home/itssahil/PROJECTS/Mol_Feturizer/New_Systems/rnas/1qd3

>  <Rbt.Executable>
rbdock ($Id: //depot/dev/client3/rdock/2013.1/src/exe/rbdock.cxx#4 $)

>  <Rbt.Library>
libRbt.so (2013.1, Build901 2013/11/27)

>  <Rbt.Parameter_File>
/export/apps/rDock/src/rDock_2013.1_src/data/scripts/dock_solv.prm

>  <Rbt.Receptor>
prm/blind_docking_80.prm

>  <SCORE>
-52.5137

>  <SCORE.INTER>
-44.6887

>  <SCORE.INTER.CONST>
1

>  <SCORE.INTER.POLAR>
-6.92755

>  <SCORE.INTER.ROT>
9

>  <SCORE.INTER.SOLV>
31.426

>  <SCORE.INTER.VDW>
-26.776

>  <SCORE.INTER.norm>
-1.06402

>  <SCORE.INTRA>
-11.493

>  <SCORE.INTRA.DIHEDRAL>
-9.52841

>  <SCORE.INTRA.DIHEDRAL.0>
40.6252

>  <SCORE.INTRA.POLAR>
-0.630892

>  <SCORE.INTRA.POLAR.0>
-1.20161

>  <SCORE.INTRA.REPUL>
-0.10682

>  <SCORE.INTRA.REPUL.0>
0.115675

>  <SCORE.INTRA.SOLV>
-6.47886

>  <SCORE.INTRA.SOLV.lig_0>
-154.895

>  <SCORE.INTRA.VDW>
-0.810241

>  <SCORE.INTRA.VDW.0>
2.2925

>  <SCORE.INTRA.norm>
-0.273643

>  <SCORE.RESTR>
3.66807

>  <SCORE.RESTR.CAVITY>
3.66807

>  <SCORE.RESTR.norm>
0.087335

>  <SCORE.SYSTEM>
0

>  <SCORE.SYSTEM.CONST>
0

>  <SCORE.SYSTEM.DIHEDRAL>
0

>  <SCORE.SYSTEM.SOLV>
0

>  <SCORE.SYSTEM.norm>
0

>  <SCORE.heavy>
42

>  <SCORE.norm>
-1.25033

>  <RMSD>
14.239

$$$$

 OpenBabel11021811413D
libRbt.so/2013.1/901 2013/11/27
 42 45  0  0  0  0  0  0  0  0999 V2000
   -2.8572   -5.0514   -0.9671 O   0  0  0  0  0  0  0  0  0  0  0  0
   -1.6515   -5.2386   -0.2397 C   0  0  0  0  0  0  0  0  0  0  0  0
   -1.5442   -4.1859    0.8642 C   0  0  1  0  0  0  0  0  0  0  0  0
   -1.8016   -2.8602    0.3524 O   0  0  0  0  0  0  0  0  0  0  0  0
   -2.5393   -4.3928    1.9941 C   0  0  2  0  0  0  0  0  0  0  0  0
   -2.5447   -3.0064    2.6159 C   0  0  1  0  0  0  0  0  0  0  0  0
   -1.3741   -2.8291    3.4060 O   0  0  0  0  0  0  0  0  0  0  0  0
   -2.4833   -2.0915    1.3758 C   0  0  2  0  0  0  0  0  0  0  0  0
   -3.4797   -8.6817    2.0770 C   0  0  2  0  0  0  0  0  0  0  0  0
   -2.5696   -7.5712    2.0807 O   0  0  0  0  0  0  0  0  0  0  0  0
   -2.9952   -6.5303    2.9786 C   0  0  2  0  0  0  0  0  0  0  0  0
   -2.0918   -5.4072    2.9148 O   0  0  0  0  0  0  0  0  0  0  0  0
   -3.0873   -7.0606    4.4197 C   0  0  2  0  0  0  0  0  0  0  0  0
   -1.7661   -7.1885    5.0066 N   0  3  0  0  0  0  0  0  0  0  0  0
   -3.8517   -8.3856    4.5235 C   0  0  1  0  0  0  0  0  0  0  0  0
   -5.2454   -8.1329    4.4411 O   0  0  0  0  0  0  0  0  0  0  0  0
   -3.4463   -9.3741    3.4335 C   0  0  2  0  0  0  0  0  0  0  0  0
   -2.1411   -9.8767    3.6948 O   0  0  0  0  0  0  0  0  0  0  0  0
   -3.1303   -9.6598    0.9590 C   0  0  0  0  0  0  0  0  0  0  0  0
   -1.7522  -10.0970    1.0808 N   0  3  0  0  0  0  0  0  0  0  0  0
   -6.9398   -1.6558   -4.0770 C   0  0  1  0  0  0  0  0  0  0  0  0
   -7.4973   -1.3749   -2.7761 O   0  0  0  0  0  0  0  0  0  0  0  0
   -6.7484   -1.9698   -1.6914 C   0  0  2  0  0  0  0  0  0  0  0  0
   -5.4216   -1.3998   -1.5703 O   0  0  0  0  0  0  0  0  0  0  0  0
   -6.6829   -3.4935   -1.8516 C   0  0  2  0  0  0  0  0  0  0  0  0
   -5.7590   -4.0543   -0.8833 N   0  3  0  0  0  0  0  0  0  0  0  0
   -6.2432   -3.8957   -3.2550 C   0  0  1  0  0  0  0  0  0  0  0  0
   -6.4233   -5.2925   -3.4303 O   0  0  0  0  0  0  0  0  0  0  0  0
   -6.9852   -3.1497   -4.3533 C   0  0  2  0  0  0  0  0  0  0  0  0
   -6.4038   -3.4281   -5.6186 O   0  0  0  0  0  0  0  0  0  0  0  0
   -7.7610   -0.9596   -5.1585 C   0  0  0  0  0  0  0  0  0  0  0  0
   -7.1621   -1.1574   -6.4658 N   0  3  0  0  0  0  0  0  0  0  0  0
   -3.8190    2.0323    0.3667 C   0  0  2  0  0  0  0  0  0  0  0  0
   -5.2619    2.0843   -0.0952 C   0  0  0  0  0  0  0  0  0  0  0  0
   -5.5401    0.9773   -1.0952 C   0  0  1  0  0  0  0  0  0  0  0  0
   -5.3261   -0.4175   -0.5057 C   0  0  2  0  0  0  0  0  0  0  0  0
   -3.9463   -0.5208    0.1845 C   0  0  1  0  0  0  0  0  0  0  0  0
   -3.5095    0.6911    1.0180 C   0  0  1  0  0  0  0  0  0  0  0  0
   -3.5780    3.1023    1.3158 N   0  3  0  0  0  0  0  0  0  0  0  0
   -6.8956    1.1190   -1.5901 N   0  3  0  0  0  0  0  0  0  0  0  0
   -3.8360   -1.7309    0.9734 O   0  0  0  0  0  0  0  0  0  0  0  0
   -2.1168    0.6047    1.3008 O   0  0  0  0  0  0  0  0  0  0  0  0
  1  2  1  0  0  0  0
  3  2  1  6  0  0  0
  3  4  1  0  0  0  0
  3  5  1  0  0  0  0
  4  8  1  0  0  0  0
  5  6  1  0  0  0  0
  5 12  1  1  0  0  0
  6  7  1  1  0  0  0
  6  8  1  0  0  0  0
  8 41  1  6  0  0  0
  9 10  1  0  0  0  0
  9 17  1  0  0  0  0
  9 19  1  6  0  0  0
 10 11  1  0  0  0  0
 11 12  1  1  0  0  0
 11 13  1  0  0  0  0
 13 14  1  6  0  0  0
 13 15  1  0  0  0  0
 15 16  1  6  0  0  0
 15 17  1  0  0  0  0
 17 18  1  1  0  0  0
 19 20  1  0  0  0  0
 21 22  1  0  0  0  0
 21 29  1  0  0  0  0
 21 31  1  6  0  0  0
 22 23  1  0  0  0  0
 23 24  1  6  0  0  0
 23 25  1  0  0  0  0
 25 26  1  1  0  0  0
 25 27  1  0  0  0  0
 27 28  1  6  0  0  0
 27 29  1  0  0  0  0
 29 30  1  6  0  0  0
 31 32  1  0  0  0  0
 33 34  1  0  0  0  0
 33 38  1  0  0  0  0
 33 39  1  1  0  0  0
 34 35  1  0  0  0  0
 35 36  1  0  0  0  0
 35 40  1  1  0  0  0
 36 24  1  6  0  0  0
 36 37  1  0  0  0  0
 37 38  1  0  0  0  0
 37 41  1  1  0  0  0
 38 42  1  6  0  0  0
M  CHG  6  14   1  20   1  26   1  32   1  39   1  40   1
M  END
>  <CHROM.1>
-171.37132999,-48.85788743,-118.37735210,171.29359054,-85.53029022,55.84955994
94.54315111,71.47004218,-82.93237732,177.94676334,151.99309515,176.16474745
100.81871720,-94.76064338,39.95923357,-157.30570203,-174.26927724,-56.55711370
-95.56320621,81.52802545,164.84428921,59.49886797,-4.17506242,-3.63484746
0.17585542,0.87646836,1.01638712,3.11396275

>  <Name>


>  <RI>
0

>  <Rbt.Current_Directory>
/home/itssahil/PROJECTS/Mol_Feturizer/New_Systems/rnas/1qd3

>  <Rbt.Executable>
rbdock ($Id: //depot/dev/client3/rdock/2013.1/src/exe/rbdock.cxx#4 $)

>  <Rbt.Library>
libRbt.so (2013.1, Build901 2013/11/27)

>  <Rbt.Parameter_File>
/export/apps/rDock/src/rDock_2013.1_src/data/scripts/dock_solv.prm

>  <Rbt.Receptor>
prm/blind_docking_20.prm

>  <SCORE>
-57.7813

>  <SCORE.INTER>
-40.4567

>  <SCORE.INTER.CONST>
1

>  <SCORE.INTER.POLAR>
-5.27133

>  <SCORE.INTER.ROT>
9

>  <SCORE.INTER.SOLV>
25.1073

>  <SCORE.INTER.VDW>
-27.3691

>  <SCORE.INTER.norm>
-0.963255

>  <SCORE.INTRA>
-19.5425

>  <SCORE.INTRA.DIHEDRAL>
-3.19312

>  <SCORE.INTRA.DIHEDRAL.0>
40.6252

>  <SCORE.INTRA.POLAR>
-1.99732

>  <SCORE.INTRA.POLAR.0>
-1.20161

>  <SCORE.INTRA.REPUL>
-0.115675

>  <SCORE.INTRA.REPUL.0>
0.115675

>  <SCORE.INTRA.SOLV>
-3.42282

>  <SCORE.INTRA.SOLV.lig_0>
-154.895

>  <SCORE.INTRA.VDW>
-8.86521

>  <SCORE.INTRA.VDW.0>
2.2925

>  <SCORE.INTRA.norm>
-0.465296

>  <SCORE.RESTR>
2.21784

>  <SCORE.RESTR.CAVITY>
2.21784

>  <SCORE.RESTR.norm>
0.0528058

>  <SCORE.SYSTEM>
0

>  <SCORE.SYSTEM.CONST>
0

>  <SCORE.SYSTEM.DIHEDRAL>
0

>  <SCORE.SYSTEM.SOLV>
0

>  <SCORE.SYSTEM.norm>
0

>  <SCORE.heavy>
42

>  <SCORE.norm>
-1.37575

>  <RMSD>
14.241

$$$$

 OpenBabel11021811413D
libRbt.so/2013.1/901 2013/11/27
 42 45  0  0  0  0  0  0  0  0999 V2000
   -5.1952   -6.9742    1.8928 O   0  0  0  0  0  0  0  0  0  0  0  0
   -4.8428   -5.8790    1.0597 C   0  0  0  0  0  0  0  0  0  0  0  0
   -3.3357   -5.8894    0.8007 C   0  0  1  0  0  0  0  0  0  0  0  0
   -3.0296   -5.4373   -0.5362 O   0  0  0  0  0  0  0  0  0  0  0  0
   -2.5568   -4.9772    1.7338 C   0  0  2  0  0  0  0  0  0  0  0  0
   -1.2673   -4.8122    0.9472 C   0  0  1  0  0  0  0  0  0  0  0  0
   -0.4653   -5.9796    1.0881 O   0  0  0  0  0  0  0  0  0  0  0  0
   -1.7807   -4.7010   -0.5028 C   0  0  2  0  0  0  0  0  0  0  0  0
   -3.0882   -9.1389    2.5519 C   0  0  2  0  0  0  0  0  0  0  0  0
   -2.3699   -7.8979    2.4787 O   0  0  0  0  0  0  0  0  0  0  0  0
   -3.0606   -6.8359    3.1613 C   0  0  2  0  0  0  0  0  0  0  0  0
   -2.3425   -5.5926    3.0192 O   0  0  0  0  0  0  0  0  0  0  0  0
   -3.2470   -7.1780    4.6495 C   0  0  2  0  0  0  0  0  0  0  0  0
   -2.0052   -6.9977    5.3787 N   0  3  0  0  0  0  0  0  0  0  0  0
   -3.8025   -8.5891    4.8754 C   0  0  1  0  0  0  0  0  0  0  0  0
   -5.1974   -8.5932    4.6161 O   0  0  0  0  0  0  0  0  0  0  0  0
   -3.1159   -9.6289    3.9940 C   0  0  2  0  0  0  0  0  0  0  0  0
   -1.7910   -9.8603    4.4582 O   0  0  0  0  0  0  0  0  0  0  0  0
   -2.4546  -10.1819    1.6357 C   0  0  0  0  0  0  0  0  0  0  0  0
   -1.0076  -10.0906    1.6887 N   0  3  0  0  0  0  0  0  0  0  0  0
   -6.8863   -4.5841   -2.2961 C   0  0  1  0  0  0  0  0  0  0  0  0
   -5.5277   -4.9468   -1.9723 O   0  0  0  0  0  0  0  0  0  0  0  0
   -4.6305   -3.8140   -1.9157 C   0  0  2  0  0  0  0  0  0  0  0  0
   -4.9597   -2.9136   -0.8292 O   0  0  0  0  0  0  0  0  0  0  0  0
   -4.6083   -3.0746   -3.2590 C   0  0  2  0  0  0  0  0  0  0  0  0
   -3.8752   -1.8292   -3.1270 N   0  3  0  0  0  0  0  0  0  0  0  0
   -6.0159   -2.7763   -3.7632 C   0  0  1  0  0  0  0  0  0  0  0  0
   -5.9553   -2.3109   -5.1026 O   0  0  0  0  0  0  0  0  0  0  0  0
   -6.9472   -3.9765   -3.6879 C   0  0  2  0  0  0  0  0  0  0  0  0
   -8.2789   -3.5875   -3.9909 O   0  0  0  0  0  0  0  0  0  0  0  0
   -7.7731   -5.8260   -2.2937 C   0  0  0  0  0  0  0  0  0  0  0  0
   -7.3508   -6.7612   -3.3202 N   0  3  0  0  0  0  0  0  0  0  0  0
   -2.6687   -1.6783    2.5361 C   0  0  2  0  0  0  0  0  0  0  0  0
   -3.9332   -2.4752    2.7894 C   0  0  0  0  0  0  0  0  0  0  0  0
   -4.8150   -2.4799    1.5544 C   0  0  1  0  0  0  0  0  0  0  0  0
   -4.1340   -3.1243    0.3461 C   0  0  2  0  0  0  0  0  0  0  0  0
   -2.7281   -2.5228    0.1172 C   0  0  1  0  0  0  0  0  0  0  0  0
   -1.8835   -2.2689    1.3727 C   0  0  1  0  0  0  0  0  0  0  0  0
   -1.8475   -1.6847    3.7317 N   0  3  0  0  0  0  0  0  0  0  0  0
   -6.0561   -3.1625    1.8641 N   0  3  0  0  0  0  0  0  0  0  0  0
   -1.9686   -3.2973   -0.8431 O   0  0  0  0  0  0  0  0  0  0  0  0
   -0.7875   -1.4184    1.0524 O   0  0  0  0  0  0  0  0  0  0  0  0
  1  2  1  0  0  0  0
  3  2  1  1  0  0  0
  3  4  1  0  0  0  0
  3  5  1  0  0  0  0
  4  8  1  0  0  0  0
  5  6  1  0  0  0  0
  5 12  1  1  0  0  0
  6  7  1  6  0  0  0
  6  8  1  0  0  0  0
  8 41  1  1  0  0  0
  9 10  1  0  0  0  0
  9 17  1  0  0  0  0
  9 19  1  6  0  0  0
 10 11  1  0  0  0  0
 11 12  1  1  0  0  0
 11 13  1  0  0  0  0
 13 14  1  1  0  0  0
 13 15  1  0  0  0  0
 15 16  1  6  0  0  0
 15 17  1  0  0  0  0
 17 18  1  1  0  0  0
 19 20  1  0  0  0  0
 21 22  1  0  0  0  0
 21 29  1  0  0  0  0
 21 31  1  6  0  0  0
 22 23  1  0  0  0  0
 23 24  1  1  0  0  0
 23 25  1  0  0  0  0
 25 26  1  1  0  0  0
 25 27  1  0  0  0  0
 27 28  1  6  0  0  0
 27 29  1  0  0  0  0
 29 30  1  1  0  0  0
 31 32  1  0  0  0  0
 33 34  1  0  0  0  0
 33 38  1  0  0  0  0
 33 39  1  1  0  0  0
 34 35  1  0  0  0  0
 35 36  1  0  0  0  0
 35 40  1  1  0  0  0
 36 24  1  6  0  0  0
 36 37  1  0  0  0  0
 37 38  1  0  0  0  0
 37 41  1  6  0  0  0
 38 42  1  6  0  0  0
M  CHG  6  14   1  20   1  26   1  32   1  39   1  40   1
M  END
>  <CHROM.1>
-73.62793020,144.52382904,-7.49261731,31.37581044,67.24220750,39.70934231
78.65472352,-171.58813916,56.04763152,-175.54391541,148.52759800,-63.03436353
98.44450270,-162.07048763,-173.83442796,-59.87297969,-172.25364418,179.33367625
-113.54558459,-41.15364708,-57.69774577,86.35210778,-3.79065519,-5.15776203
0.66503839,0.95783912,0.86717061,2.69813158

>  <Name>


>  <RI>
0

>  <Rbt.Current_Directory>
/home/itssahil/PROJECTS/Mol_Feturizer/New_Systems/rnas/1qd3

>  <Rbt.Executable>
rbdock ($Id: //depot/dev/client3/rdock/2013.1/src/exe/rbdock.cxx#4 $)

>  <Rbt.Library>
libRbt.so (2013.1, Build901 2013/11/27)

>  <Rbt.Parameter_File>
/export/apps/rDock/src/rDock_2013.1_src/data/scripts/dock_solv.prm

>  <Rbt.Receptor>
prm/blind_docking_40.prm

>  <SCORE>
-44.9512

>  <SCORE.INTER>
-45.2474

>  <SCORE.INTER.CONST>
1

>  <SCORE.INTER.POLAR>
-6.48031

>  <SCORE.INTER.ROT>
9

>  <SCORE.INTER.SOLV>
31.7178

>  <SCORE.INTER.VDW>
-28.7365

>  <SCORE.INTER.norm>
-1.07732

>  <SCORE.INTRA>
-2.08012

>  <SCORE.INTRA.DIHEDRAL>
-6.70893

>  <SCORE.INTRA.DIHEDRAL.0>
40.6252

>  <SCORE.INTRA.POLAR>
-0.631924

>  <SCORE.INTRA.POLAR.0>
-1.20161

>  <SCORE.INTRA.REPUL>
-0.115675

>  <SCORE.INTRA.REPUL.0>
0.115675

>  <SCORE.INTRA.SOLV>
-2.51922

>  <SCORE.INTRA.SOLV.lig_0>
-154.895

>  <SCORE.INTRA.VDW>
5.26087

>  <SCORE.INTRA.VDW.0>
2.2925

>  <SCORE.INTRA.norm>
-0.0495266

>  <SCORE.RESTR>
2.37629

>  <SCORE.RESTR.CAVITY>
2.37629

>  <SCORE.RESTR.norm>
0.0565782

>  <SCORE.SYSTEM>
0

>  <SCORE.SYSTEM.CONST>
0

>  <SCORE.SYSTEM.DIHEDRAL>
0

>  <SCORE.SYSTEM.SOLV>
0

>  <SCORE.SYSTEM.norm>
0

>  <SCORE.heavy>
42

>  <SCORE.norm>
-1.07027

>  <RMSD>
14.249

$$$$

 OpenBabel11021811413D
libRbt.so/2013.1/901 2013/11/27
 42 45  0  0  0  0  0  0  0  0999 V2000
   -5.8356   -3.6077    2.3669 O   0  0  0  0  0  0  0  0  0  0  0  0
   -5.0479   -2.6194    1.7182 C   0  0  0  0  0  0  0  0  0  0  0  0
   -4.2735   -3.2520    0.5613 C   0  0  1  0  0  0  0  0  0  0  0  0
   -3.3356   -4.2420    1.0364 O   0  0  0  0  0  0  0  0  0  0  0  0
   -5.1634   -3.9722   -0.4381 C   0  0  2  0  0  0  0  0  0  0  0  0
   -4.1446   -4.8704   -1.1194 C   0  0  1  0  0  0  0  0  0  0  0  0
   -3.3750   -4.1096   -2.0440 O   0  0  0  0  0  0  0  0  0  0  0  0
   -3.2572   -5.3129    0.0618 C   0  0  2  0  0  0  0  0  0  0  0  0
   -7.4974   -5.7279   -3.1566 C   0  0  2  0  0  0  0  0  0  0  0  0
   -6.9107   -5.0100   -2.0604 O   0  0  0  0  0  0  0  0  0  0  0  0
   -6.4185   -3.7196   -2.4647 C   0  0  2  0  0  0  0  0  0  0  0  0
   -5.7845   -3.0500   -1.3551 O   0  0  0  0  0  0  0  0  0  0  0  0
   -7.5596   -2.8556   -3.0285 C   0  0  2  0  0  0  0  0  0  0  0  0
   -8.3883   -2.3343   -1.9572 N   0  3  0  0  0  0  0  0  0  0  0  0
   -8.4187   -3.5958   -4.0605 C   0  0  1  0  0  0  0  0  0  0  0  0
   -7.7309   -3.6406   -5.3006 O   0  0  0  0  0  0  0  0  0  0  0  0
   -8.7629   -5.0147   -3.6155 C   0  0  2  0  0  0  0  0  0  0  0  0
   -9.7136   -4.9746   -2.5576 O   0  0  0  0  0  0  0  0  0  0  0  0
   -7.8010   -7.1685   -2.7551 C   0  0  0  0  0  0  0  0  0  0  0  0
   -6.6083   -7.8121   -2.2371 N   0  3  0  0  0  0  0  0  0  0  0  0
   -2.3755   -6.1781    5.7244 C   0  0  1  0  0  0  0  0  0  0  0  0
   -3.2943   -5.9245    4.6411 O   0  0  0  0  0  0  0  0  0  0  0  0
   -2.6480   -5.4290    3.4460 C   0  0  2  0  0  0  0  0  0  0  0  0
   -1.7657   -6.4158    2.8564 O   0  0  0  0  0  0  0  0  0  0  0  0
   -1.8997   -4.1228    3.7383 C   0  0  2  0  0  0  0  0  0  0  0  0
   -1.0876   -3.7504    2.5948 N   0  3  0  0  0  0  0  0  0  0  0  0
   -1.0069   -4.2460    4.9680 C   0  0  1  0  0  0  0  0  0  0  0  0
   -0.5231   -2.9640    5.3379 O   0  0  0  0  0  0  0  0  0  0  0  0
   -1.7086   -4.8828    6.1577 C   0  0  2  0  0  0  0  0  0  0  0  0
   -0.7786   -5.1397    7.1997 O   0  0  0  0  0  0  0  0  0  0  0  0
   -3.1288   -6.7364    6.9283 C   0  0  0  0  0  0  0  0  0  0  0  0
   -4.1064   -7.7244    6.5100 N   0  3  0  0  0  0  0  0  0  0  0  0
   -2.2081  -10.0536    0.6954 C   0  0  2  0  0  0  0  0  0  0  0  0
   -2.1725  -10.1247    2.2093 C   0  0  0  0  0  0  0  0  0  0  0  0
   -1.6163   -8.8373    2.7889 C   0  0  1  0  0  0  0  0  0  0  0  0
   -2.4654   -7.6157    2.4344 C   0  0  2  0  0  0  0  0  0  0  0  0
   -2.7429   -7.5569    0.9144 C   0  0  1  0  0  0  0  0  0  0  0  0
   -3.0735   -8.8901    0.2306 C   0  0  1  0  0  0  0  0  0  0  0  0
   -2.7374  -11.2964    0.1670 N   0  3  0  0  0  0  0  0  0  0  0  0
   -1.5023   -8.9787    4.2274 N   0  3  0  0  0  0  0  0  0  0  0  0
   -3.7570   -6.5720    0.5970 O   0  0  0  0  0  0  0  0  0  0  0  0
   -2.9667   -8.7467   -1.1819 O   0  0  0  0  0  0  0  0  0  0  0  0
  1  2  1  0  0  0  0
  3  2  1  1  0  0  0
  3  4  1  0  0  0  0
  3  5  1  0  0  0  0
  4  8  1  0  0  0  0
  5  6  1  0  0  0  0
  5 12  1  6  0  0  0
  6  7  1  6  0  0  0
  6  8  1  0  0  0  0
  8 41  1  1  0  0  0
  9 10  1  0  0  0  0
  9 17  1  0  0  0  0
  9 19  1  1  0  0  0
 10 11  1  0  0  0  0
 11 12  1  1  0  0  0
 11 13  1  0  0  0  0
 13 14  1  1  0  0  0
 13 15  1  0  0  0  0
 15 16  1  6  0  0  0
 15 17  1  0  0  0  0
 17 18  1  1  0  0  0
 19 20  1  0  0  0  0
 21 22  1  0  0  0  0
 21 29  1  0  0  0  0
 21 31  1  1  0  0  0
 22 23  1  0  0  0  0
 23 24  1  1  0  0  0
 23 25  1  0  0  0  0
 25 26  1  6  0  0  0
 25 27  1  0  0  0  0
 27 28  1  1  0  0  0
 27 29  1  0  0  0  0
 29 30  1  1  0  0  0
 31 32  1  0  0  0  0
 33 34  1  0  0  0  0
 33 38  1  0  0  0  0
 33 39  1  6  0  0  0
 34 35  1  0  0  0  0
 35 36  1  0  0  0  0
 35 40  1  1  0  0  0
 36 24  1  6  0  0  0
 36 37  1  0  0  0  0
 37 38  1  0  0  0  0
 37 41  1  1  0  0  0
 38 42  1  6  0  0  0
M  CHG  6  14   1  20   1  26   1  32   1  39   1  40   1
M  END
>  <CHROM.1>
65.36520967,-63.57379001,168.64770823,66.93499359,-106.12871047,-54.45422822
31.39505898,31.23548293,-173.48750196,48.94422807,58.00669828,42.59839631
61.80066002,-139.37251221,-54.59278135,-170.07798024,65.63447035,147.78613458
-62.58202151,-39.35381745,102.04706805,66.79770500,-4.18452998,-5.69765577
0.98473596,2.99500302,0.94971065,-2.71285765

>  <Name>


>  <RI>
0

>  <Rbt.Current_Directory>
/home/itssahil/PROJECTS/Mol_Feturizer/New_Systems/rnas/1qd3

>  <Rbt.Executable>
rbdock ($Id: //depot/dev/client3/rdock/2013.1/src/exe/rbdock.cxx#4 $)

>  <Rbt.Library>
libRbt.so (2013.1, Build901 2013/11/27)

>  <Rbt.Parameter_File>
/export/apps/rDock/src/rDock_2013.1_src/data/scripts/dock_solv.prm

>  <Rbt.Receptor>
prm/blind_docking_40.prm

>  <SCORE>
-40.9958

>  <SCORE.INTER>
-29.5876

>  <SCORE.INTER.CONST>
1

>  <SCORE.INTER.POLAR>
-4.1231

>  <SCORE.INTER.ROT>
9

>  <SCORE.INTER.SOLV>
23.871

>  <SCORE.INTER.VDW>
-23.5384

>  <SCORE.INTER.norm>
-0.704466

>  <SCORE.INTRA>
-14.8348

>  <SCORE.INTRA.DIHEDRAL>
-9.57315

>  <SCORE.INTRA.DIHEDRAL.0>
40.6252

>  <SCORE.INTRA.POLAR>
0.174303

>  <SCORE.INTRA.POLAR.0>
-1.20161

>  <SCORE.INTRA.REPUL>
-0.115675

>  <SCORE.INTRA.REPUL.0>
0.115675

>  <SCORE.INTRA.SOLV>
-4.29559

>  <SCORE.INTRA.SOLV.lig_0>
-154.895

>  <SCORE.INTRA.VDW>
-7.91469

>  <SCORE.INTRA.VDW.0>
2.2925

>  <SCORE.INTRA.norm>
-0.35321

>  <SCORE.RESTR>
3.42659

>  <SCORE.RESTR.CAVITY>
3.42659

>  <SCORE.RESTR.norm>
0.0815854

>  <SCORE.SYSTEM>
0

>  <SCORE.SYSTEM.CONST>
0

>  <SCORE.SYSTEM.DIHEDRAL>
0

>  <SCORE.SYSTEM.SOLV>
0

>  <SCORE.SYSTEM.norm>
0

>  <SCORE.heavy>
42

>  <SCORE.norm>
-0.97609

>  <RMSD>
14.259

$$$$

 OpenBabel11021811413D
libRbt.so/2013.1/901 2013/11/27
 42 45  0  0  0  0  0  0  0  0999 V2000
   -5.4968   -3.6943    2.5526 O   0  0  0  0  0  0  0  0  0  0  0  0
   -4.8865   -4.9681    2.4020 C   0  0  0  0  0  0  0  0  0  0  0  0
   -5.5417   -5.7224    1.2443 C   0  0  1  0  0  0  0  0  0  0  0  0
   -6.1435   -4.8122    0.2983 O   0  0  0  0  0  0  0  0  0  0  0  0
   -4.5633   -6.5644    0.4423 C   0  0  2  0  0  0  0  0  0  0  0  0
   -5.3486   -6.7506   -0.8452 C   0  0  1  0  0  0  0  0  0  0  0  0
   -6.3571   -7.7368   -0.6550 O   0  0  0  0  0  0  0  0  0  0  0  0
   -5.9994   -5.3652   -1.0344 C   0  0  2  0  0  0  0  0  0  0  0  0
   -3.7701   -7.3548    4.6879 C   0  0  2  0  0  0  0  0  0  0  0  0
   -4.4575   -7.5894    3.4494 O   0  0  0  0  0  0  0  0  0  0  0  0
   -3.5515   -7.6369    2.3324 C   0  0  2  0  0  0  0  0  0  0  0  0
   -4.2787   -7.8153    1.0991 O   0  0  0  0  0  0  0  0  0  0  0  0
   -2.5236   -8.7668    2.5147 C   0  0  2  0  0  0  0  0  0  0  0  0
   -3.1232  -10.0584    2.2341 N   0  3  0  0  0  0  0  0  0  0  0  0
   -1.8725   -8.7670    3.9028 C   0  0  1  0  0  0  0  0  0  0  0  0
   -0.8853   -7.7496    3.9600 O   0  0  0  0  0  0  0  0  0  0  0  0
   -2.8910   -8.5540    5.0194 C   0  0  2  0  0  0  0  0  0  0  0  0
   -3.6915   -9.7200    5.1752 O   0  0  0  0  0  0  0  0  0  0  0  0
   -4.7654   -7.0835    5.8125 C   0  0  0  0  0  0  0  0  0  0  0  0
   -4.0946   -7.1044    7.0987 N   0  3  0  0  0  0  0  0  0  0  0  0
   -4.7469    0.8687    0.1592 C   0  0  1  0  0  0  0  0  0  0  0  0
   -4.2590    0.7571   -1.1941 O   0  0  0  0  0  0  0  0  0  0  0  0
   -3.7196   -0.5487   -1.5028 C   0  0  2  0  0  0  0  0  0  0  0  0
   -4.7386   -1.5784   -1.4734 O   0  0  0  0  0  0  0  0  0  0  0  0
   -2.5601   -0.8913   -0.5593 C   0  0  2  0  0  0  0  0  0  0  0  0
   -2.1690   -2.2772   -0.7379 N   0  3  0  0  0  0  0  0  0  0  0  0
   -2.9326   -0.6599    0.9009 C   0  0  1  0  0  0  0  0  0  0  0  0
   -1.7721   -0.7596    1.7118 O   0  0  0  0  0  0  0  0  0  0  0  0
   -3.6036    0.6833    1.1436 C   0  0  2  0  0  0  0  0  0  0  0  0
   -4.0916    0.7578    2.4751 O   0  0  0  0  0  0  0  0  0  0  0  0
   -5.3355    2.2576    0.3894 C   0  0  0  0  0  0  0  0  0  0  0  0
   -4.3297    3.2832    0.1814 N   0  3  0  0  0  0  0  0  0  0  0  0
   -6.9708   -2.9567   -4.8227 C   0  0  2  0  0  0  0  0  0  0  0  0
   -5.9161   -1.8937   -5.0587 C   0  0  0  0  0  0  0  0  0  0  0  0
   -5.5154   -1.2422   -3.7481 C   0  0  1  0  0  0  0  0  0  0  0  0
   -4.9108   -2.2366   -2.7559 C   0  0  2  0  0  0  0  0  0  0  0  0
   -5.8185   -3.4777   -2.5936 C   0  0  1  0  0  0  0  0  0  0  0  0
   -6.4508   -4.0313   -3.8774 C   0  0  1  0  0  0  0  0  0  0  0  0
   -7.3399   -3.5590   -6.0895 N   0  3  0  0  0  0  0  0  0  0  0  0
   -4.5838   -0.1656   -4.0225 N   0  3  0  0  0  0  0  0  0  0  0  0
   -5.1436   -4.5396   -1.8755 O   0  0  0  0  0  0  0  0  0  0  0  0
   -7.5040   -4.9306   -3.5469 O   0  0  0  0  0  0  0  0  0  0  0  0
  1  2  1  0  0  0  0
  3  2  1  1  0  0  0
  3  4  1  0  0  0  0
  3  5  1  0  0  0  0
  4  8  1  0  0  0  0
  5  6  1  0  0  0  0
  5 12  1  1  0  0  0
  6  7  1  1  0  0  0
  6  8  1  0  0  0  0
  8 41  1  6  0  0  0
  9 10  1  0  0  0  0
  9 17  1  0  0  0  0
  9 19  1  1  0  0  0
 10 11  1  0  0  0  0
 11 12  1  6  0  0  0
 11 13  1  0  0  0  0
 13 14  1  1  0  0  0
 13 15  1  0  0  0  0
 15 16  1  6  0  0  0
 15 17  1  0  0  0  0
 17 18  1  6  0  0  0
 19 20  1  0  0  0  0
 21 22  1  0  0  0  0
 21 29  1  0  0  0  0
 21 31  1  6  0  0  0
 22 23  1  0  0  0  0
 23 24  1  1  0  0  0
 23 25  1  0  0  0  0
 25 26  1  1  0  0  0
 25 27  1  0  0  0  0
 27 28  1  1  0  0  0
 27 29  1  0  0  0  0
 29 30  1  1  0  0  0
 31 32  1  0  0  0  0
 33 34  1  0  0  0  0
 33 38  1  0  0  0  0
 33 39  1  6  0  0  0
 34 35  1  0  0  0  0
 35 36  1  0  0  0  0
 35 40  1  6  0  0  0
 36 24  1  1  0  0  0
 36 37  1  0  0  0  0
 37 38  1  0  0  0  0
 37 41  1  6  0  0  0
 38 42  1  1  0  0  0
M  CHG  6  14   1  20   1  26   1  32   1  39   1  40   1
M  END
>  <CHROM.1>
61.53935565,24.46136625,-67.02508878,-44.40482352,-87.95858590,168.96439877
94.44177410,139.82076010,59.00372873,46.99859420,-82.00211778,-60.30111634
118.54112574,-68.23507440,47.50412785,-176.70794278,68.55141165,-44.06683548
58.45329553,155.97263665,146.80214909,-56.99433187,-4.48805159,-4.07674326
0.38469212,-1.18305849,-1.15973419,-0.32514741

>  <Name>


>  <RI>
0

>  <Rbt.Current_Directory>
/home/itssahil/PROJECTS/Mol_Feturizer/New_Systems/rnas/1qd3

>  <Rbt.Executable>
rbdock ($Id: //depot/dev/client3/rdock/2013.1/src/exe/rbdock.cxx#4 $)

>  <Rbt.Library>
libRbt.so (2013.1, Build901 2013/11/27)

>  <Rbt.Parameter_File>
/export/apps/rDock/src/rDock_2013.1_src/data/scripts/dock_solv.prm

>  <Rbt.Receptor>
prm/blind_docking_20.prm

>  <SCORE>
-69.5964

>  <SCORE.INTER>
-58.08

>  <SCORE.INTER.CONST>
1

>  <SCORE.INTER.POLAR>
-7.94158

>  <SCORE.INTER.ROT>
9

>  <SCORE.INTER.SOLV>
29.4144

>  <SCORE.INTER.VDW>
-31.6529

>  <SCORE.INTER.norm>
-1.38286

>  <SCORE.INTRA>
-11.8965

>  <SCORE.INTRA.DIHEDRAL>
-7.61729

>  <SCORE.INTRA.DIHEDRAL.0>
40.6252

>  <SCORE.INTRA.POLAR>
0.0605468

>  <SCORE.INTRA.POLAR.0>
-1.20161

>  <SCORE.INTRA.REPUL>
-0.115675

>  <SCORE.INTRA.REPUL.0>
0.115675

>  <SCORE.INTRA.SOLV>
-8.65936

>  <SCORE.INTRA.SOLV.lig_0>
-154.895

>  <SCORE.INTRA.VDW>
-3.38562

>  <SCORE.INTRA.VDW.0>
2.2925

>  <SCORE.INTRA.norm>
-0.283249

>  <SCORE.RESTR>
0.380027

>  <SCORE.RESTR.CAVITY>
0.380027

>  <SCORE.RESTR.norm>
0.00904826

>  <SCORE.SYSTEM>
0

>  <SCORE.SYSTEM.CONST>
0

>  <SCORE.SYSTEM.DIHEDRAL>
0

>  <SCORE.SYSTEM.SOLV>
0

>  <SCORE.SYSTEM.norm>
0

>  <SCORE.heavy>
42

>  <SCORE.norm>
-1.65706

>  <RMSD>
14.260

$$$$

 OpenBabel11021811413D
libRbt.so/2013.1/901 2013/11/27
 42 45  0  0  0  0  0  0  0  0999 V2000
   -0.1942   -2.4385    6.0585 O   0  0  0  0  0  0  0  0  0  0  0  0
   -1.3004   -2.9597    5.3358 C   0  0  0  0  0  0  0  0  0  0  0  0
   -0.8031   -3.8833    4.2232 C   0  0  1  0  0  0  0  0  0  0  0  0
   -0.9179   -5.2719    4.6029 O   0  0  0  0  0  0  0  0  0  0  0  0
   -1.5854   -3.7432    2.9279 C   0  0  2  0  0  0  0  0  0  0  0  0
   -1.2304   -5.0543    2.2466 C   0  0  1  0  0  0  0  0  0  0  0  0
    0.0818   -4.9730    1.7013 O   0  0  0  0  0  0  0  0  0  0  0  0
   -1.2478   -6.0499    3.4244 C   0  0  2  0  0  0  0  0  0  0  0  0
   -2.9159    0.2775    0.7575 C   0  0  2  0  0  0  0  0  0  0  0  0
   -1.8257   -0.5271    1.2327 O   0  0  0  0  0  0  0  0  0  0  0  0
   -2.2625   -1.8347    1.6452 C   0  0  2  0  0  0  0  0  0  0  0  0
   -1.1547   -2.5952    2.1704 O   0  0  0  0  0  0  0  0  0  0  0  0
   -2.9162   -2.5841    0.4715 C   0  0  2  0  0  0  0  0  0  0  0  0
   -1.9085   -3.0816   -0.4468 N   0  3  0  0  0  0  0  0  0  0  0  0
   -3.9539   -1.7387   -0.2763 C   0  0  1  0  0  0  0  0  0  0  0  0
   -5.1573   -1.6981    0.4741 O   0  0  0  0  0  0  0  0  0  0  0  0
   -3.4641   -0.3163   -0.5338 C   0  0  2  0  0  0  0  0  0  0  0  0
   -2.4546   -0.3244   -1.5364 O   0  0  0  0  0  0  0  0  0  0  0  0
   -2.4666    1.7202    0.5444 C   0  0  0  0  0  0  0  0  0  0  0  0
   -3.6147    2.5835    0.3407 N   0  3  0  0  0  0  0  0  0  0  0  0
   -4.3237   -7.0169    0.7043 C   0  0  1  0  0  0  0  0  0  0  0  0
   -4.3638   -8.1322    1.6190 O   0  0  0  0  0  0  0  0  0  0  0  0
   -3.4277   -9.1822    1.2833 C   0  0  2  0  0  0  0  0  0  0  0  0
   -2.0520   -8.7460    1.4139 O   0  0  0  0  0  0  0  0  0  0  0  0
   -3.7047   -9.7234   -0.1246 C   0  0  2  0  0  0  0  0  0  0  0  0
   -2.6381  -10.6201   -0.5294 N   0  3  0  0  0  0  0  0  0  0  0  0
   -3.8300   -8.5998   -1.1474 C   0  0  1  0  0  0  0  0  0  0  0  0
   -4.3156   -9.1223   -2.3744 O   0  0  0  0  0  0  0  0  0  0  0  0
   -4.7357   -7.4678   -0.6875 C   0  0  2  0  0  0  0  0  0  0  0  0
   -4.6615   -6.3770   -1.5938 O   0  0  0  0  0  0  0  0  0  0  0  0
   -5.3067   -5.9389    1.1518 C   0  0  0  0  0  0  0  0  0  0  0  0
   -5.0573   -5.5555    2.5293 N   0  3  0  0  0  0  0  0  0  0  0  0
   -2.2162   -9.8934    5.5073 C   0  0  2  0  0  0  0  0  0  0  0  0
   -1.0736  -10.4246    4.6643 C   0  0  0  0  0  0  0  0  0  0  0  0
   -1.3820  -10.2612    3.1875 C   0  0  1  0  0  0  0  0  0  0  0  0
   -1.5725   -8.7987    2.7831 C   0  0  2  0  0  0  0  0  0  0  0  0
   -2.5781   -8.0916    3.7211 C   0  0  1  0  0  0  0  0  0  0  0  0
   -2.4611   -8.4191    5.2156 C   0  0  1  0  0  0  0  0  0  0  0  0
   -1.8994  -10.0663    6.9122 N   0  3  0  0  0  0  0  0  0  0  0  0
   -0.3173  -10.8694    2.4137 N   0  3  0  0  0  0  0  0  0  0  0  0
   -2.5682   -6.6561    3.5259 O   0  0  0  0  0  0  0  0  0  0  0  0
   -3.6324   -7.9829    5.8976 O   0  0  0  0  0  0  0  0  0  0  0  0
  1  2  1  0  0  0  0
  3  2  1  1  0  0  0
  3  4  1  0  0  0  0
  3  5  1  0  0  0  0
  4  8  1  0  0  0  0
  5  6  1  0  0  0  0
  5 12  1  6  0  0  0
  6  7  1  1  0  0  0
  6  8  1  0  0  0  0
  8 41  1  1  0  0  0
  9 10  1  0  0  0  0
  9 17  1  0  0  0  0
  9 19  1  6  0  0  0
 10 11  1  0  0  0  0
 11 12  1  6  0  0  0
 11 13  1  0  0  0  0
 13 14  1  6  0  0  0
 13 15  1  0  0  0  0
 15 16  1  1  0  0  0
 15 17  1  0  0  0  0
 17 18  1  6  0  0  0
 19 20  1  0  0  0  0
 21 22  1  0  0  0  0
 21 29  1  0  0  0  0
 21 31  1  1  0  0  0
 22 23  1  0  0  0  0
 23 24  1  6  0  0  0
 23 25  1  0  0  0  0
 25 26  1  6  0  0  0
 25 27  1  0  0  0  0
 27 28  1  6  0  0  0
 27 29  1  0  0  0  0
 29 30  1  6  0  0  0
 31 32  1  0  0  0  0
 33 34  1  0  0  0  0
 33 38  1  0  0  0  0
 33 39  1  1  0  0  0
 34 35  1  0  0  0  0
 35 36  1  0  0  0  0
 35 40  1  6  0  0  0
 36 24  1  6  0  0  0
 36 37  1  0  0  0  0
 37 38  1  0  0  0  0
 37 41  1  1  0  0  0
 38 42  1  1  0  0  0
M  CHG  6  14   1  20   1  26   1  32   1  39   1  40   1
M  END
>  <CHROM.1>
68.66378773,100.37411098,-135.57175639,156.07296814,-108.34807596,-167.96792667
163.82931591,-2.48190521,-170.65969327,60.48184960,70.28373659,54.20896060
81.64325717,71.82842796,-60.51953135,-50.08180154,173.76172230,-74.85282548
71.39122432,-172.36158626,-44.61291659,-58.51180255,-2.59830884,-5.51609081
1.92281478,-1.67053549,1.14481506,2.98906774

>  <Name>


>  <RI>
0

>  <Rbt.Current_Directory>
/home/itssahil/PROJECTS/Mol_Feturizer/New_Systems/rnas/1qd3

>  <Rbt.Executable>
rbdock ($Id: //depot/dev/client3/rdock/2013.1/src/exe/rbdock.cxx#4 $)

>  <Rbt.Library>
libRbt.so (2013.1, Build901 2013/11/27)

>  <Rbt.Parameter_File>
/export/apps/rDock/src/rDock_2013.1_src/data/scripts/dock_solv.prm

>  <Rbt.Receptor>
prm/blind_docking_100.prm

>  <SCORE>
-53.0706

>  <SCORE.INTER>
-40.2515

>  <SCORE.INTER.CONST>
1

>  <SCORE.INTER.POLAR>
-5.74155

>  <SCORE.INTER.ROT>
9

>  <SCORE.INTER.SOLV>
22.9726

>  <SCORE.INTER.VDW>
-24.9534

>  <SCORE.INTER.norm>
-0.95837

>  <SCORE.INTRA>
-14.9644

>  <SCORE.INTRA.DIHEDRAL>
-7.89869

>  <SCORE.INTRA.DIHEDRAL.0>
40.6252

>  <SCORE.INTRA.POLAR>
-0.00257989

>  <SCORE.INTRA.POLAR.0>
-1.20161

>  <SCORE.INTRA.REPUL>
-0.115675

>  <SCORE.INTRA.REPUL.0>
0.115675

>  <SCORE.INTRA.SOLV>
-5.02855

>  <SCORE.INTRA.SOLV.lig_0>
-154.895

>  <SCORE.INTRA.VDW>
-7.91367

>  <SCORE.INTRA.VDW.0>
2.2925

>  <SCORE.INTRA.norm>
-0.356296

>  <SCORE.RESTR>
2.14538

>  <SCORE.RESTR.CAVITY>
2.14538

>  <SCORE.RESTR.norm>
0.0510805

>  <SCORE.SYSTEM>
0

>  <SCORE.SYSTEM.CONST>
0

>  <SCORE.SYSTEM.DIHEDRAL>
0

>  <SCORE.SYSTEM.SOLV>
0

>  <SCORE.SYSTEM.norm>
0

>  <SCORE.heavy>
42

>  <SCORE.norm>
-1.26359

>  <RMSD>
14.265

$$$$

 OpenBabel11021811413D
libRbt.so/2013.1/901 2013/11/27
 42 45  0  0  0  0  0  0  0  0999 V2000
   -3.3138   -2.0123   -1.6853 O   0  0  0  0  0  0  0  0  0  0  0  0
   -3.1698   -3.4075   -1.4610 C   0  0  0  0  0  0  0  0  0  0  0  0
   -4.5201   -4.0114   -1.0728 C   0  0  1  0  0  0  0  0  0  0  0  0
   -4.4672   -5.4546   -1.0658 O   0  0  0  0  0  0  0  0  0  0  0  0
   -4.9842   -3.6083    0.3169 C   0  0  2  0  0  0  0  0  0  0  0  0
   -6.0057   -4.6983    0.5949 C   0  0  1  0  0  0  0  0  0  0  0  0
   -7.2103   -4.4198   -0.1104 O   0  0  0  0  0  0  0  0  0  0  0  0
   -5.3242   -5.9455   -0.0040 C   0  0  2  0  0  0  0  0  0  0  0  0
   -2.9241   -0.9398    2.4449 C   0  0  2  0  0  0  0  0  0  0  0  0
   -3.5611   -1.7600    1.4534 O   0  0  0  0  0  0  0  0  0  0  0  0
   -4.9463   -1.4122    1.2771 C   0  0  2  0  0  0  0  0  0  0  0  0
   -5.5702   -2.2916    0.3185 O   0  0  0  0  0  0  0  0  0  0  0  0
   -5.0853    0.0525    0.8278 C   0  0  2  0  0  0  0  0  0  0  0  0
   -4.7493    0.1942   -0.5770 N   0  3  0  0  0  0  0  0  0  0  0  0
   -4.2566    1.0220    1.6788 C   0  0  1  0  0  0  0  0  0  0  0  0
   -4.9204    1.2522    2.9114 O   0  0  0  0  0  0  0  0  0  0  0  0
   -2.8485    0.4978    1.9468 C   0  0  2  0  0  0  0  0  0  0  0  0
   -2.0712    0.5636    0.7569 O   0  0  0  0  0  0  0  0  0  0  0  0
   -1.5332   -1.4751    2.7729 C   0  0  0  0  0  0  0  0  0  0  0  0
   -0.8613   -1.9140    1.5643 N   0  3  0  0  0  0  0  0  0  0  0  0
   -2.6910   -7.4227    5.0160 C   0  0  1  0  0  0  0  0  0  0  0  0
   -3.3695   -6.6866    3.9767 O   0  0  0  0  0  0  0  0  0  0  0  0
   -2.4770   -6.1795    2.9580 C   0  0  2  0  0  0  0  0  0  0  0  0
   -1.8538   -7.2467    2.2014 O   0  0  0  0  0  0  0  0  0  0  0  0
   -1.4238   -5.2514    3.5753 C   0  0  2  0  0  0  0  0  0  0  0  0
   -0.4149   -4.9200    2.5864 N   0  3  0  0  0  0  0  0  0  0  0  0
   -0.7493   -5.8881    4.7854 C   0  0  1  0  0  0  0  0  0  0  0  0
    0.0365   -4.9177    5.4601 O   0  0  0  0  0  0  0  0  0  0  0  0
   -1.7344   -6.5086    5.7641 C   0  0  2  0  0  0  0  0  0  0  0  0
   -1.0415   -7.2428    6.7629 O   0  0  0  0  0  0  0  0  0  0  0  0
   -3.7043   -7.9573    6.0240 C   0  0  0  0  0  0  0  0  0  0  0  0
   -4.8146   -8.6001    5.3452 N   0  3  0  0  0  0  0  0  0  0  0  0
   -3.5549   -9.8827   -0.6721 C   0  0  2  0  0  0  0  0  0  0  0  0
   -2.9472  -10.4884    0.5777 C   0  0  0  0  0  0  0  0  0  0  0  0
   -2.0514   -9.4812    1.2749 C   0  0  1  0  0  0  0  0  0  0  0  0
   -2.8087   -8.2313    1.7257 C   0  0  2  0  0  0  0  0  0  0  0  0
   -3.6414   -7.6399    0.5649 C   0  0  1  0  0  0  0  0  0  0  0  0
   -4.3769   -8.6480   -0.3279 C   0  0  1  0  0  0  0  0  0  0  0  0
   -4.4007  -10.8659   -1.3218 N   0  3  0  0  0  0  0  0  0  0  0  0
   -1.4101  -10.1241    2.4053 N   0  3  0  0  0  0  0  0  0  0  0  0
   -4.5651   -6.6277    1.0351 O   0  0  0  0  0  0  0  0  0  0  0  0
   -4.8063   -8.0081   -1.5250 O   0  0  0  0  0  0  0  0  0  0  0  0
  1  2  1  0  0  0  0
  3  2  1  1  0  0  0
  3  4  1  0  0  0  0
  3  5  1  0  0  0  0
  4  8  1  0  0  0  0
  5  6  1  0  0  0  0
  5 12  1  6  0  0  0
  6  7  1  6  0  0  0
  6  8  1  0  0  0  0
  8 41  1  1  0  0  0
  9 10  1  0  0  0  0
  9 17  1  0  0  0  0
  9 19  1  6  0  0  0
 10 11  1  0  0  0  0
 11 12  1  6  0  0  0
 11 13  1  0  0  0  0
 13 14  1  6  0  0  0
 13 15  1  0  0  0  0
 15 16  1  1  0  0  0
 15 17  1  0  0  0  0
 17 18  1  6  0  0  0
 19 20  1  0  0  0  0
 21 22  1  0  0  0  0
 21 29  1  0  0  0  0
 21 31  1  1  0  0  0
 22 23  1  0  0  0  0
 23 24  1  1  0  0  0
 23 25  1  0  0  0  0
 25 26  1  6  0  0  0
 25 27  1  0  0  0  0
 27 28  1  1  0  0  0
 27 29  1  0  0  0  0
 29 30  1  1  0  0  0
 31 32  1  0  0  0  0
 33 34  1  0  0  0  0
 33 38  1  0  0  0  0
 33 39  1  1  0  0  0
 34 35  1  0  0  0  0
 35 36  1  0  0  0  0
 35 40  1  1  0  0  0
 36 24  1  6  0  0  0
 36 37  1  0  0  0  0
 37 38  1  0  0  0  0
 37 41  1  1  0  0  0
 38 42  1  6  0  0  0
M  CHG  6  14   1  20   1  26   1  32   1  39   1  40   1
M  END
>  <CHROM.1>
46.07067132,169.89700758,-125.31894322,-45.70870148,-50.12954867,40.61509719
30.51184016,-175.32727956,-59.32500069,-163.08451259,-76.15824777,47.66419487
49.20718225,-165.18397463,34.54929789,-170.14570495,-176.85149354,-40.43377134
-57.99709557,73.80992009,175.74037584,66.23318313,-3.34821103,-4.95029033
1.68234851,1.80020890,-1.04649004,0.03189421

>  <Name>


>  <RI>
0

>  <Rbt.Current_Directory>
/home/itssahil/PROJECTS/Mol_Feturizer/New_Systems/rnas/1qd3

>  <Rbt.Executable>
rbdock ($Id: //depot/dev/client3/rdock/2013.1/src/exe/rbdock.cxx#4 $)

>  <Rbt.Library>
libRbt.so (2013.1, Build901 2013/11/27)

>  <Rbt.Parameter_File>
/export/apps/rDock/src/rDock_2013.1_src/data/scripts/dock_solv.prm

>  <Rbt.Receptor>
prm/blind_docking_40.prm

>  <SCORE>
-44.8979

>  <SCORE.INTER>
-37.0995

>  <SCORE.INTER.CONST>
1

>  <SCORE.INTER.POLAR>
-5.87514

>  <SCORE.INTER.ROT>
9

>  <SCORE.INTER.SOLV>
30.5

>  <SCORE.INTER.VDW>
-24.9159

>  <SCORE.INTER.norm>
-0.883322

>  <SCORE.INTRA>
-13.0952

>  <SCORE.INTRA.DIHEDRAL>
-17.5264

>  <SCORE.INTRA.DIHEDRAL.0>
40.6252

>  <SCORE.INTRA.POLAR>
0.45691

>  <SCORE.INTRA.POLAR.0>
-1.20161

>  <SCORE.INTRA.REPUL>
0.0207055

>  <SCORE.INTRA.REPUL.0>
0.115675

>  <SCORE.INTRA.SOLV>
-0.481823

>  <SCORE.INTRA.SOLV.lig_0>
-154.895

>  <SCORE.INTRA.VDW>
-5.74813

>  <SCORE.INTRA.VDW.0>
2.2925

>  <SCORE.INTRA.norm>
-0.311791

>  <SCORE.RESTR>
5.29684

>  <SCORE.RESTR.CAVITY>
5.29684

>  <SCORE.RESTR.norm>
0.126115

>  <SCORE.SYSTEM>
0

>  <SCORE.SYSTEM.CONST>
0

>  <SCORE.SYSTEM.DIHEDRAL>
0

>  <SCORE.SYSTEM.SOLV>
0

>  <SCORE.SYSTEM.norm>
0

>  <SCORE.heavy>
42

>  <SCORE.norm>
-1.069

>  <RMSD>
14.292

$$$$

 OpenBabel11021811413D
libRbt.so/2013.1/901 2013/11/27
 42 45  0  0  0  0  0  0  0  0999 V2000
   -1.2604   -1.7050    4.8794 O   0  0  0  0  0  0  0  0  0  0  0  0
   -1.1997   -3.0244    5.4021 C   0  0  0  0  0  0  0  0  0  0  0  0
   -0.8125   -4.0033    4.2929 C   0  0  1  0  0  0  0  0  0  0  0  0
   -1.0099   -5.3722    4.7083 O   0  0  0  0  0  0  0  0  0  0  0  0
   -1.6331   -3.8339    3.0251 C   0  0  2  0  0  0  0  0  0  0  0  0
   -1.3983   -5.1803    2.3611 C   0  0  1  0  0  0  0  0  0  0  0  0
   -0.1060   -5.2037    1.7651 O   0  0  0  0  0  0  0  0  0  0  0  0
   -1.4396   -6.1483    3.5611 C   0  0  2  0  0  0  0  0  0  0  0  0
   -2.8206    0.2669    0.9782 C   0  0  2  0  0  0  0  0  0  0  0  0
   -1.7627   -0.5848    1.4437 O   0  0  0  0  0  0  0  0  0  0  0  0
   -2.2251   -1.9222    1.7055 C   0  0  2  0  0  0  0  0  0  0  0  0
   -1.1526   -2.7349    2.2260 O   0  0  0  0  0  0  0  0  0  0  0  0
   -2.8044   -2.5559    0.4291 C   0  0  2  0  0  0  0  0  0  0  0  0
   -1.7415   -2.9729   -0.4668 N   0  3  0  0  0  0  0  0  0  0  0  0
   -3.7929   -1.6386   -0.3004 C   0  0  1  0  0  0  0  0  0  0  0  0
   -5.0409   -1.6600    0.3741 O   0  0  0  0  0  0  0  0  0  0  0  0
   -3.2873   -0.2016   -0.3942 C   0  0  2  0  0  0  0  0  0  0  0  0
   -2.2170   -0.1234   -1.3285 O   0  0  0  0  0  0  0  0  0  0  0  0
   -2.3582    1.7204    0.9278 C   0  0  0  0  0  0  0  0  0  0  0  0
   -3.3395    2.5862    1.5540 N   0  3  0  0  0  0  0  0  0  0  0  0
   -5.0632   -6.1370    1.8120 C   0  0  1  0  0  0  0  0  0  0  0  0
   -5.0281   -7.5757    1.9164 O   0  0  0  0  0  0  0  0  0  0  0  0
   -4.2503   -8.2070    0.8734 C   0  0  2  0  0  0  0  0  0  0  0  0
   -2.8434   -7.8725    0.9666 O   0  0  0  0  0  0  0  0  0  0  0  0
   -4.8122   -7.8533   -0.5090 C   0  0  2  0  0  0  0  0  0  0  0  0
   -3.9065   -8.3145   -1.5447 N   0  3  0  0  0  0  0  0  0  0  0  0
   -5.0279   -6.3520   -0.6641 C   0  0  1  0  0  0  0  0  0  0  0  0
   -5.7612   -6.0947   -1.8516 O   0  0  0  0  0  0  0  0  0  0  0  0
   -5.7477   -5.7237    0.5193 C   0  0  2  0  0  0  0  0  0  0  0  0
   -5.7496   -4.3086    0.4011 O   0  0  0  0  0  0  0  0  0  0  0  0
   -5.8652   -5.5487    2.9693 C   0  0  0  0  0  0  0  0  0  0  0  0
   -6.4706   -6.6022    3.7631 N   0  3  0  0  0  0  0  0  0  0  0  0
   -2.6293  -10.4092    4.3752 C   0  0  2  0  0  0  0  0  0  0  0  0
   -1.6880  -10.6880    3.2201 C   0  0  0  0  0  0  0  0  0  0  0  0
   -2.1602   -9.9761    1.9659 C   0  0  1  0  0  0  0  0  0  0  0  0
   -2.2021   -8.4563    2.1308 C   0  0  2  0  0  0  0  0  0  0  0  0
   -2.9728   -8.0596    3.4113 C   0  0  1  0  0  0  0  0  0  0  0  0
   -2.7086   -8.9150    4.6574 C   0  0  1  0  0  0  0  0  0  0  0  0
   -2.1594  -11.1046    5.5583 N   0  3  0  0  0  0  0  0  0  0  0  0
   -1.2968  -10.3452    0.8611 N   0  3  0  0  0  0  0  0  0  0  0  0
   -2.7945   -6.6567    3.7260 O   0  0  0  0  0  0  0  0  0  0  0  0
   -3.7118   -8.6638    5.6360 O   0  0  0  0  0  0  0  0  0  0  0  0
  1  2  1  0  0  0  0
  3  2  1  1  0  0  0
  3  4  1  0  0  0  0
  3  5  1  0  0  0  0
  4  8  1  0  0  0  0
  5  6  1  0  0  0  0
  5 12  1  6  0  0  0
  6  7  1  1  0  0  0
  6  8  1  0  0  0  0
  8 41  1  1  0  0  0
  9 10  1  0  0  0  0
  9 17  1  0  0  0  0
  9 19  1  6  0  0  0
 10 11  1  0  0  0  0
 11 12  1  6  0  0  0
 11 13  1  0  0  0  0
 13 14  1  6  0  0  0
 13 15  1  0  0  0  0
 15 16  1  1  0  0  0
 15 17  1  0  0  0  0
 17 18  1  6  0  0  0
 19 20  1  0  0  0  0
 21 22  1  0  0  0  0
 21 29  1  0  0  0  0
 21 31  1  1  0  0  0
 22 23  1  0  0  0  0
 23 24  1  6  0  0  0
 23 25  1  0  0  0  0
 25 26  1  6  0  0  0
 25 27  1  0  0  0  0
 27 28  1  6  0  0  0
 27 29  1  0  0  0  0
 29 30  1  6  0  0  0
 31 32  1  0  0  0  0
 33 34  1  0  0  0  0
 33 38  1  0  0  0  0
 33 39  1  1  0  0  0
 34 35  1  0  0  0  0
 35 36  1  0  0  0  0
 35 40  1  6  0  0  0
 36 24  1  6  0  0  0
 36 37  1  0  0  0  0
 37 38  1  0  0  0  0
 37 41  1  1  0  0  0
 38 42  1  1  0  0  0
M  CHG  6  14   1  20   1  26   1  32   1  39   1  40   1
M  END
>  <CHROM.1>
-44.76134468,-168.00317866,-136.62913348,175.91269391,-132.53073384,-132.23160971
154.73596754,-118.64280432,-166.30225011,23.29540339,126.37532119,-5.65536930
68.67975356,67.34332077,-48.75445395,64.27669745,-63.44648337,-7.44388297
-131.83813145,-151.99767867,-41.99561017,49.71303025,-3.00901470,-5.17185776
1.92498736,-1.52730194,0.96509527,2.87255512

>  <Name>


>  <RI>
0

>  <Rbt.Current_Directory>
/home/itssahil/PROJECTS/Mol_Feturizer/New_Systems/rnas/1qd3

>  <Rbt.Executable>
rbdock ($Id: //depot/dev/client3/rdock/2013.1/src/exe/rbdock.cxx#4 $)

>  <Rbt.Library>
libRbt.so (2013.1, Build901 2013/11/27)

>  <Rbt.Parameter_File>
/export/apps/rDock/src/rDock_2013.1_src/data/scripts/dock_solv.prm

>  <Rbt.Receptor>
prm/blind_docking_80.prm

>  <SCORE>
-52.9287

>  <SCORE.INTER>
-51.238

>  <SCORE.INTER.CONST>
1

>  <SCORE.INTER.POLAR>
-8.68876

>  <SCORE.INTER.ROT>
9

>  <SCORE.INTER.SOLV>
42.8791

>  <SCORE.INTER.VDW>
-29.0891

>  <SCORE.INTER.norm>
-1.21995

>  <SCORE.INTRA>
-2.90581

>  <SCORE.INTRA.DIHEDRAL>
9.19685

>  <SCORE.INTRA.DIHEDRAL.0>
40.6252

>  <SCORE.INTRA.POLAR>
0.638376

>  <SCORE.INTRA.POLAR.0>
-1.20161

>  <SCORE.INTRA.REPUL>
-0.115675

>  <SCORE.INTRA.REPUL.0>
0.115675

>  <SCORE.INTRA.SOLV>
-7.16407

>  <SCORE.INTRA.SOLV.lig_0>
-154.895

>  <SCORE.INTRA.VDW>
-5.5143

>  <SCORE.INTRA.VDW.0>
2.2925

>  <SCORE.INTRA.norm>
-0.0691858

>  <SCORE.RESTR>
1.21511

>  <SCORE.RESTR.CAVITY>
1.21511

>  <SCORE.RESTR.norm>
0.0289312

>  <SCORE.SYSTEM>
0

>  <SCORE.SYSTEM.CONST>
0

>  <SCORE.SYSTEM.DIHEDRAL>
0

>  <SCORE.SYSTEM.SOLV>
0

>  <SCORE.SYSTEM.norm>
0

>  <SCORE.heavy>
42

>  <SCORE.norm>
-1.26021

>  <RMSD>
14.306

$$$$

 OpenBabel11021811413D
libRbt.so/2013.1/901 2013/11/27
 42 45  0  0  0  0  0  0  0  0999 V2000
   -5.3623   -4.5392   -1.0714 O   0  0  0  0  0  0  0  0  0  0  0  0
   -4.9617   -5.3844   -2.1405 C   0  0  0  0  0  0  0  0  0  0  0  0
   -4.1591   -6.5656   -1.5937 C   0  0  1  0  0  0  0  0  0  0  0  0
   -3.2565   -6.1474   -0.5468 O   0  0  0  0  0  0  0  0  0  0  0  0
   -5.0266   -7.6528   -0.9814 C   0  0  2  0  0  0  0  0  0  0  0  0
   -4.0012   -8.3754   -0.1239 C   0  0  1  0  0  0  0  0  0  0  0  0
   -3.1860   -9.2043   -0.9451 O   0  0  0  0  0  0  0  0  0  0  0  0
   -3.1637   -7.2083    0.4376 C   0  0  2  0  0  0  0  0  0  0  0  0
   -8.2012   -6.5758   -3.6800 C   0  0  2  0  0  0  0  0  0  0  0  0
   -6.8880   -7.0404   -3.3318 O   0  0  0  0  0  0  0  0  0  0  0  0
   -6.9332   -8.1032   -2.3628 C   0  0  2  0  0  0  0  0  0  0  0  0
   -5.5983   -8.5063   -1.9921 O   0  0  0  0  0  0  0  0  0  0  0  0
   -7.7210   -9.3051   -2.9116 C   0  0  2  0  0  0  0  0  0  0  0  0
   -6.9227  -10.0513   -3.8667 N   0  3  0  0  0  0  0  0  0  0  0  0
   -9.0666   -8.9082   -3.5302 C   0  0  1  0  0  0  0  0  0  0  0  0
  -10.0058   -8.6612   -2.4960 O   0  0  0  0  0  0  0  0  0  0  0  0
   -8.9518   -7.6745   -4.4216 C   0  0  2  0  0  0  0  0  0  0  0  0
   -8.2700   -8.0070   -5.6254 O   0  0  0  0  0  0  0  0  0  0  0  0
   -8.1166   -5.3089   -4.5266 C   0  0  0  0  0  0  0  0  0  0  0  0
   -7.7213   -4.1781   -3.7080 N   0  3  0  0  0  0  0  0  0  0  0  0
   -2.6136   -3.7875    2.2388 C   0  0  1  0  0  0  0  0  0  0  0  0
   -1.9581   -5.0394    2.5308 O   0  0  0  0  0  0  0  0  0  0  0  0
   -1.9409   -5.3617    3.9405 C   0  0  2  0  0  0  0  0  0  0  0  0
   -3.2725   -5.6007    4.4596 O   0  0  0  0  0  0  0  0  0  0  0  0
   -1.2257   -4.2639    4.7373 C   0  0  2  0  0  0  0  0  0  0  0  0
   -1.3987   -4.4916    6.1599 N   0  3  0  0  0  0  0  0  0  0  0  0
   -1.7506   -2.8766    4.3844 C   0  0  1  0  0  0  0  0  0  0  0  0
   -0.9108   -1.8873    4.9592 O   0  0  0  0  0  0  0  0  0  0  0  0
   -1.8576   -2.6386    2.8860 C   0  0  2  0  0  0  0  0  0  0  0  0
   -2.5238   -1.4114    2.6275 O   0  0  0  0  0  0  0  0  0  0  0  0
   -2.6262   -3.5434    0.7325 C   0  0  0  0  0  0  0  0  0  0  0  0
   -3.6067   -2.5316    0.3838 N   0  3  0  0  0  0  0  0  0  0  0  0
   -2.8264   -9.7965    3.9154 C   0  0  2  0  0  0  0  0  0  0  0  0
   -3.6332   -9.3147    5.1050 C   0  0  0  0  0  0  0  0  0  0  0  0
   -3.3577   -7.8470    5.3748 C   0  0  1  0  0  0  0  0  0  0  0  0
   -3.7445   -6.9486    4.1991 C   0  0  2  0  0  0  0  0  0  0  0  0
   -3.1366   -7.4737    2.8779 C   0  0  1  0  0  0  0  0  0  0  0  0
   -3.1722   -8.9934    2.6687 C   0  0  1  0  0  0  0  0  0  0  0  0
   -3.1031  -11.2012    3.6826 N   0  3  0  0  0  0  0  0  0  0  0  0
   -4.0653   -7.4477    6.5757 N   0  3  0  0  0  0  0  0  0  0  0  0
   -3.7047   -6.8014    1.7272 O   0  0  0  0  0  0  0  0  0  0  0  0
   -2.2954   -9.3543    1.6066 O   0  0  0  0  0  0  0  0  0  0  0  0
  1  2  1  0  0  0  0
  3  2  1  1  0  0  0
  3  4  1  0  0  0  0
  3  5  1  0  0  0  0
  4  8  1  0  0  0  0
  5  6  1  0  0  0  0
  5 12  1  6  0  0  0
  6  7  1  6  0  0  0
  6  8  1  0  0  0  0
  8 41  1  1  0  0  0
  9 10  1  0  0  0  0
  9 17  1  0  0  0  0
  9 19  1  6  0  0  0
 10 11  1  0  0  0  0
 11 12  1  6  0  0  0
 11 13  1  0  0  0  0
 13 14  1  6  0  0  0
 13 15  1  0  0  0  0
 15 16  1  1  0  0  0
 15 17  1  0  0  0  0
 17 18  1  6  0  0  0
 19 20  1  0  0  0  0
 21 22  1  0  0  0  0
 21 29  1  0  0  0  0
 21 31  1  6  0  0  0
 22 23  1  0  0  0  0
 23 24  1  1  0  0  0
 23 25  1  0  0  0  0
 25 26  1  1  0  0  0
 25 27  1  0  0  0  0
 27 28  1  6  0  0  0
 27 29  1  0  0  0  0
 29 30  1  1  0  0  0
 31 32  1  0  0  0  0
 33 34  1  0  0  0  0
 33 38  1  0  0  0  0
 33 39  1  6  0  0  0
 34 35  1  0  0  0  0
 35 36  1  0  0  0  0
 35 40  1  1  0  0  0
 36 24  1  1  0  0  0
 36 37  1  0  0  0  0
 37 38  1  0  0  0  0
 37 41  1  6  0  0  0
 38 42  1  6  0  0  0
M  CHG  6  14   1  20   1  26   1  32   1  39   1  40   1
M  END
>  <CHROM.1>
-59.05924706,-40.68094377,-95.63740570,158.94936248,-152.53950124,-72.96787658
82.61171503,68.85267145,-63.60748954,-171.29204033,-45.75740722,162.72275026
82.11656927,90.90593834,64.73539382,-175.20586824,58.84167911,-102.08816084
-155.26907367,-163.61376653,178.43300245,62.39626253,-4.44279154,-6.55397310
0.66526802,-3.13420779,0.99273929,2.82232734

>  <Name>


>  <RI>
0

>  <Rbt.Current_Directory>
/home/itssahil/PROJECTS/Mol_Feturizer/New_Systems/rnas/1qd3

>  <Rbt.Executable>
rbdock ($Id: //depot/dev/client3/rdock/2013.1/src/exe/rbdock.cxx#4 $)

>  <Rbt.Library>
libRbt.so (2013.1, Build901 2013/11/27)

>  <Rbt.Parameter_File>
/export/apps/rDock/src/rDock_2013.1_src/data/scripts/dock_solv.prm

>  <Rbt.Receptor>
prm/blind_docking_60.prm

>  <SCORE>
-41.9725

>  <SCORE.INTER>
-28.6398

>  <SCORE.INTER.CONST>
1

>  <SCORE.INTER.POLAR>
-3.03317

>  <SCORE.INTER.ROT>
9

>  <SCORE.INTER.SOLV>
23.3968

>  <SCORE.INTER.VDW>
-26.3816

>  <SCORE.INTER.norm>
-0.681901

>  <SCORE.INTRA>
-13.9232

>  <SCORE.INTRA.DIHEDRAL>
-11.7419

>  <SCORE.INTRA.DIHEDRAL.0>
40.6252

>  <SCORE.INTRA.POLAR>
-0.339781

>  <SCORE.INTRA.POLAR.0>
-1.20161

>  <SCORE.INTRA.REPUL>
-0.0800528

>  <SCORE.INTRA.REPUL.0>
0.115675

>  <SCORE.INTRA.SOLV>
-5.35049

>  <SCORE.INTRA.SOLV.lig_0>
-154.895

>  <SCORE.INTRA.VDW>
-3.82144

>  <SCORE.INTRA.VDW.0>
2.2925

>  <SCORE.INTRA.norm>
-0.331504

>  <SCORE.RESTR>
0.59052

>  <SCORE.RESTR.CAVITY>
0.59052

>  <SCORE.RESTR.norm>
0.01406

>  <SCORE.SYSTEM>
0

>  <SCORE.SYSTEM.CONST>
0

>  <SCORE.SYSTEM.DIHEDRAL>
0

>  <SCORE.SYSTEM.SOLV>
0

>  <SCORE.SYSTEM.norm>
0

>  <SCORE.heavy>
42

>  <SCORE.norm>
-0.999344

>  <RMSD>
14.325

$$$$

 OpenBabel11021811413D
libRbt.so/2013.1/901 2013/11/27
 42 45  0  0  0  0  0  0  0  0999 V2000
   -4.9702   -1.7159   -4.1916 O   0  0  0  0  0  0  0  0  0  0  0  0
   -4.9088   -1.6662   -2.7733 C   0  0  0  0  0  0  0  0  0  0  0  0
   -4.4879   -3.0304   -2.2253 C   0  0  1  0  0  0  0  0  0  0  0  0
   -3.9050   -2.9105   -0.9094 O   0  0  0  0  0  0  0  0  0  0  0  0
   -5.6451   -4.0043   -2.0773 C   0  0  2  0  0  0  0  0  0  0  0  0
   -5.0470   -4.9981   -1.0957 C   0  0  1  0  0  0  0  0  0  0  0  0
   -4.1415   -5.8603   -1.7759 O   0  0  0  0  0  0  0  0  0  0  0  0
   -4.2706   -4.0783   -0.1314 C   0  0  2  0  0  0  0  0  0  0  0  0
   -8.1424   -2.5479   -5.4452 C   0  0  2  0  0  0  0  0  0  0  0  0
   -6.9404   -3.1299   -4.9180 O   0  0  0  0  0  0  0  0  0  0  0  0
   -7.2175   -4.0922   -3.8845 C   0  0  2  0  0  0  0  0  0  0  0  0
   -5.9887   -4.6139   -3.3371 O   0  0  0  0  0  0  0  0  0  0  0  0
   -8.0886   -5.2374   -4.4285 C   0  0  2  0  0  0  0  0  0  0  0  0
   -7.2957   -6.1514   -5.2300 N   0  3  0  0  0  0  0  0  0  0  0  0
   -9.3031   -4.7420   -5.2224 C   0  0  1  0  0  0  0  0  0  0  0  0
  -10.3056   -4.2988   -4.3216 O   0  0  0  0  0  0  0  0  0  0  0  0
   -8.9441   -3.6121   -6.1836 C   0  0  2  0  0  0  0  0  0  0  0  0
   -8.1888   -4.1247   -7.2751 O   0  0  0  0  0  0  0  0  0  0  0  0
   -7.8135   -1.3777   -6.3678 C   0  0  0  0  0  0  0  0  0  0  0  0
   -6.4390   -1.4631   -6.8241 N   0  3  0  0  0  0  0  0  0  0  0  0
   -2.3377   -6.3818    1.6111 C   0  0  1  0  0  0  0  0  0  0  0  0
   -3.7318   -6.0330    1.4802 O   0  0  0  0  0  0  0  0  0  0  0  0
   -4.4150   -5.9178    2.7496 C   0  0  2  0  0  0  0  0  0  0  0  0
   -3.9102   -4.8134    3.5402 O   0  0  0  0  0  0  0  0  0  0  0  0
   -4.3354   -7.2367    3.5279 C   0  0  2  0  0  0  0  0  0  0  0  0
   -4.8357   -7.0470    4.8767 N   0  3  0  0  0  0  0  0  0  0  0  0
   -2.9082   -7.7691    3.5931 C   0  0  1  0  0  0  0  0  0  0  0  0
   -2.9144   -9.0914    4.1083 O   0  0  0  0  0  0  0  0  0  0  0  0
   -2.2005   -7.7556    2.2469 C   0  0  2  0  0  0  0  0  0  0  0  0
   -0.8278   -8.0820    2.4076 O   0  0  0  0  0  0  0  0  0  0  0  0
   -1.6827   -6.4413    0.2341 C   0  0  0  0  0  0  0  0  0  0  0  0
   -1.1799   -5.1358   -0.1528 N   0  3  0  0  0  0  0  0  0  0  0  0
   -3.2251   -0.7600    2.4447 C   0  0  2  0  0  0  0  0  0  0  0  0
   -2.0369   -1.5859    2.8963 C   0  0  0  0  0  0  0  0  0  0  0  0
   -2.5027   -2.8376    3.6168 C   0  0  1  0  0  0  0  0  0  0  0  0
   -3.3486   -3.7497    2.7273 C   0  0  2  0  0  0  0  0  0  0  0  0
   -4.4841   -2.9554    2.0412 C   0  0  1  0  0  0  0  0  0  0  0  0
   -4.1160   -1.5646    1.5078 C   0  0  1  0  0  0  0  0  0  0  0  0
   -2.7534    0.4315    1.7651 N   0  3  0  0  0  0  0  0  0  0  0  0
   -1.3446   -3.5493    4.1215 N   0  3  0  0  0  0  0  0  0  0  0  0
   -5.1221   -3.7333    0.9987 O   0  0  0  0  0  0  0  0  0  0  0  0
   -5.3010   -0.8288    1.2223 O   0  0  0  0  0  0  0  0  0  0  0  0
  1  2  1  0  0  0  0
  3  2  1  1  0  0  0
  3  4  1  0  0  0  0
  3  5  1  0  0  0  0
  4  8  1  0  0  0  0
  5  6  1  0  0  0  0
  5 12  1  6  0  0  0
  6  7  1  6  0  0  0
  6  8  1  0  0  0  0
  8 41  1  1  0  0  0
  9 10  1  0  0  0  0
  9 17  1  0  0  0  0
  9 19  1  6  0  0  0
 10 11  1  0  0  0  0
 11 12  1  6  0  0  0
 11 13  1  0  0  0  0
 13 14  1  6  0  0  0
 13 15  1  0  0  0  0
 15 16  1  1  0  0  0
 15 17  1  0  0  0  0
 17 18  1  6  0  0  0
 19 20  1  0  0  0  0
 21 22  1  0  0  0  0
 21 29  1  0  0  0  0
 21 31  1  6  0  0  0
 22 23  1  0  0  0  0
 23 24  1  1  0  0  0
 23 25  1  0  0  0  0
 25 26  1  1  0  0  0
 25 27  1  0  0  0  0
 27 28  1  6  0  0  0
 27 29  1  0  0  0  0
 29 30  1  1  0  0  0
 31 32  1  0  0  0  0
 33 34  1  0  0  0  0
 33 38  1  0  0  0  0
 33 39  1  6  0  0  0
 34 35  1  0  0  0  0
 35 36  1  0  0  0  0
 35 40  1  6  0  0  0
 36 24  1  1  0  0  0
 36 37  1  0  0  0  0
 37 38  1  0  0  0  0
 37 41  1  6  0  0  0
 38 42  1  1  0  0  0
M  CHG  6  14   1  20   1  26   1  32   1  39   1  40   1
M  END
>  <CHROM.1>
-177.30075947,157.02111268,-106.17637843,-60.15868813,-67.78992913,19.89070783
101.00469349,45.59678143,65.21290833,-63.72079362,-178.33605536,88.16528759
27.01684324,-164.15773797,-145.13134183,70.52735863,50.31118747,63.54526885
-54.54717402,131.89701811,-64.36358755,59.07216475,-4.77918430,-4.20155027
-0.62504308,-2.77280038,1.01964018,2.95421375

>  <Name>


>  <RI>
0

>  <Rbt.Current_Directory>
/home/itssahil/PROJECTS/Mol_Feturizer/New_Systems/rnas/1qd3

>  <Rbt.Executable>
rbdock ($Id: //depot/dev/client3/rdock/2013.1/src/exe/rbdock.cxx#4 $)

>  <Rbt.Library>
libRbt.so (2013.1, Build901 2013/11/27)

>  <Rbt.Parameter_File>
/export/apps/rDock/src/rDock_2013.1_src/data/scripts/dock_solv.prm

>  <Rbt.Receptor>
prm/blind_docking_40.prm

>  <SCORE>
-41.1463

>  <SCORE.INTER>
-31.6716

>  <SCORE.INTER.CONST>
1

>  <SCORE.INTER.POLAR>
-3.52328

>  <SCORE.INTER.ROT>
9

>  <SCORE.INTER.SOLV>
36.9219

>  <SCORE.INTER.VDW>
-31.2775

>  <SCORE.INTER.norm>
-0.754087

>  <SCORE.INTRA>
-14.2795

>  <SCORE.INTRA.DIHEDRAL>
-5.85065

>  <SCORE.INTRA.DIHEDRAL.0>
40.6252

>  <SCORE.INTRA.POLAR>
-0.154639

>  <SCORE.INTRA.POLAR.0>
-1.20161

>  <SCORE.INTRA.REPUL>
-0.115675

>  <SCORE.INTRA.REPUL.0>
0.115675

>  <SCORE.INTRA.SOLV>
-6.06378

>  <SCORE.INTRA.SOLV.lig_0>
-154.895

>  <SCORE.INTRA.VDW>
-7.21811

>  <SCORE.INTRA.VDW.0>
2.2925

>  <SCORE.INTRA.norm>
-0.339988

>  <SCORE.RESTR>
4.80479

>  <SCORE.RESTR.CAVITY>
4.80479

>  <SCORE.RESTR.norm>
0.1144

>  <SCORE.SYSTEM>
0

>  <SCORE.SYSTEM.CONST>
0

>  <SCORE.SYSTEM.DIHEDRAL>
0

>  <SCORE.SYSTEM.SOLV>
0

>  <SCORE.SYSTEM.norm>
0

>  <SCORE.heavy>
42

>  <SCORE.norm>
-0.979675

>  <RMSD>
14.329

$$$$

 OpenBabel11021811413D
libRbt.so/2013.1/901 2013/11/27
 42 45  0  0  0  0  0  0  0  0999 V2000
   -0.5661   -4.0924    7.5386 O   0  0  0  0  0  0  0  0  0  0  0  0
   -1.6592   -4.0429    6.6328 C   0  0  0  0  0  0  0  0  0  0  0  0
   -1.2738   -4.7236    5.3188 C   0  0  1  0  0  0  0  0  0  0  0  0
   -1.4451   -6.1553    5.3991 O   0  0  0  0  0  0  0  0  0  0  0  0
   -2.1151   -4.2726    4.1363 C   0  0  2  0  0  0  0  0  0  0  0  0
   -1.8703   -5.4186    3.1690 C   0  0  1  0  0  0  0  0  0  0  0  0
   -0.5865   -5.2770    2.5708 O   0  0  0  0  0  0  0  0  0  0  0  0
   -1.8799   -6.6443    4.1051 C   0  0  2  0  0  0  0  0  0  0  0  0
   -4.0088   -2.7648    0.8257 C   0  0  2  0  0  0  0  0  0  0  0  0
   -3.5371   -2.9321    2.1714 O   0  0  0  0  0  0  0  0  0  0  0  0
   -2.1096   -2.7757    2.2641 C   0  0  2  0  0  0  0  0  0  0  0  0
   -1.6624   -3.0071    3.6161 O   0  0  0  0  0  0  0  0  0  0  0  0
   -1.6854   -1.3737    1.7938 C   0  0  2  0  0  0  0  0  0  0  0  0
   -1.9783   -0.3794    2.8097 N   0  3  0  0  0  0  0  0  0  0  0  0
   -2.3152   -0.9745    0.4541 C   0  0  1  0  0  0  0  0  0  0  0  0
   -1.6274   -1.6256   -0.6022 O   0  0  0  0  0  0  0  0  0  0  0  0
   -3.8002   -1.3209    0.3871 C   0  0  2  0  0  0  0  0  0  0  0  0
   -4.5421   -0.4424    1.2250 O   0  0  0  0  0  0  0  0  0  0  0  0
   -5.4794   -3.1581    0.7185 C   0  0  0  0  0  0  0  0  0  0  0  0
   -6.0887   -3.2043    2.0343 N   0  3  0  0  0  0  0  0  0  0  0  0
   -3.0838   -5.9924   -0.6674 C   0  0  1  0  0  0  0  0  0  0  0  0
   -2.8711   -5.8983    0.7567 O   0  0  0  0  0  0  0  0  0  0  0  0
   -3.8557   -6.6203    1.5318 C   0  0  2  0  0  0  0  0  0  0  0  0
   -3.7733   -8.0510    1.3177 O   0  0  0  0  0  0  0  0  0  0  0  0
   -5.2665   -6.0973    1.2353 C   0  0  2  0  0  0  0  0  0  0  0  0
   -6.2552   -6.9618    1.8524 N   0  3  0  0  0  0  0  0  0  0  0  0
   -5.5362   -6.0173   -0.2632 C   0  0  1  0  0  0  0  0  0  0  0  0
   -6.7472   -5.3144   -0.4940 O   0  0  0  0  0  0  0  0  0  0  0  0
   -4.4108   -5.3524   -1.0408 C   0  0  2  0  0  0  0  0  0  0  0  0
   -4.6350   -5.4775   -2.4375 O   0  0  0  0  0  0  0  0  0  0  0  0
   -1.9823   -5.2421   -1.4107 C   0  0  0  0  0  0  0  0  0  0  0  0
   -0.9669   -4.7715   -0.4864 N   0  3  0  0  0  0  0  0  0  0  0  0
   -2.6138  -10.9637    4.1938 C   0  0  2  0  0  0  0  0  0  0  0  0
   -1.9270  -10.9847    2.8425 C   0  0  0  0  0  0  0  0  0  0  0  0
   -2.7180  -10.1754    1.8315 C   0  0  1  0  0  0  0  0  0  0  0  0
   -2.8479   -8.7036    2.2263 C   0  0  2  0  0  0  0  0  0  0  0  0
   -3.3512   -8.5633    3.6816 C   0  0  1  0  0  0  0  0  0  0  0  0
   -2.7524   -9.5363    4.7058 C   0  0  1  0  0  0  0  0  0  0  0  0
   -1.8419  -11.7478    5.1389 N   0  3  0  0  0  0  0  0  0  0  0  0
   -2.0886  -10.3007    0.5313 N   0  3  0  0  0  0  0  0  0  0  0  0
   -3.2247   -7.2013    4.1588 O   0  0  0  0  0  0  0  0  0  0  0  0
   -3.5356   -9.5267    5.8948 O   0  0  0  0  0  0  0  0  0  0  0  0
  1  2  1  0  0  0  0
  3  2  1  1  0  0  0
  3  4  1  0  0  0  0
  3  5  1  0  0  0  0
  4  8  1  0  0  0  0
  5  6  1  0  0  0  0
  5 12  1  6  0  0  0
  6  7  1  1  0  0  0
  6  8  1  0  0  0  0
  8 41  1  1  0  0  0
  9 10  1  0  0  0  0
  9 17  1  0  0  0  0
  9 19  1  1  0  0  0
 10 11  1  0  0  0  0
 11 12  1  1  0  0  0
 11 13  1  0  0  0  0
 13 14  1  1  0  0  0
 13 15  1  0  0  0  0
 15 16  1  6  0  0  0
 15 17  1  0  0  0  0
 17 18  1  1  0  0  0
 19 20  1  0  0  0  0
 21 22  1  0  0  0  0
 21 29  1  0  0  0  0
 21 31  1  6  0  0  0
 22 23  1  0  0  0  0
 23 24  1  6  0  0  0
 23 25  1  0  0  0  0
 25 26  1  1  0  0  0
 25 27  1  0  0  0  0
 27 28  1  1  0  0  0
 27 29  1  0  0  0  0
 29 30  1  6  0  0  0
 31 32  1  0  0  0  0
 33 34  1  0  0  0  0
 33 38  1  0  0  0  0
 33 39  1  1  0  0  0
 34 35  1  0  0  0  0
 35 36  1  0  0  0  0
 35 40  1  6  0  0  0
 36 24  1  6  0  0  0
 36 37  1  0  0  0  0
 37 38  1  0  0  0  0
 37 41  1  1  0  0  0
 38 42  1  1  0  0  0
M  CHG  6  14   1  20   1  26   1  32   1  39   1  40   1
M  END
>  <CHROM.1>
-55.06361651,83.33122736,160.06573310,105.79542502,-124.71376002,16.94340301
53.28268275,-24.04092812,72.43492984,60.65154070,126.28908429,5.96492802
88.69459776,-174.13362578,-47.51673556,-165.65988989,-66.10556626,128.50049120
-149.50030109,-72.53866236,-57.03139270,-13.30074634,-3.01581603,-5.55868438
2.19115820,-1.34025949,-1.10853879,-0.19188362

>  <Name>


>  <RI>
0

>  <Rbt.Current_Directory>
/home/itssahil/PROJECTS/Mol_Feturizer/New_Systems/rnas/1qd3

>  <Rbt.Executable>
rbdock ($Id: //depot/dev/client3/rdock/2013.1/src/exe/rbdock.cxx#4 $)

>  <Rbt.Library>
libRbt.so (2013.1, Build901 2013/11/27)

>  <Rbt.Parameter_File>
/export/apps/rDock/src/rDock_2013.1_src/data/scripts/dock_solv.prm

>  <Rbt.Receptor>
prm/blind_docking_40.prm

>  <SCORE>
-40.5998

>  <SCORE.INTER>
-47.7072

>  <SCORE.INTER.CONST>
1

>  <SCORE.INTER.POLAR>
-7.08234

>  <SCORE.INTER.ROT>
9

>  <SCORE.INTER.SOLV>
42.747

>  <SCORE.INTER.VDW>
-32.046

>  <SCORE.INTER.norm>
-1.13589

>  <SCORE.INTRA>
0.400223

>  <SCORE.INTRA.DIHEDRAL>
9.67119

>  <SCORE.INTRA.DIHEDRAL.0>
40.6252

>  <SCORE.INTRA.POLAR>
-0.199114

>  <SCORE.INTRA.POLAR.0>
-1.20161

>  <SCORE.INTRA.REPUL>
-0.109591

>  <SCORE.INTRA.REPUL.0>
0.115675

>  <SCORE.INTRA.SOLV>
0.0342939

>  <SCORE.INTRA.SOLV.lig_0>
-154.895

>  <SCORE.INTRA.VDW>
-3.22758

>  <SCORE.INTRA.VDW.0>
2.2925

>  <SCORE.INTRA.norm>
0.00952912

>  <SCORE.RESTR>
6.7072

>  <SCORE.RESTR.CAVITY>
6.7072

>  <SCORE.RESTR.norm>
0.159695

>  <SCORE.SYSTEM>
0

>  <SCORE.SYSTEM.CONST>
0

>  <SCORE.SYSTEM.DIHEDRAL>
0

>  <SCORE.SYSTEM.SOLV>
0

>  <SCORE.SYSTEM.norm>
0

>  <SCORE.heavy>
42

>  <SCORE.norm>
-0.966662

>  <RMSD>
14.336

$$$$

 OpenBabel11021811413D
libRbt.so/2013.1/901 2013/11/27
 42 45  0  0  0  0  0  0  0  0999 V2000
   -6.4609   -7.7310   -1.2588 O   0  0  0  0  0  0  0  0  0  0  0  0
   -5.1270   -8.1929   -1.4164 C   0  0  0  0  0  0  0  0  0  0  0  0
   -4.1727   -7.0009   -1.4985 C   0  0  1  0  0  0  0  0  0  0  0  0
   -4.7295   -5.9368   -2.3006 O   0  0  0  0  0  0  0  0  0  0  0  0
   -3.8643   -6.3806   -0.1459 C   0  0  2  0  0  0  0  0  0  0  0  0
   -3.3619   -5.0127   -0.5764 C   0  0  1  0  0  0  0  0  0  0  0  0
   -2.0274   -5.1207   -1.0594 O   0  0  0  0  0  0  0  0  0  0  0  0
   -4.3137   -4.6659   -1.7394 C   0  0  2  0  0  0  0  0  0  0  0  0
   -3.0484   -8.2261    4.0493 C   0  0  2  0  0  0  0  0  0  0  0  0
   -2.8609   -8.3012    2.6278 O   0  0  0  0  0  0  0  0  0  0  0  0
   -3.0006   -7.0147    1.9984 C   0  0  2  0  0  0  0  0  0  0  0  0
   -2.8644   -7.1348    0.5671 O   0  0  0  0  0  0  0  0  0  0  0  0
   -1.9626   -6.0237    2.5525 C   0  0  2  0  0  0  0  0  0  0  0  0
   -0.6498   -6.2863    1.9920 N   0  3  0  0  0  0  0  0  0  0  0  0
   -1.9005   -6.0143    4.0844 C   0  0  1  0  0  0  0  0  0  0  0  0
   -2.9986   -5.2754    4.5956 O   0  0  0  0  0  0  0  0  0  0  0  0
   -1.9141   -7.4226    4.6725 C   0  0  2  0  0  0  0  0  0  0  0  0
   -0.6676   -8.0634    4.4271 O   0  0  0  0  0  0  0  0  0  0  0  0
   -3.1215   -9.6242    4.6567 C   0  0  0  0  0  0  0  0  0  0  0  0
   -3.6775   -9.5664    5.9956 N   0  3  0  0  0  0  0  0  0  0  0  0
   -3.1525   -1.0552   -1.2607 C   0  0  1  0  0  0  0  0  0  0  0  0
   -4.2915   -1.8548   -0.8794 O   0  0  0  0  0  0  0  0  0  0  0  0
   -5.5512   -1.3129   -1.3387 C   0  0  2  0  0  0  0  0  0  0  0  0
   -5.6544   -1.3272   -2.7840 O   0  0  0  0  0  0  0  0  0  0  0  0
   -5.7664    0.1002   -0.7831 C   0  0  2  0  0  0  0  0  0  0  0  0
   -6.9215    0.7103   -1.4148 N   0  3  0  0  0  0  0  0  0  0  0  0
   -4.5464    0.9870   -1.0064 C   0  0  1  0  0  0  0  0  0  0  0  0
   -4.6940    2.1955   -0.2771 O   0  0  0  0  0  0  0  0  0  0  0  0
   -3.2381    0.3177   -0.6142 C   0  0  2  0  0  0  0  0  0  0  0  0
   -2.1351    1.1153   -1.0188 O   0  0  0  0  0  0  0  0  0  0  0  0
   -1.8650   -1.7158   -0.7761 C   0  0  0  0  0  0  0  0  0  0  0  0
   -1.7979   -1.7090    0.6738 N   0  3  0  0  0  0  0  0  0  0  0  0
   -8.0907   -4.6416   -3.8695 C   0  0  2  0  0  0  0  0  0  0  0  0
   -7.3664   -3.8984   -4.9745 C   0  0  0  0  0  0  0  0  0  0  0  0
   -6.8906   -2.5445   -4.4812 C   0  0  1  0  0  0  0  0  0  0  0  0
   -5.9048   -2.6541   -3.3171 C   0  0  2  0  0  0  0  0  0  0  0  0
   -6.4618   -3.5725   -2.2049 C   0  0  1  0  0  0  0  0  0  0  0  0
   -7.1763   -4.8483   -2.6696 C   0  0  1  0  0  0  0  0  0  0  0  0
   -8.5394   -5.9279   -4.3677 N   0  3  0  0  0  0  0  0  0  0  0  0
   -6.2940   -1.8226   -5.5881 N   0  3  0  0  0  0  0  0  0  0  0  0
   -5.4437   -3.9021   -1.2283 O   0  0  0  0  0  0  0  0  0  0  0  0
   -7.9191   -5.4051   -1.5902 O   0  0  0  0  0  0  0  0  0  0  0  0
  1  2  1  0  0  0  0
  3  2  1  1  0  0  0
  3  4  1  0  0  0  0
  3  5  1  0  0  0  0
  4  8  1  0  0  0  0
  5  6  1  0  0  0  0
  5 12  1  6  0  0  0
  6  7  1  6  0  0  0
  6  8  1  0  0  0  0
  8 41  1  1  0  0  0
  9 10  1  0  0  0  0
  9 17  1  0  0  0  0
  9 19  1  1  0  0  0
 10 11  1  0  0  0  0
 11 12  1  6  0  0  0
 11 13  1  0  0  0  0
 13 14  1  6  0  0  0
 13 15  1  0  0  0  0
 15 16  1  1  0  0  0
 15 17  1  0  0  0  0
 17 18  1  6  0  0  0
 19 20  1  0  0  0  0
 21 22  1  0  0  0  0
 21 29  1  0  0  0  0
 21 31  1  1  0  0  0
 22 23  1  0  0  0  0
 23 24  1  6  0  0  0
 23 25  1  0  0  0  0
 25 26  1  6  0  0  0
 25 27  1  0  0  0  0
 27 28  1  1  0  0  0
 27 29  1  0  0  0  0
 29 30  1  6  0  0  0
 31 32  1  0  0  0  0
 33 34  1  0  0  0  0
 33 38  1  0  0  0  0
 33 39  1  6  0  0  0
 34 35  1  0  0  0  0
 35 36  1  0  0  0  0
 35 40  1  6  0  0  0
 36 24  1  1  0  0  0
 36 37  1  0  0  0  0
 37 38  1  0  0  0  0
 37 41  1  1  0  0  0
 38 42  1  1  0  0  0
M  CHG  6  14   1  20   1  26   1  32   1  39   1  40   1
M  END
>  <CHROM.1>
-68.14096979,-40.84294060,-151.79330342,-175.24030197,-59.74210169,-163.93750328
135.53646227,-157.99443248,-176.56020690,148.36431661,164.38855576,-66.80244904
75.01393784,141.08680637,-55.14315347,52.72012720,-71.24692288,-167.91884420
53.09470562,-21.45682500,-63.32565716,-174.61511809,-4.32737302,-4.32688013
-0.29481162,0.98646472,0.87719385,2.82957708

>  <Name>


>  <RI>
0

>  <Rbt.Current_Directory>
/home/itssahil/PROJECTS/Mol_Feturizer/New_Systems/rnas/1qd3

>  <Rbt.Executable>
rbdock ($Id: //depot/dev/client3/rdock/2013.1/src/exe/rbdock.cxx#4 $)

>  <Rbt.Library>
libRbt.so (2013.1, Build901 2013/11/27)

>  <Rbt.Parameter_File>
/export/apps/rDock/src/rDock_2013.1_src/data/scripts/dock_solv.prm

>  <Rbt.Receptor>
prm/blind_docking_20.prm

>  <SCORE>
-44.6401

>  <SCORE.INTER>
-35.6268

>  <SCORE.INTER.CONST>
1

>  <SCORE.INTER.POLAR>
-4.88675

>  <SCORE.INTER.ROT>
9

>  <SCORE.INTER.SOLV>
28.7539

>  <SCORE.INTER.VDW>
-26.6466

>  <SCORE.INTER.norm>
-0.848257

>  <SCORE.INTRA>
-9.47973

>  <SCORE.INTRA.DIHEDRAL>
-12.6204

>  <SCORE.INTRA.DIHEDRAL.0>
40.6252

>  <SCORE.INTRA.POLAR>
1.17136

>  <SCORE.INTRA.POLAR.0>
-1.20161

>  <SCORE.INTRA.REPUL>
-0.115675

>  <SCORE.INTRA.REPUL.0>
0.115675

>  <SCORE.INTRA.SOLV>
-9.51646

>  <SCORE.INTRA.SOLV.lig_0>
-154.895

>  <SCORE.INTRA.VDW>
-1.81555

>  <SCORE.INTRA.VDW.0>
2.2925

>  <SCORE.INTRA.norm>
-0.225708

>  <SCORE.RESTR>
0.466421

>  <SCORE.RESTR.CAVITY>
0.466421

>  <SCORE.RESTR.norm>
0.0111053

>  <SCORE.SYSTEM>
0

>  <SCORE.SYSTEM.CONST>
0

>  <SCORE.SYSTEM.DIHEDRAL>
0

>  <SCORE.SYSTEM.SOLV>
0

>  <SCORE.SYSTEM.norm>
0

>  <SCORE.heavy>
42

>  <SCORE.norm>
-1.06286

>  <RMSD>
14.338

$$$$

 OpenBabel11021811413D
libRbt.so/2013.1/901 2013/11/27
 42 45  0  0  0  0  0  0  0  0999 V2000
   -7.3867   -7.1938   -3.4510 O   0  0  0  0  0  0  0  0  0  0  0  0
   -6.8686   -8.0885   -2.4769 C   0  0  0  0  0  0  0  0  0  0  0  0
   -6.6980   -7.3598   -1.1434 C   0  0  1  0  0  0  0  0  0  0  0  0
   -5.9810   -8.1725   -0.1889 O   0  0  0  0  0  0  0  0  0  0  0  0
   -5.9091   -6.0661   -1.2595 C   0  0  2  0  0  0  0  0  0  0  0  0
   -5.4882   -5.8675    0.1870 C   0  0  1  0  0  0  0  0  0  0  0  0
   -6.5861   -5.3689    0.9432 O   0  0  0  0  0  0  0  0  0  0  0  0
   -5.1564   -7.3066    0.6315 C   0  0  2  0  0  0  0  0  0  0  0  0
   -6.6486   -3.7927   -5.1991 C   0  0  2  0  0  0  0  0  0  0  0  0
   -7.1745   -4.3441   -3.9822 O   0  0  0  0  0  0  0  0  0  0  0  0
   -6.1876   -4.3749   -2.9353 C   0  0  2  0  0  0  0  0  0  0  0  0
   -6.7304   -4.9867   -1.7468 O   0  0  0  0  0  0  0  0  0  0  0  0
   -5.6832   -2.9556   -2.6228 C   0  0  2  0  0  0  0  0  0  0  0  0
   -6.6611   -2.2224   -1.8401 N   0  3  0  0  0  0  0  0  0  0  0  0
   -5.2992   -2.1653   -3.8792 C   0  0  1  0  0  0  0  0  0  0  0  0
   -4.0307   -2.6021   -4.3408 O   0  0  0  0  0  0  0  0  0  0  0  0
   -6.3291   -2.3173   -4.9953 C   0  0  2  0  0  0  0  0  0  0  0  0
   -7.5131   -1.6010   -4.6642 O   0  0  0  0  0  0  0  0  0  0  0  0
   -7.6371   -3.9812   -6.3463 C   0  0  0  0  0  0  0  0  0  0  0  0
   -8.3069   -5.2632   -6.2324 N   0  3  0  0  0  0  0  0  0  0  0  0
   -2.6805   -2.5083    2.2167 C   0  0  1  0  0  0  0  0  0  0  0  0
   -3.8116   -3.3879    2.0460 O   0  0  0  0  0  0  0  0  0  0  0  0
   -3.4690   -4.6471    1.4229 C   0  0  2  0  0  0  0  0  0  0  0  0
   -2.5988   -5.4486    2.2597 O   0  0  0  0  0  0  0  0  0  0  0  0
   -2.8464   -4.4146    0.0409 C   0  0  2  0  0  0  0  0  0  0  0  0
   -2.3173   -5.6612   -0.4803 N   0  3  0  0  0  0  0  0  0  0  0  0
   -1.7291   -3.3784    0.0917 C   0  0  1  0  0  0  0  0  0  0  0  0
   -1.3465   -3.0230   -1.2280 O   0  0  0  0  0  0  0  0  0  0  0  0
   -2.1092   -2.1232    0.8619 C   0  0  2  0  0  0  0  0  0  0  0  0
   -0.9746   -1.2864    1.0328 O   0  0  0  0  0  0  0  0  0  0  0  0
   -3.1180   -1.2248    2.9167 C   0  0  0  0  0  0  0  0  0  0  0  0
   -3.8960   -0.3897    2.0200 N   0  3  0  0  0  0  0  0  0  0  0  0
   -2.6072   -9.5182    3.4997 C   0  0  2  0  0  0  0  0  0  0  0  0
   -3.0807   -8.4716    4.4889 C   0  0  0  0  0  0  0  0  0  0  0  0
   -2.6408   -7.0874    4.0495 C   0  0  1  0  0  0  0  0  0  0  0  0
   -3.2183   -6.6888    2.6906 C   0  0  2  0  0  0  0  0  0  0  0  0
   -2.9713   -7.7946    1.6385 C   0  0  1  0  0  0  0  0  0  0  0  0
   -3.1684   -9.2408    2.1116 C   0  0  1  0  0  0  0  0  0  0  0  0
   -3.0350  -10.8307    3.9451 N   0  3  0  0  0  0  0  0  0  0  0  0
   -3.0216   -6.1268    5.0667 N   0  3  0  0  0  0  0  0  0  0  0  0
   -3.7361   -7.5594    0.4307 O   0  0  0  0  0  0  0  0  0  0  0  0
   -2.5886  -10.1388    1.1711 O   0  0  0  0  0  0  0  0  0  0  0  0
  1  2  1  0  0  0  0
  3  2  1  6  0  0  0
  3  4  1  0  0  0  0
  3  5  1  0  0  0  0
  4  8  1  0  0  0  0
  5  6  1  0  0  0  0
  5 12  1  1  0  0  0
  6  7  1  1  0  0  0
  6  8  1  0  0  0  0
  8 41  1  6  0  0  0
  9 10  1  0  0  0  0
  9 17  1  0  0  0  0
  9 19  1  6  0  0  0
 10 11  1  0  0  0  0
 11 12  1  1  0  0  0
 11 13  1  0  0  0  0
 13 14  1  6  0  0  0
 13 15  1  0  0  0  0
 15 16  1  6  0  0  0
 15 17  1  0  0  0  0
 17 18  1  1  0  0  0
 19 20  1  0  0  0  0
 21 22  1  0  0  0  0
 21 29  1  0  0  0  0
 21 31  1  6  0  0  0
 22 23  1  0  0  0  0
 23 24  1  1  0  0  0
 23 25  1  0  0  0  0
 25 26  1  1  0  0  0
 25 27  1  0  0  0  0
 27 28  1  6  0  0  0
 27 29  1  0  0  0  0
 29 30  1  1  0  0  0
 31 32  1  0  0  0  0
 33 34  1  0  0  0  0
 33 38  1  0  0  0  0
 33 39  1  1  0  0  0
 34 35  1  0  0  0  0
 35 36  1  0  0  0  0
 35 40  1  1  0  0  0
 36 24  1  6  0  0  0
 36 37  1  0  0  0  0
 37 38  1  0  0  0  0
 37 41  1  6  0  0  0
 38 42  1  6  0  0  0
M  CHG  6  14   1  20   1  26   1  32   1  39   1  40   1
M  END
>  <CHROM.1>
-164.47382373,-170.96578501,-123.85798465,73.47075208,-127.91759533,-37.25689332
126.84554809,-152.68243101,-64.48810371,46.15368590,-167.14447504,-72.52966470
115.62176445,-150.40229370,55.34521276,178.57952671,56.84746621,-171.30211604
-171.02087232,75.72323306,-50.85356385,65.22599840,-4.52213960,-5.15155406
-0.33473706,2.37804802,-0.94459462,-0.39220775

>  <Name>


>  <RI>
0

>  <Rbt.Current_Directory>
/home/itssahil/PROJECTS/Mol_Feturizer/New_Systems/rnas/1qd3

>  <Rbt.Executable>
rbdock ($Id: //depot/dev/client3/rdock/2013.1/src/exe/rbdock.cxx#4 $)

>  <Rbt.Library>
libRbt.so (2013.1, Build901 2013/11/27)

>  <Rbt.Parameter_File>
/export/apps/rDock/src/rDock_2013.1_src/data/scripts/dock_solv.prm

>  <Rbt.Receptor>
prm/blind_docking_60.prm

>  <SCORE>
-44.1717

>  <SCORE.INTER>
-40.4181

>  <SCORE.INTER.CONST>
1

>  <SCORE.INTER.POLAR>
-7.34648

>  <SCORE.INTER.ROT>
9

>  <SCORE.INTER.SOLV>
30.3967

>  <SCORE.INTER.VDW>
-22.1894

>  <SCORE.INTER.norm>
-0.962335

>  <SCORE.INTRA>
-8.07094

>  <SCORE.INTRA.DIHEDRAL>
1.06083

>  <SCORE.INTRA.DIHEDRAL.0>
40.6252

>  <SCORE.INTRA.POLAR>
0.199549

>  <SCORE.INTRA.POLAR.0>
-1.20161

>  <SCORE.INTRA.REPUL>
-0.10745

>  <SCORE.INTRA.REPUL.0>
0.115675

>  <SCORE.INTRA.SOLV>
-4.91701

>  <SCORE.INTRA.SOLV.lig_0>
-154.895

>  <SCORE.INTRA.VDW>
-6.28407

>  <SCORE.INTRA.VDW.0>
2.2925

>  <SCORE.INTRA.norm>
-0.192165

>  <SCORE.RESTR>
4.31734

>  <SCORE.RESTR.CAVITY>
4.31734

>  <SCORE.RESTR.norm>
0.102794

>  <SCORE.SYSTEM>
0

>  <SCORE.SYSTEM.CONST>
0

>  <SCORE.SYSTEM.DIHEDRAL>
0

>  <SCORE.SYSTEM.SOLV>
0

>  <SCORE.SYSTEM.norm>
0

>  <SCORE.heavy>
42

>  <SCORE.norm>
-1.05171

>  <RMSD>
14.347

$$$$

 OpenBabel11021811413D
libRbt.so/2013.1/901 2013/11/27
 42 45  0  0  0  0  0  0  0  0999 V2000
   -6.5462   -4.8854   -4.4369 O   0  0  0  0  0  0  0  0  0  0  0  0
   -6.5373   -3.8081   -3.5110 C   0  0  0  0  0  0  0  0  0  0  0  0
   -5.2855   -3.8877   -2.6363 C   0  0  1  0  0  0  0  0  0  0  0  0
   -5.0359   -2.6354   -1.9616 O   0  0  0  0  0  0  0  0  0  0  0  0
   -5.3812   -4.9357   -1.5399 C   0  0  2  0  0  0  0  0  0  0  0  0
   -4.2973   -4.4467   -0.5939 C   0  0  1  0  0  0  0  0  0  0  0  0
   -3.0172   -4.8028   -1.1041 O   0  0  0  0  0  0  0  0  0  0  0  0
   -4.4778   -2.9162   -0.6529 C   0  0  2  0  0  0  0  0  0  0  0  0
   -7.9435   -8.2063   -3.2912 C   0  0  2  0  0  0  0  0  0  0  0  0
   -6.7544   -7.4019   -3.3145 O   0  0  0  0  0  0  0  0  0  0  0  0
   -6.2735   -7.1148   -1.9890 C   0  0  2  0  0  0  0  0  0  0  0  0
   -5.1140   -6.2582   -2.0465 O   0  0  0  0  0  0  0  0  0  0  0  0
   -5.9399   -8.4157   -1.2388 C   0  0  2  0  0  0  0  0  0  0  0  0
   -4.6810   -8.9691   -1.7028 N   0  3  0  0  0  0  0  0  0  0  0  0
   -7.0545   -9.4644   -1.3320 C   0  0  1  0  0  0  0  0  0  0  0  0
   -8.1003   -9.1209   -0.4369 O   0  0  0  0  0  0  0  0  0  0  0  0
   -7.6134   -9.5903   -2.7467 C   0  0  2  0  0  0  0  0  0  0  0  0
   -6.6639  -10.2341   -3.5884 O   0  0  0  0  0  0  0  0  0  0  0  0
   -8.5550   -8.3029   -4.6860 C   0  0  0  0  0  0  0  0  0  0  0  0
   -8.4313   -7.0361   -5.3822 N   0  3  0  0  0  0  0  0  0  0  0  0
   -3.1618   -6.1518    4.3002 C   0  0  1  0  0  0  0  0  0  0  0  0
   -2.7954   -5.7556    2.9620 O   0  0  0  0  0  0  0  0  0  0  0  0
   -3.8552   -5.0687    2.2575 C   0  0  2  0  0  0  0  0  0  0  0  0
   -4.1723   -3.7915    2.8643 O   0  0  0  0  0  0  0  0  0  0  0  0
   -5.1011   -5.9571    2.1561 C   0  0  2  0  0  0  0  0  0  0  0  0
   -6.2176   -5.1875    1.6395 N   0  3  0  0  0  0  0  0  0  0  0  0
   -5.4838   -6.5499    3.5076 C   0  0  1  0  0  0  0  0  0  0  0  0
   -6.4844   -7.5405    3.3290 O   0  0  0  0  0  0  0  0  0  0  0  0
   -4.3040   -7.1536    4.2540 C   0  0  2  0  0  0  0  0  0  0  0  0
   -4.6871   -7.5153    5.5727 O   0  0  0  0  0  0  0  0  0  0  0  0
   -1.9792   -6.8292    4.9866 C   0  0  0  0  0  0  0  0  0  0  0  0
   -0.9112   -5.8768    5.2293 N   0  3  0  0  0  0  0  0  0  0  0  0
   -3.4495    0.3331    2.1126 C   0  0  2  0  0  0  0  0  0  0  0  0
   -2.2696   -0.5381    2.4962 C   0  0  0  0  0  0  0  0  0  0  0  0
   -2.7481   -1.8415    3.1086 C   0  0  1  0  0  0  0  0  0  0  0  0
   -3.5993   -2.6687    2.1442 C   0  0  2  0  0  0  0  0  0  0  0  0
   -4.7260   -1.8099    1.5245 C   0  0  1  0  0  0  0  0  0  0  0  0
   -4.3445   -0.3827    1.1100 C   0  0  1  0  0  0  0  0  0  0  0  0
   -2.9657    1.5729    1.5360 N   0  3  0  0  0  0  0  0  0  0  0  0
   -1.5977   -2.6030    3.5546 N   0  3  0  0  0  0  0  0  0  0  0  0
   -5.3678   -2.4924    0.4194 O   0  0  0  0  0  0  0  0  0  0  0  0
   -5.5224    0.3847    0.8845 O   0  0  0  0  0  0  0  0  0  0  0  0
  1  2  1  0  0  0  0
  3  2  1  1  0  0  0
  3  4  1  0  0  0  0
  3  5  1  0  0  0  0
  4  8  1  0  0  0  0
  5  6  1  0  0  0  0
  5 12  1  6  0  0  0
  6  7  1  6  0  0  0
  6  8  1  0  0  0  0
  8 41  1  1  0  0  0
  9 10  1  0  0  0  0
  9 17  1  0  0  0  0
  9 19  1  6  0  0  0
 10 11  1  0  0  0  0
 11 12  1  6  0  0  0
 11 13  1  0  0  0  0
 13 14  1  6  0  0  0
 13 15  1  0  0  0  0
 15 16  1  1  0  0  0
 15 17  1  0  0  0  0
 17 18  1  6  0  0  0
 19 20  1  0  0  0  0
 21 22  1  0  0  0  0
 21 29  1  0  0  0  0
 21 31  1  6  0  0  0
 22 23  1  0  0  0  0
 23 24  1  1  0  0  0
 23 25  1  0  0  0  0
 25 26  1  1  0  0  0
 25 27  1  0  0  0  0
 27 28  1  6  0  0  0
 27 29  1  0  0  0  0
 29 30  1  1  0  0  0
 31 32  1  0  0  0  0
 33 34  1  0  0  0  0
 33 38  1  0  0  0  0
 33 39  1  6  0  0  0
 34 35  1  0  0  0  0
 35 36  1  0  0  0  0
 35 40  1  6  0  0  0
 36 24  1  1  0  0  0
 36 37  1  0  0  0  0
 37 38  1  0  0  0  0
 37 41  1  6  0  0  0
 38 42  1  1  0  0  0
M  CHG  6  14   1  20   1  26   1  32   1  39   1  40   1
M  END
>  <CHROM.1>
55.16887125,163.41611442,-113.91794355,-173.16278739,-136.47820071,-38.03577592
111.06805423,77.81292787,-38.88531494,-170.26924050,-90.51215922,67.71634445
101.77503847,-124.43361084,-78.54328837,47.91350306,-57.44810048,101.94119146
169.06063038,-1.50946307,-56.11407621,-171.24954678,-4.98229671,-5.15655959
0.31636718,2.91074990,1.10296283,2.67397782

>  <Name>


>  <RI>
0

>  <Rbt.Current_Directory>
/home/itssahil/PROJECTS/Mol_Feturizer/New_Systems/rnas/1qd3

>  <Rbt.Executable>
rbdock ($Id: //depot/dev/client3/rdock/2013.1/src/exe/rbdock.cxx#4 $)

>  <Rbt.Library>
libRbt.so (2013.1, Build901 2013/11/27)

>  <Rbt.Parameter_File>
/export/apps/rDock/src/rDock_2013.1_src/data/scripts/dock_solv.prm

>  <Rbt.Receptor>
prm/blind_docking_60.prm

>  <SCORE>
-40.2797

>  <SCORE.INTER>
-27.1439

>  <SCORE.INTER.CONST>
1

>  <SCORE.INTER.POLAR>
-3.75099

>  <SCORE.INTER.ROT>
9

>  <SCORE.INTER.SOLV>
34.1634

>  <SCORE.INTER.VDW>
-26.5804

>  <SCORE.INTER.norm>
-0.646284

>  <SCORE.INTRA>
-13.3203

>  <SCORE.INTRA.DIHEDRAL>
8.0212

>  <SCORE.INTRA.DIHEDRAL.0>
40.6252

>  <SCORE.INTRA.POLAR>
-2.04245

>  <SCORE.INTRA.POLAR.0>
-1.20161

>  <SCORE.INTRA.REPUL>
-0.115675

>  <SCORE.INTRA.REPUL.0>
0.115675

>  <SCORE.INTRA.SOLV>
-3.58373

>  <SCORE.INTRA.SOLV.lig_0>
-154.895

>  <SCORE.INTRA.VDW>
-8.01635

>  <SCORE.INTRA.VDW.0>
2.2925

>  <SCORE.INTRA.norm>
-0.31715

>  <SCORE.RESTR>
0.184571

>  <SCORE.RESTR.CAVITY>
0.184571

>  <SCORE.RESTR.norm>
0.00439456

>  <SCORE.SYSTEM>
0

>  <SCORE.SYSTEM.CONST>
0

>  <SCORE.SYSTEM.DIHEDRAL>
0

>  <SCORE.SYSTEM.SOLV>
0

>  <SCORE.SYSTEM.norm>
0

>  <SCORE.heavy>
42

>  <SCORE.norm>
-0.95904

>  <RMSD>
14.350

$$$$

 OpenBabel11021811413D
libRbt.so/2013.1/901 2013/11/27
 42 45  0  0  0  0  0  0  0  0999 V2000
   -5.6895   -9.4274   -1.4454 O   0  0  0  0  0  0  0  0  0  0  0  0
   -6.4546   -8.4226   -2.0955 C   0  0  0  0  0  0  0  0  0  0  0  0
   -6.6696   -7.2416   -1.1482 C   0  0  1  0  0  0  0  0  0  0  0  0
   -6.0258   -7.4658    0.1250 O   0  0  0  0  0  0  0  0  0  0  0  0
   -6.1002   -5.9346   -1.6745 C   0  0  2  0  0  0  0  0  0  0  0  0
   -6.0067   -5.1344   -0.3862 C   0  0  1  0  0  0  0  0  0  0  0  0
   -7.2978   -4.6606   -0.0195 O   0  0  0  0  0  0  0  0  0  0  0  0
   -5.5319   -6.1974    0.6253 C   0  0  2  0  0  0  0  0  0  0  0  0
   -6.3679   -3.3633   -5.6610 C   0  0  2  0  0  0  0  0  0  0  0  0
   -7.0592   -4.2021   -4.7228 O   0  0  0  0  0  0  0  0  0  0  0  0
   -6.2825   -4.4321   -3.5334 C   0  0  2  0  0  0  0  0  0  0  0  0
   -6.9799   -5.3239   -2.6390 O   0  0  0  0  0  0  0  0  0  0  0  0
   -5.9681   -3.1033   -2.8250 C   0  0  2  0  0  0  0  0  0  0  0  0
   -7.1325   -2.6123   -2.1113 N   0  3  0  0  0  0  0  0  0  0  0  0
   -5.4290   -2.0291   -3.7769 C   0  0  1  0  0  0  0  0  0  0  0  0
   -4.0646   -2.2938   -4.0615 O   0  0  0  0  0  0  0  0  0  0  0  0
   -6.2194   -1.9625   -5.0809 C   0  0  2  0  0  0  0  0  0  0  0  0
   -7.5012   -1.3923   -4.8433 O   0  0  0  0  0  0  0  0  0  0  0  0
   -7.1089   -3.3234   -6.9944 C   0  0  0  0  0  0  0  0  0  0  0  0
   -8.4383   -2.7694   -6.8189 N   0  3  0  0  0  0  0  0  0  0  0  0
   -3.1830   -3.3829    1.1085 C   0  0  1  0  0  0  0  0  0  0  0  0
   -2.4262   -4.5278    1.5541 O   0  0  0  0  0  0  0  0  0  0  0  0
   -2.4487   -4.7060    2.9891 C   0  0  2  0  0  0  0  0  0  0  0  0
   -3.7756   -5.0247    3.4764 O   0  0  0  0  0  0  0  0  0  0  0  0
   -1.8825   -3.4687    3.6963 C   0  0  2  0  0  0  0  0  0  0  0  0
   -2.1038   -3.5710    5.1267 N   0  3  0  0  0  0  0  0  0  0  0  0
   -2.5193   -2.1826    3.1814 C   0  0  1  0  0  0  0  0  0  0  0  0
   -1.8077   -1.0623    3.6842 O   0  0  0  0  0  0  0  0  0  0  0  0
   -2.5736   -2.1058    1.6634 C   0  0  2  0  0  0  0  0  0  0  0  0
   -3.3403   -0.9830    1.2532 O   0  0  0  0  0  0  0  0  0  0  0  0
   -3.1436   -3.2912   -0.4143 C   0  0  0  0  0  0  0  0  0  0  0  0
   -1.7734   -3.2754   -0.8930 N   0  3  0  0  0  0  0  0  0  0  0  0
   -3.1150   -9.1794    2.8427 C   0  0  2  0  0  0  0  0  0  0  0  0
   -3.9750   -8.7669    4.0210 C   0  0  0  0  0  0  0  0  0  0  0  0
   -3.7773   -7.2952    4.3339 C   0  0  1  0  0  0  0  0  0  0  0  0
   -4.1756   -6.3863    3.1702 C   0  0  2  0  0  0  0  0  0  0  0  0
   -3.5086   -6.8481    1.8539 C   0  0  1  0  0  0  0  0  0  0  0  0
   -3.4659   -8.3619    1.6069 C   0  0  1  0  0  0  0  0  0  0  0  0
   -3.3179  -10.5892    2.5682 N   0  3  0  0  0  0  0  0  0  0  0  0
   -4.5346   -6.9607    5.5242 N   0  3  0  0  0  0  0  0  0  0  0  0
   -4.0777   -6.1741    0.7047 O   0  0  0  0  0  0  0  0  0  0  0  0
   -2.5451   -8.6537    0.5609 O   0  0  0  0  0  0  0  0  0  0  0  0
  1  2  1  0  0  0  0
  3  2  1  6  0  0  0
  3  4  1  0  0  0  0
  3  5  1  0  0  0  0
  4  8  1  0  0  0  0
  5  6  1  0  0  0  0
  5 12  1  6  0  0  0
  6  7  1  1  0  0  0
  6  8  1  0  0  0  0
  8 41  1  6  0  0  0
  9 10  1  0  0  0  0
  9 17  1  0  0  0  0
  9 19  1  6  0  0  0
 10 11  1  0  0  0  0
 11 12  1  1  0  0  0
 11 13  1  0  0  0  0
 13 14  1  6  0  0  0
 13 15  1  0  0  0  0
 15 16  1  6  0  0  0
 15 17  1  0  0  0  0
 17 18  1  1  0  0  0
 19 20  1  0  0  0  0
 21 22  1  0  0  0  0
 21 29  1  0  0  0  0
 21 31  1  6  0  0  0
 22 23  1  0  0  0  0
 23 24  1  1  0  0  0
 23 25  1  0  0  0  0
 25 26  1  1  0  0  0
 25 27  1  0  0  0  0
 27 28  1  6  0  0  0
 27 29  1  0  0  0  0
 29 30  1  1  0  0  0
 31 32  1  0  0  0  0
 33 34  1  0  0  0  0
 33 38  1  0  0  0  0
 33 39  1  6  0  0  0
 34 35  1  0  0  0  0
 35 36  1  0  0  0  0
 35 40  1  1  0  0  0
 36 24  1  1  0  0  0
 36 37  1  0  0  0  0
 37 38  1  0  0  0  0
 37 41  1  6  0  0  0
 38 42  1  6  0  0  0
M  CHG  6  14   1  20   1  26   1  32   1  39   1  40   1
M  END
>  <CHROM.1>
50.89540021,0.78715109,-156.30197121,-116.16081691,-79.06883812,61.37183591
160.60735773,138.21858822,52.97939665,62.27740882,156.48715139,-54.85645487
74.05313470,91.45171107,13.37728990,55.86599305,61.93327319,-138.52340379
-120.17365598,77.40766448,-50.35079656,-64.58998455,-4.67161091,-4.93616140
-0.13400184,2.42775119,-1.03110412,-0.42636081

>  <Name>


>  <RI>
0

>  <Rbt.Current_Directory>
/home/itssahil/PROJECTS/Mol_Feturizer/New_Systems/rnas/1qd3

>  <Rbt.Executable>
rbdock ($Id: //depot/dev/client3/rdock/2013.1/src/exe/rbdock.cxx#4 $)

>  <Rbt.Library>
libRbt.so (2013.1, Build901 2013/11/27)

>  <Rbt.Parameter_File>
/export/apps/rDock/src/rDock_2013.1_src/data/scripts/dock_solv.prm

>  <Rbt.Receptor>
prm/blind_docking_40.prm

>  <SCORE>
-52.5973

>  <SCORE.INTER>
-49.962

>  <SCORE.INTER.CONST>
1

>  <SCORE.INTER.POLAR>
-8.022

>  <SCORE.INTER.ROT>
9

>  <SCORE.INTER.SOLV>
38.5129

>  <SCORE.INTER.VDW>
-29.0057

>  <SCORE.INTER.norm>
-1.18957

>  <SCORE.INTRA>
-4.97399

>  <SCORE.INTRA.DIHEDRAL>
-2.41113

>  <SCORE.INTRA.DIHEDRAL.0>
40.6252

>  <SCORE.INTRA.POLAR>
0.883719

>  <SCORE.INTRA.POLAR.0>
-1.20161

>  <SCORE.INTRA.REPUL>
-0.115675

>  <SCORE.INTRA.REPUL.0>
0.115675

>  <SCORE.INTRA.SOLV>
-5.54863

>  <SCORE.INTRA.SOLV.lig_0>
-154.895

>  <SCORE.INTRA.VDW>
-3.42038

>  <SCORE.INTRA.VDW.0>
2.2925

>  <SCORE.INTRA.norm>
-0.118428

>  <SCORE.RESTR>
2.33875

>  <SCORE.RESTR.CAVITY>
2.33875

>  <SCORE.RESTR.norm>
0.0556846

>  <SCORE.SYSTEM>
0

>  <SCORE.SYSTEM.CONST>
0

>  <SCORE.SYSTEM.DIHEDRAL>
0

>  <SCORE.SYSTEM.SOLV>
0

>  <SCORE.SYSTEM.norm>
0

>  <SCORE.heavy>
42

>  <SCORE.norm>
-1.25232

>  <RMSD>
14.361

$$$$

 OpenBabel11021811413D
libRbt.so/2013.1/901 2013/11/27
 42 45  0  0  0  0  0  0  0  0999 V2000
    0.0684   -2.9292    6.5687 O   0  0  0  0  0  0  0  0  0  0  0  0
   -0.9473   -2.7299    5.5959 C   0  0  0  0  0  0  0  0  0  0  0  0
   -0.7572   -3.7130    4.4401 C   0  0  1  0  0  0  0  0  0  0  0  0
   -0.9941   -5.0732    4.8634 O   0  0  0  0  0  0  0  0  0  0  0  0
   -1.7072   -3.4702    3.2790 C   0  0  2  0  0  0  0  0  0  0  0  0
   -1.6402   -4.8176    2.5799 C   0  0  1  0  0  0  0  0  0  0  0  0
   -0.4306   -4.9138    1.8360 O   0  0  0  0  0  0  0  0  0  0  0  0
   -1.6046   -5.8009    3.7676 C   0  0  2  0  0  0  0  0  0  0  0  0
   -2.9963    0.2889    0.6710 C   0  0  2  0  0  0  0  0  0  0  0  0
   -1.9213   -0.4271    1.2981 O   0  0  0  0  0  0  0  0  0  0  0  0
   -2.3382   -1.7233    1.7637 C   0  0  2  0  0  0  0  0  0  0  0  0
   -1.2522   -2.3911    2.4391 O   0  0  0  0  0  0  0  0  0  0  0  0
   -2.8485   -2.5821    0.5939 C   0  0  2  0  0  0  0  0  0  0  0  0
   -1.7401   -3.0912   -0.1928 N   0  3  0  0  0  0  0  0  0  0  0  0
   -3.8479   -1.8415   -0.3025 C   0  0  1  0  0  0  0  0  0  0  0  0
   -5.1160   -1.8088    0.3329 O   0  0  0  0  0  0  0  0  0  0  0  0
   -3.3974   -0.4177   -0.6177 C   0  0  2  0  0  0  0  0  0  0  0  0
   -2.3003   -0.4447   -1.5233 O   0  0  0  0  0  0  0  0  0  0  0  0
   -2.5910    1.7340    0.3947 C   0  0  0  0  0  0  0  0  0  0  0  0
   -3.7494    2.5216    0.0171 N   0  3  0  0  0  0  0  0  0  0  0  0
   -4.9332   -6.3321    1.8780 C   0  0  1  0  0  0  0  0  0  0  0  0
   -4.9014   -7.7440    2.1737 O   0  0  0  0  0  0  0  0  0  0  0  0
   -3.9167   -8.4690    1.4016 C   0  0  2  0  0  0  0  0  0  0  0  0
   -2.5640   -8.0699    1.7343 O   0  0  0  0  0  0  0  0  0  0  0  0
   -4.1856   -8.3130   -0.1001 C   0  0  2  0  0  0  0  0  0  0  0  0
   -3.0795   -8.8633   -0.8613 N   0  3  0  0  0  0  0  0  0  0  0  0
   -4.3844   -6.8524   -0.4898 C   0  0  1  0  0  0  0  0  0  0  0  0
   -4.8599   -6.7744   -1.8247 O   0  0  0  0  0  0  0  0  0  0  0  0
   -5.3413   -6.1106    0.4307 C   0  0  2  0  0  0  0  0  0  0  0  0
   -5.3374   -4.7224    0.1314 O   0  0  0  0  0  0  0  0  0  0  0  0
   -5.9646   -5.6364    2.7616 C   0  0  0  0  0  0  0  0  0  0  0  0
   -7.0176   -6.5583    3.1461 N   0  3  0  0  0  0  0  0  0  0  0  0
   -3.2182   -9.7111    5.6045 C   0  0  2  0  0  0  0  0  0  0  0  0
   -2.0937  -10.2879    4.7674 C   0  0  0  0  0  0  0  0  0  0  0  0
   -2.2548   -9.8877    3.3125 C   0  0  1  0  0  0  0  0  0  0  0  0
   -2.2100   -8.3726    3.1093 C   0  0  2  0  0  0  0  0  0  0  0  0
   -3.1831   -7.6559    4.0739 C   0  0  1  0  0  0  0  0  0  0  0  0
   -3.2349   -8.1913    5.5109 C   0  0  1  0  0  0  0  0  0  0  0  0
   -3.0442  -10.1124    6.9874 N   0  3  0  0  0  0  0  0  0  0  0  0
   -1.2233  -10.5378    2.5279 N   0  3  0  0  0  0  0  0  0  0  0  0
   -2.9614   -6.2242    4.0859 O   0  0  0  0  0  0  0  0  0  0  0  0
   -4.3875   -7.6821    6.1736 O   0  0  0  0  0  0  0  0  0  0  0  0
  1  2  1  0  0  0  0
  3  2  1  1  0  0  0
  3  4  1  0  0  0  0
  3  5  1  0  0  0  0
  4  8  1  0  0  0  0
  5  6  1  0  0  0  0
  5 12  1  6  0  0  0
  6  7  1  1  0  0  0
  6  8  1  0  0  0  0
  8 41  1  1  0  0  0
  9 10  1  0  0  0  0
  9 17  1  0  0  0  0
  9 19  1  6  0  0  0
 10 11  1  0  0  0  0
 11 12  1  6  0  0  0
 11 13  1  0  0  0  0
 13 14  1  6  0  0  0
 13 15  1  0  0  0  0
 15 16  1  1  0  0  0
 15 17  1  0  0  0  0
 17 18  1  6  0  0  0
 19 20  1  0  0  0  0
 21 22  1  0  0  0  0
 21 29  1  0  0  0  0
 21 31  1  1  0  0  0
 22 23  1  0  0  0  0
 23 24  1  6  0  0  0
 23 25  1  0  0  0  0
 25 26  1  6  0  0  0
 25 27  1  0  0  0  0
 27 28  1  6  0  0  0
 27 29  1  0  0  0  0
 29 30  1  6  0  0  0
 31 32  1  0  0  0  0
 33 34  1  0  0  0  0
 33 38  1  0  0  0  0
 33 39  1  1  0  0  0
 34 35  1  0  0  0  0
 35 36  1  0  0  0  0
 35 40  1  6  0  0  0
 36 24  1  6  0  0  0
 36 37  1  0  0  0  0
 37 38  1  0  0  0  0
 37 41  1  1  0  0  0
 38 42  1  6  0  0  0
M  CHG  6  14   1  20   1  26   1  32   1  39   1  40   1
M  END
>  <CHROM.1>
49.48886221,67.27435734,-152.40819767,65.75003970,-119.03051335,-168.44106754
161.45861805,80.14584437,-65.61527690,164.73766460,-163.62089430,-27.25650558
63.55489783,63.00290810,-56.79399680,-57.12369356,-179.63588957,-165.32210162
-79.28170439,-50.08310378,-27.63608122,-53.25909062,-3.00925747,-5.14890511
2.22640002,-1.52171787,1.03590184,2.70727635

>  <Name>


>  <RI>
0

>  <Rbt.Current_Directory>
/home/itssahil/PROJECTS/Mol_Feturizer/New_Systems/rnas/1qd3

>  <Rbt.Executable>
rbdock ($Id: //depot/dev/client3/rdock/2013.1/src/exe/rbdock.cxx#4 $)

>  <Rbt.Library>
libRbt.so (2013.1, Build901 2013/11/27)

>  <Rbt.Parameter_File>
/export/apps/rDock/src/rDock_2013.1_src/data/scripts/dock_solv.prm

>  <Rbt.Receptor>
prm/blind_docking_100.prm

>  <SCORE>
-63.4975

>  <SCORE.INTER>
-42.3117

>  <SCORE.INTER.CONST>
1

>  <SCORE.INTER.POLAR>
-6.58901

>  <SCORE.INTER.ROT>
9

>  <SCORE.INTER.SOLV>
34.3808

>  <SCORE.INTER.VDW>
-27.3047

>  <SCORE.INTER.norm>
-1.00742

>  <SCORE.INTRA>
-22.1913

>  <SCORE.INTRA.DIHEDRAL>
-15.0577

>  <SCORE.INTRA.DIHEDRAL.0>
40.6252

>  <SCORE.INTRA.POLAR>
-0.983589

>  <SCORE.INTRA.POLAR.0>
-1.20161

>  <SCORE.INTRA.REPUL>
-0.115675

>  <SCORE.INTRA.REPUL.0>
0.115675

>  <SCORE.INTRA.SOLV>
-8.40254

>  <SCORE.INTRA.SOLV.lig_0>
-154.895

>  <SCORE.INTRA.VDW>
-6.53863

>  <SCORE.INTRA.VDW.0>
2.2925

>  <SCORE.INTRA.norm>
-0.528365

>  <SCORE.RESTR>
1.0055

>  <SCORE.RESTR.CAVITY>
1.0055

>  <SCORE.RESTR.norm>
0.0239404

>  <SCORE.SYSTEM>
0

>  <SCORE.SYSTEM.CONST>
0

>  <SCORE.SYSTEM.DIHEDRAL>
0

>  <SCORE.SYSTEM.SOLV>
0

>  <SCORE.SYSTEM.norm>
0

>  <SCORE.heavy>
42

>  <SCORE.norm>
-1.51185

>  <RMSD>
14.364

$$$$

 OpenBabel11021811413D
libRbt.so/2013.1/901 2013/11/27
 42 45  0  0  0  0  0  0  0  0999 V2000
   -0.9272   -5.3506   -0.7072 O   0  0  0  0  0  0  0  0  0  0  0  0
   -2.2076   -4.7662   -0.8987 C   0  0  0  0  0  0  0  0  0  0  0  0
   -3.2966   -5.7635   -0.5012 C   0  0  1  0  0  0  0  0  0  0  0  0
   -3.2262   -6.0849    0.9049 O   0  0  0  0  0  0  0  0  0  0  0  0
   -4.7053   -5.2441   -0.7363 C   0  0  2  0  0  0  0  0  0  0  0  0
   -5.4968   -6.1684    0.1737 C   0  0  1  0  0  0  0  0  0  0  0  0
   -5.6439   -7.4419   -0.4447 O   0  0  0  0  0  0  0  0  0  0  0  0
   -4.5731   -6.2864    1.4031 C   0  0  2  0  0  0  0  0  0  0  0  0
   -7.1286   -3.0335   -4.0547 C   0  0  2  0  0  0  0  0  0  0  0  0
   -6.0374   -3.9053   -3.7221 O   0  0  0  0  0  0  0  0  0  0  0  0
   -6.2310   -4.5474   -2.4489 C   0  0  2  0  0  0  0  0  0  0  0  0
   -5.0922   -5.3694   -2.1189 O   0  0  0  0  0  0  0  0  0  0  0  0
   -7.5159   -5.3933   -2.4573 C   0  0  2  0  0  0  0  0  0  0  0  0
   -7.3113   -6.6331   -3.1836 N   0  3  0  0  0  0  0  0  0  0  0  0
   -8.7277   -4.6377   -3.0151 C   0  0  1  0  0  0  0  0  0  0  0  0
   -9.2233   -3.7478   -2.0274 O   0  0  0  0  0  0  0  0  0  0  0  0
   -8.3896   -3.8574   -4.2825 C   0  0  2  0  0  0  0  0  0  0  0  0
   -8.1981   -4.7556   -5.3692 O   0  0  0  0  0  0  0  0  0  0  0  0
   -6.7942   -2.1997   -5.2882 C   0  0  0  0  0  0  0  0  0  0  0  0
   -6.6389   -3.0542   -6.4504 N   0  3  0  0  0  0  0  0  0  0  0  0
   -2.8630   -8.5141    3.2230 C   0  0  1  0  0  0  0  0  0  0  0  0
   -4.1491   -7.8618    3.2710 O   0  0  0  0  0  0  0  0  0  0  0  0
   -4.4538   -7.2907    4.5643 C   0  0  2  0  0  0  0  0  0  0  0  0
   -3.5603   -6.2008    4.9012 O   0  0  0  0  0  0  0  0  0  0  0  0
   -4.4391   -8.3734    5.6502 C   0  0  2  0  0  0  0  0  0  0  0  0
   -4.5358   -7.7606    6.9620 N   0  3  0  0  0  0  0  0  0  0  0  0
   -3.1739   -9.2216    5.5854 C   0  0  1  0  0  0  0  0  0  0  0  0
   -3.3076  -10.3457    6.4414 O   0  0  0  0  0  0  0  0  0  0  0  0
   -2.8404   -9.6954    4.1791 C   0  0  2  0  0  0  0  0  0  0  0  0
   -1.5625  -10.3145    4.1570 O   0  0  0  0  0  0  0  0  0  0  0  0
   -2.6013   -9.0501    1.8184 C   0  0  0  0  0  0  0  0  0  0  0  0
   -1.2437   -9.5505    1.7037 N   0  3  0  0  0  0  0  0  0  0  0  0
   -1.8534   -3.0584    2.5964 C   0  0  2  0  0  0  0  0  0  0  0  0
   -0.9399   -4.1723    3.0684 C   0  0  0  0  0  0  0  0  0  0  0  0
   -1.5993   -4.9647    4.1820 C   0  0  1  0  0  0  0  0  0  0  0  0
   -2.9012   -5.6336    3.7387 C   0  0  2  0  0  0  0  0  0  0  0  0
   -3.8377   -4.6168    3.0458 C   0  0  1  0  0  0  0  0  0  0  0  0
   -3.1719   -3.6230    2.0848 C   0  0  1  0  0  0  0  0  0  0  0  0
   -1.1984   -2.3140    1.5377 N   0  3  0  0  0  0  0  0  0  0  0  0
   -0.6610   -5.9533    4.6764 N   0  3  0  0  0  0  0  0  0  0  0  0
   -4.9452   -5.2781    2.3862 O   0  0  0  0  0  0  0  0  0  0  0  0
   -4.0703   -2.5573    1.7950 O   0  0  0  0  0  0  0  0  0  0  0  0
  1  2  1  0  0  0  0
  3  2  1  1  0  0  0
  3  4  1  0  0  0  0
  3  5  1  0  0  0  0
  4  8  1  0  0  0  0
  5  6  1  0  0  0  0
  5 12  1  6  0  0  0
  6  7  1  6  0  0  0
  6  8  1  0  0  0  0
  8 41  1  1  0  0  0
  9 10  1  0  0  0  0
  9 17  1  0  0  0  0
  9 19  1  6  0  0  0
 10 11  1  0  0  0  0
 11 12  1  6  0  0  0
 11 13  1  0  0  0  0
 13 14  1  6  0  0  0
 13 15  1  0  0  0  0
 15 16  1  1  0  0  0
 15 17  1  0  0  0  0
 17 18  1  6  0  0  0
 19 20  1  0  0  0  0
 21 22  1  0  0  0  0
 21 29  1  0  0  0  0
 21 31  1  6  0  0  0
 22 23  1  0  0  0  0
 23 24  1  1  0  0  0
 23 25  1  0  0  0  0
 25 26  1  1  0  0  0
 25 27  1  0  0  0  0
 27 28  1  1  0  0  0
 27 29  1  0  0  0  0
 29 30  1  1  0  0  0
 31 32  1  0  0  0  0
 33 34  1  0  0  0  0
 33 38  1  0  0  0  0
 33 39  1  6  0  0  0
 34 35  1  0  0  0  0
 35 36  1  0  0  0  0
 35 40  1  6  0  0  0
 36 24  1  1  0  0  0
 36 37  1  0  0  0  0
 37 38  1  0  0  0  0
 37 41  1  6  0  0  0
 38 42  1  1  0  0  0
M  CHG  6  14   1  20   1  26   1  32   1  39   1  40   1
M  END
>  <CHROM.1>
-57.43594292,63.59258325,-162.88039652,168.86989031,-22.16340579,64.57295449
137.69038833,-113.10739925,-56.68535825,52.26488071,58.11936288,172.41503059
20.03631840,-155.81910332,-13.46792843,-61.90557981,-174.63553233,22.18284566
-64.72312889,-151.77415010,-56.46306437,61.02649893,-4.29878703,-5.84987340
0.84944665,-2.18623544,0.73238272,2.42796832

>  <Name>


>  <RI>
0

>  <Rbt.Current_Directory>
/home/itssahil/PROJECTS/Mol_Feturizer/New_Systems/rnas/1qd3

>  <Rbt.Executable>
rbdock ($Id: //depot/dev/client3/rdock/2013.1/src/exe/rbdock.cxx#4 $)

>  <Rbt.Library>
libRbt.so (2013.1, Build901 2013/11/27)

>  <Rbt.Parameter_File>
/export/apps/rDock/src/rDock_2013.1_src/data/scripts/dock_solv.prm

>  <Rbt.Receptor>
prm/blind_docking_40.prm

>  <SCORE>
-53.6087

>  <SCORE.INTER>
-46.6515

>  <SCORE.INTER.CONST>
1

>  <SCORE.INTER.POLAR>
-6.18161

>  <SCORE.INTER.ROT>
9

>  <SCORE.INTER.SOLV>
33.1883

>  <SCORE.INTER.VDW>
-31.1584

>  <SCORE.INTER.norm>
-1.11075

>  <SCORE.INTRA>
-9.95246

>  <SCORE.INTRA.DIHEDRAL>
-7.57507

>  <SCORE.INTRA.DIHEDRAL.0>
40.6252

>  <SCORE.INTRA.POLAR>
-0.233755

>  <SCORE.INTRA.POLAR.0>
-1.20161

>  <SCORE.INTRA.REPUL>
-0.115675

>  <SCORE.INTRA.REPUL.0>
0.115675

>  <SCORE.INTRA.SOLV>
-1.37006

>  <SCORE.INTRA.SOLV.lig_0>
-154.895

>  <SCORE.INTRA.VDW>
-4.10675

>  <SCORE.INTRA.VDW.0>
2.2925

>  <SCORE.INTRA.norm>
-0.236963

>  <SCORE.RESTR>
2.99524

>  <SCORE.RESTR.CAVITY>
2.99524

>  <SCORE.RESTR.norm>
0.0713153

>  <SCORE.SYSTEM>
0

>  <SCORE.SYSTEM.CONST>
0

>  <SCORE.SYSTEM.DIHEDRAL>
0

>  <SCORE.SYSTEM.SOLV>
0

>  <SCORE.SYSTEM.norm>
0

>  <SCORE.heavy>
42

>  <SCORE.norm>
-1.2764

>  <RMSD>
14.376

$$$$

 OpenBabel11021811413D
libRbt.so/2013.1/901 2013/11/27
 42 45  0  0  0  0  0  0  0  0999 V2000
   -1.0117   -1.4365    5.2125 O   0  0  0  0  0  0  0  0  0  0  0  0
   -1.0499   -2.8393    5.4328 C   0  0  0  0  0  0  0  0  0  0  0  0
   -0.9952   -3.5753    4.0935 C   0  0  1  0  0  0  0  0  0  0  0  0
   -1.2630   -4.9849    4.2578 O   0  0  0  0  0  0  0  0  0  0  0  0
   -2.0187   -3.0749    3.0878 C   0  0  2  0  0  0  0  0  0  0  0  0
   -2.0691   -4.2557    2.1328 C   0  0  1  0  0  0  0  0  0  0  0  0
   -0.9257   -4.2378    1.2852 O   0  0  0  0  0  0  0  0  0  0  0  0
   -1.9891   -5.4582    3.0952 C   0  0  2  0  0  0  0  0  0  0  0  0
   -3.4236    0.9699    1.0573 C   0  0  2  0  0  0  0  0  0  0  0  0
   -2.3446    0.2334    1.6529 O   0  0  0  0  0  0  0  0  0  0  0  0
   -2.6585   -1.1644    1.7890 C   0  0  2  0  0  0  0  0  0  0  0  0
   -1.5789   -1.8636    2.4426 O   0  0  0  0  0  0  0  0  0  0  0  0
   -2.9470   -1.7924    0.4146 C   0  0  2  0  0  0  0  0  0  0  0  0
   -1.7140   -2.0199   -0.3164 N   0  3  0  0  0  0  0  0  0  0  0  0
   -3.9266   -0.9671   -0.4281 C   0  0  1  0  0  0  0  0  0  0  0  0
   -5.2485   -1.1843    0.0391 O   0  0  0  0  0  0  0  0  0  0  0  0
   -3.6091    0.5253   -0.3879 C   0  0  2  0  0  0  0  0  0  0  0  0
   -2.4294    0.7911   -1.1375 O   0  0  0  0  0  0  0  0  0  0  0  0
   -3.1572    2.4706    1.1340 C   0  0  0  0  0  0  0  0  0  0  0  0
   -4.2981    3.2138    0.6332 N   0  3  0  0  0  0  0  0  0  0  0  0
   -4.9694   -5.4705    1.2344 C   0  0  1  0  0  0  0  0  0  0  0  0
   -5.1915   -6.8545    1.5768 O   0  0  0  0  0  0  0  0  0  0  0  0
   -4.4216   -7.7748    0.7695 C   0  0  2  0  0  0  0  0  0  0  0  0
   -2.9975   -7.6409    1.0015 O   0  0  0  0  0  0  0  0  0  0  0  0
   -4.7583   -7.6022   -0.7166 C   0  0  2  0  0  0  0  0  0  0  0  0
   -3.8350   -8.3749   -1.5267 N   0  3  0  0  0  0  0  0  0  0  0  0
   -4.6968   -6.1399   -1.1438 C   0  0  1  0  0  0  0  0  0  0  0  0
   -5.2393   -5.9997   -2.4477 O   0  0  0  0  0  0  0  0  0  0  0  0
   -5.4260   -5.2052   -0.1909 C   0  0  2  0  0  0  0  0  0  0  0  0
   -5.1739   -3.8515   -0.5382 O   0  0  0  0  0  0  0  0  0  0  0  0
   -5.7830   -4.5672    2.1570 C   0  0  0  0  0  0  0  0  0  0  0  0
   -5.4709   -3.1705    1.9151 N   0  3  0  0  0  0  0  0  0  0  0  0
   -3.5616   -9.4417    4.8144 C   0  0  2  0  0  0  0  0  0  0  0  0
   -2.4581   -9.9836    3.9274 C   0  0  0  0  0  0  0  0  0  0  0  0
   -2.6533   -9.5230    2.4948 C   0  0  1  0  0  0  0  0  0  0  0  0
   -2.6113   -8.0008    2.3539 C   0  0  2  0  0  0  0  0  0  0  0  0
   -3.5601   -7.3245    3.3704 C   0  0  1  0  0  0  0  0  0  0  0  0
   -3.5783   -7.9194    4.7847 C   0  0  1  0  0  0  0  0  0  0  0  0
   -3.3552   -9.9004    6.1749 N   0  3  0  0  0  0  0  0  0  0  0  0
   -1.6417  -10.1403    1.6593 N   0  3  0  0  0  0  0  0  0  0  0  0
   -3.3361   -5.8947    3.4367 O   0  0  0  0  0  0  0  0  0  0  0  0
   -4.7141   -7.4377    5.4954 O   0  0  0  0  0  0  0  0  0  0  0  0
  1  2  1  0  0  0  0
  3  2  1  1  0  0  0
  3  4  1  0  0  0  0
  3  5  1  0  0  0  0
  4  8  1  0  0  0  0
  5  6  1  0  0  0  0
  5 12  1  6  0  0  0
  6  7  1  6  0  0  0
  6  8  1  0  0  0  0
  8 41  1  1  0  0  0
  9 10  1  0  0  0  0
  9 17  1  0  0  0  0
  9 19  1  6  0  0  0
 10 11  1  0  0  0  0
 11 12  1  6  0  0  0
 11 13  1  0  0  0  0
 13 14  1  6  0  0  0
 13 15  1  0  0  0  0
 15 16  1  1  0  0  0
 15 17  1  0  0  0  0
 17 18  1  6  0  0  0
 19 20  1  0  0  0  0
 21 22  1  0  0  0  0
 21 29  1  0  0  0  0
 21 31  1  1  0  0  0
 22 23  1  0  0  0  0
 23 24  1  6  0  0  0
 23 25  1  0  0  0  0
 25 26  1  6  0  0  0
 25 27  1  0  0  0  0
 27 28  1  6  0  0  0
 27 29  1  0  0  0  0
 29 30  1  6  0  0  0
 31 32  1  0  0  0  0
 33 34  1  0  0  0  0
 33 38  1  0  0  0  0
 33 39  1  1  0  0  0
 34 35  1  0  0  0  0
 35 36  1  0  0  0  0
 35 40  1  6  0  0  0
 36 24  1  6  0  0  0
 36 37  1  0  0  0  0
 37 38  1  0  0  0  0
 37 41  1  1  0  0  0
 38 42  1  6  0  0  0
M  CHG  6  14   1  20   1  26   1  32   1  39   1  40   1
M  END
>  <CHROM.1>
-30.78898403,-170.06864478,-163.23480020,67.84487584,-109.26189885,-175.23917538
156.11655414,-159.95363023,72.76663959,42.56343522,-145.52573495,174.33955646
64.63821267,74.68012004,68.42897297,178.09665705,-169.08524587,40.30533334
169.25069235,-148.77801847,-27.23418681,-174.75113116,-3.28166497,-4.45684698
1.78748546,-1.53575299,1.11053647,2.86310010

>  <Name>


>  <RI>
0

>  <Rbt.Current_Directory>
/home/itssahil/PROJECTS/Mol_Feturizer/New_Systems/rnas/1qd3

>  <Rbt.Executable>
rbdock ($Id: //depot/dev/client3/rdock/2013.1/src/exe/rbdock.cxx#4 $)

>  <Rbt.Library>
libRbt.so (2013.1, Build901 2013/11/27)

>  <Rbt.Parameter_File>
/export/apps/rDock/src/rDock_2013.1_src/data/scripts/dock_solv.prm

>  <Rbt.Receptor>
prm/blind_docking_80.prm

>  <SCORE>
-65.522

>  <SCORE.INTER>
-51.8275

>  <SCORE.INTER.CONST>
1

>  <SCORE.INTER.POLAR>
-7.77455

>  <SCORE.INTER.ROT>
9

>  <SCORE.INTER.SOLV>
33.2265

>  <SCORE.INTER.VDW>
-29.312

>  <SCORE.INTER.norm>
-1.23399

>  <SCORE.INTRA>
-14.0901

>  <SCORE.INTRA.DIHEDRAL>
-10.658

>  <SCORE.INTRA.DIHEDRAL.0>
40.6252

>  <SCORE.INTRA.POLAR>
-1.28836

>  <SCORE.INTRA.POLAR.0>
-1.20161

>  <SCORE.INTRA.REPUL>
-0.115675

>  <SCORE.INTRA.REPUL.0>
0.115675

>  <SCORE.INTRA.SOLV>
0.714884

>  <SCORE.INTRA.SOLV.lig_0>
-154.895

>  <SCORE.INTRA.VDW>
-4.15974

>  <SCORE.INTRA.VDW.0>
2.2925

>  <SCORE.INTRA.norm>
-0.335479

>  <SCORE.RESTR>
0.395611

>  <SCORE.RESTR.CAVITY>
0.395611

>  <SCORE.RESTR.norm>
0.00941931

>  <SCORE.SYSTEM>
0

>  <SCORE.SYSTEM.CONST>
0

>  <SCORE.SYSTEM.DIHEDRAL>
0

>  <SCORE.SYSTEM.SOLV>
0

>  <SCORE.SYSTEM.norm>
0

>  <SCORE.heavy>
42

>  <SCORE.norm>
-1.56005

>  <RMSD>
14.408

$$$$

 OpenBabel11021811413D
libRbt.so/2013.1/901 2013/11/27
 42 45  0  0  0  0  0  0  0  0999 V2000
   -3.7653   -3.4829   -3.4798 O   0  0  0  0  0  0  0  0  0  0  0  0
   -3.9996   -3.6349   -2.0870 C   0  0  0  0  0  0  0  0  0  0  0  0
   -4.1896   -5.1149   -1.7526 C   0  0  1  0  0  0  0  0  0  0  0  0
   -3.5609   -5.4545   -0.4976 O   0  0  0  0  0  0  0  0  0  0  0  0
   -5.6475   -5.5183   -1.6068 C   0  0  2  0  0  0  0  0  0  0  0  0
   -5.5004   -6.8084   -0.8175 C   0  0  1  0  0  0  0  0  0  0  0  0
   -5.0849   -7.8579   -1.6846 O   0  0  0  0  0  0  0  0  0  0  0  0
   -4.3650   -6.4617    0.1671 C   0  0  2  0  0  0  0  0  0  0  0  0
   -6.8173   -2.5734   -4.6539 C   0  0  2  0  0  0  0  0  0  0  0  0
   -6.1554   -3.7724   -4.2228 O   0  0  0  0  0  0  0  0  0  0  0  0
   -6.9851   -4.5603   -3.3501 C   0  0  2  0  0  0  0  0  0  0  0  0
   -6.2705   -5.7260   -2.8896 O   0  0  0  0  0  0  0  0  0  0  0  0
   -8.2825   -4.9766   -4.0641 C   0  0  2  0  0  0  0  0  0  0  0  0
   -8.0319   -6.0599   -4.9969 N   0  3  0  0  0  0  0  0  0  0  0  0
   -8.9788   -3.8084   -4.7722 C   0  0  1  0  0  0  0  0  0  0  0  0
   -9.6640   -3.0179   -3.8138 O   0  0  0  0  0  0  0  0  0  0  0  0
   -7.9970   -2.9342   -5.5476 C   0  0  2  0  0  0  0  0  0  0  0  0
   -7.5413   -3.6249   -6.7051 O   0  0  0  0  0  0  0  0  0  0  0  0
   -5.8428   -1.6544   -5.3852 C   0  0  0  0  0  0  0  0  0  0  0  0
   -6.5250   -0.4629   -5.8541 N   0  3  0  0  0  0  0  0  0  0  0  0
   -4.1482   -7.4824    4.1448 C   0  0  1  0  0  0  0  0  0  0  0  0
   -4.0284   -6.0514    4.2854 O   0  0  0  0  0  0  0  0  0  0  0  0
   -2.6807   -5.5669    4.0842 C   0  0  2  0  0  0  0  0  0  0  0  0
   -2.2296   -5.7657    2.7216 O   0  0  0  0  0  0  0  0  0  0  0  0
   -1.7178   -6.2162    5.0857 C   0  0  2  0  0  0  0  0  0  0  0  0
   -0.3475   -5.8867    4.7403 N   0  3  0  0  0  0  0  0  0  0  0  0
   -1.8754   -7.7323    5.1195 C   0  0  1  0  0  0  0  0  0  0  0  0
   -1.1453   -8.2644    6.2140 O   0  0  0  0  0  0  0  0  0  0  0  0
   -3.3250   -8.1831    5.2133 C   0  0  2  0  0  0  0  0  0  0  0  0
   -3.4155   -9.5910    5.0515 O   0  0  0  0  0  0  0  0  0  0  0  0
   -5.6028   -7.9054    4.3293 C   0  0  0  0  0  0  0  0  0  0  0  0
   -6.4516   -7.2753    3.3347 N   0  3  0  0  0  0  0  0  0  0  0  0
   -4.3190   -2.2129    1.6672 C   0  0  2  0  0  0  0  0  0  0  0  0
   -2.8506   -2.3100    1.3029 C   0  0  0  0  0  0  0  0  0  0  0  0
   -2.1811   -3.4237    2.0866 C   0  0  1  0  0  0  0  0  0  0  0  0
   -2.7890   -4.7968    1.7965 C   0  0  2  0  0  0  0  0  0  0  0  0
   -4.3283   -4.7614    1.9375 C   0  0  1  0  0  0  0  0  0  0  0  0
   -5.0357   -3.5233    1.3707 C   0  0  1  0  0  0  0  0  0  0  0  0
   -4.9333   -1.1391    0.9099 N   0  3  0  0  0  0  0  0  0  0  0  0
   -0.7619   -3.4216    1.7895 N   0  3  0  0  0  0  0  0  0  0  0  0
   -4.9381   -5.9654    1.4108 O   0  0  0  0  0  0  0  0  0  0  0  0
   -6.3701   -3.4629    1.8634 O   0  0  0  0  0  0  0  0  0  0  0  0
  1  2  1  0  0  0  0
  3  2  1  1  0  0  0
  3  4  1  0  0  0  0
  3  5  1  0  0  0  0
  4  8  1  0  0  0  0
  5  6  1  0  0  0  0
  5 12  1  6  0  0  0
  6  7  1  6  0  0  0
  6  8  1  0  0  0  0
  8 41  1  1  0  0  0
  9 10  1  0  0  0  0
  9 17  1  0  0  0  0
  9 19  1  6  0  0  0
 10 11  1  0  0  0  0
 11 12  1  6  0  0  0
 11 13  1  0  0  0  0
 13 14  1  6  0  0  0
 13 15  1  0  0  0  0
 15 16  1  1  0  0  0
 15 17  1  0  0  0  0
 17 18  1  6  0  0  0
 19 20  1  0  0  0  0
 21 22  1  0  0  0  0
 21 29  1  0  0  0  0
 21 31  1  1  0  0  0
 22 23  1  0  0  0  0
 23 24  1  6  0  0  0
 23 25  1  0  0  0  0
 25 26  1  6  0  0  0
 25 27  1  0  0  0  0
 27 28  1  1  0  0  0
 27 29  1  0  0  0  0
 29 30  1  6  0  0  0
 31 32  1  0  0  0  0
 33 34  1  0  0  0  0
 33 38  1  0  0  0  0
 33 39  1  6  0  0  0
 34 35  1  0  0  0  0
 35 36  1  0  0  0  0
 35 40  1  6  0  0  0
 36 24  1  1  0  0  0
 36 37  1  0  0  0  0
 37 38  1  0  0  0  0
 37 41  1  6  0  0  0
 38 42  1  1  0  0  0
M  CHG  6  14   1  20   1  26   1  32   1  39   1  40   1
M  END
>  <CHROM.1>
67.63978358,141.11397375,-95.99714068,-33.18883351,-16.61421646,178.27730479
95.16842836,-172.23605413,179.86763902,-51.09095191,-74.21445065,60.21883508
77.00190280,69.60238249,51.77137624,-139.66321217,-49.23539817,149.93731418
-83.94057838,-32.14014347,-41.01437314,-50.82317553,-4.78428185,-4.95940541
0.02636115,-2.22484600,0.81116731,2.43524468

>  <Name>


>  <RI>
0

>  <Rbt.Current_Directory>
/home/itssahil/PROJECTS/Mol_Feturizer/New_Systems/rnas/1qd3

>  <Rbt.Executable>
rbdock ($Id: //depot/dev/client3/rdock/2013.1/src/exe/rbdock.cxx#4 $)

>  <Rbt.Library>
libRbt.so (2013.1, Build901 2013/11/27)

>  <Rbt.Parameter_File>
/export/apps/rDock/src/rDock_2013.1_src/data/scripts/dock_solv.prm

>  <Rbt.Receptor>
prm/blind_docking_40.prm

>  <SCORE>
-51.4782

>  <SCORE.INTER>
-40.8793

>  <SCORE.INTER.CONST>
1

>  <SCORE.INTER.POLAR>
-5.7508

>  <SCORE.INTER.ROT>
9

>  <SCORE.INTER.SOLV>
32.6182

>  <SCORE.INTER.VDW>
-28.5563

>  <SCORE.INTER.norm>
-0.973318

>  <SCORE.INTRA>
-13.7885

>  <SCORE.INTRA.DIHEDRAL>
-2.285

>  <SCORE.INTRA.DIHEDRAL.0>
40.6252

>  <SCORE.INTRA.POLAR>
-1.08761

>  <SCORE.INTRA.POLAR.0>
-1.20161

>  <SCORE.INTRA.REPUL>
-0.115675

>  <SCORE.INTRA.REPUL.0>
0.115675

>  <SCORE.INTRA.SOLV>
-8.59382

>  <SCORE.INTRA.SOLV.lig_0>
-154.895

>  <SCORE.INTRA.VDW>
-4.07288

>  <SCORE.INTRA.VDW.0>
2.2925

>  <SCORE.INTRA.norm>
-0.328299

>  <SCORE.RESTR>
3.18973

>  <SCORE.RESTR.CAVITY>
3.18973

>  <SCORE.RESTR.norm>
0.0759459

>  <SCORE.SYSTEM>
0

>  <SCORE.SYSTEM.CONST>
0

>  <SCORE.SYSTEM.DIHEDRAL>
0

>  <SCORE.SYSTEM.SOLV>
0

>  <SCORE.SYSTEM.norm>
0

>  <SCORE.heavy>
42

>  <SCORE.norm>
-1.22567

>  <RMSD>
14.419

$$$$

 OpenBabel11021811413D
libRbt.so/2013.1/901 2013/11/27
 42 45  0  0  0  0  0  0  0  0999 V2000
   -2.2245   -0.4083    1.9843 O   0  0  0  0  0  0  0  0  0  0  0  0
   -1.4167   -1.5458    2.2514 C   0  0  0  0  0  0  0  0  0  0  0  0
   -2.1211   -2.4562    3.2581 C   0  0  1  0  0  0  0  0  0  0  0  0
   -2.8955   -3.4765    2.5910 O   0  0  0  0  0  0  0  0  0  0  0  0
   -1.1625   -3.1982    4.1744 C   0  0  2  0  0  0  0  0  0  0  0  0
   -2.0588   -4.3254    4.6590 C   0  0  1  0  0  0  0  0  0  0  0  0
   -2.9522   -3.8359    5.6530 O   0  0  0  0  0  0  0  0  0  0  0  0
   -2.8440   -4.6904    3.3826 C   0  0  2  0  0  0  0  0  0  0  0  0
    1.9318   -2.6553    7.7661 C   0  0  2  0  0  0  0  0  0  0  0  0
    0.8811   -2.0632    6.9871 O   0  0  0  0  0  0  0  0  0  0  0  0
    0.3076   -3.0001    6.0575 C   0  0  2  0  0  0  0  0  0  0  0  0
   -0.7029   -2.3586    5.2519 O   0  0  0  0  0  0  0  0  0  0  0  0
   -0.2891   -4.2070    6.8016 C   0  0  2  0  0  0  0  0  0  0  0  0
   -1.5579   -3.8584    7.4140 N   0  3  0  0  0  0  0  0  0  0  0  0
    0.6656   -4.8005    7.8443 C   0  0  1  0  0  0  0  0  0  0  0  0
    1.6482   -5.5870    7.1894 O   0  0  0  0  0  0  0  0  0  0  0  0
    1.3486   -3.7233    8.6825 C   0  0  2  0  0  0  0  0  0  0  0  0
    0.4116   -3.1398    9.5803 O   0  0  0  0  0  0  0  0  0  0  0  0
    2.6687   -1.5902    8.5731 C   0  0  0  0  0  0  0  0  0  0  0  0
    1.8602   -1.1568    9.6972 N   0  3  0  0  0  0  0  0  0  0  0  0
   -5.2141   -4.9498   -2.2084 C   0  0  1  0  0  0  0  0  0  0  0  0
   -4.0963   -5.8589   -2.2865 O   0  0  0  0  0  0  0  0  0  0  0  0
   -3.1170   -5.6537   -1.2422 C   0  0  2  0  0  0  0  0  0  0  0  0
   -3.6504   -5.9578    0.0703 O   0  0  0  0  0  0  0  0  0  0  0  0
   -2.5612   -4.2254   -1.2957 C   0  0  2  0  0  0  0  0  0  0  0  0
   -1.7444   -3.9675   -0.1244 N   0  3  0  0  0  0  0  0  0  0  0  0
   -3.6758   -3.1876   -1.3678 C   0  0  1  0  0  0  0  0  0  0  0  0
   -3.1232   -1.9117   -1.6523 O   0  0  0  0  0  0  0  0  0  0  0  0
   -4.7386   -3.5194   -2.4039 C   0  0  2  0  0  0  0  0  0  0  0  0
   -5.8344   -2.6231   -2.2914 O   0  0  0  0  0  0  0  0  0  0  0  0
   -6.2176   -5.2596   -3.3155 C   0  0  0  0  0  0  0  0  0  0  0  0
   -7.3733   -4.3867   -3.2208 N   0  3  0  0  0  0  0  0  0  0  0  0
   -3.3532   -9.3838    2.5750 C   0  0  2  0  0  0  0  0  0  0  0  0
   -3.0731   -9.5573    1.0953 C   0  0  0  0  0  0  0  0  0  0  0  0
   -3.6059   -8.3725    0.3110 C   0  0  1  0  0  0  0  0  0  0  0  0
   -2.9529   -7.0519    0.7215 C   0  0  2  0  0  0  0  0  0  0  0  0
   -2.9972   -6.8660    2.2559 C   0  0  1  0  0  0  0  0  0  0  0  0
   -2.7020   -8.1120    3.1014 C   0  0  1  0  0  0  0  0  0  0  0  0
   -2.8399  -10.5304    3.3003 N   0  3  0  0  0  0  0  0  0  0  0  0
   -3.4117   -8.6187   -1.1046 N   0  3  0  0  0  0  0  0  0  0  0  0
   -2.1559   -5.7665    2.6826 O   0  0  0  0  0  0  0  0  0  0  0  0
   -3.1063   -7.8874    4.4479 O   0  0  0  0  0  0  0  0  0  0  0  0
  1  2  1  0  0  0  0
  3  2  1  6  0  0  0
  3  4  1  0  0  0  0
  3  5  1  0  0  0  0
  4  8  1  0  0  0  0
  5  6  1  0  0  0  0
  5 12  1  1  0  0  0
  6  7  1  1  0  0  0
  6  8  1  0  0  0  0
  8 41  1  6  0  0  0
  9 10  1  0  0  0  0
  9 17  1  0  0  0  0
  9 19  1  1  0  0  0
 10 11  1  0  0  0  0
 11 12  1  1  0  0  0
 11 13  1  0  0  0  0
 13 14  1  1  0  0  0
 13 15  1  0  0  0  0
 15 16  1  6  0  0  0
 15 17  1  0  0  0  0
 17 18  1  1  0  0  0
 19 20  1  0  0  0  0
 21 22  1  0  0  0  0
 21 29  1  0  0  0  0
 21 31  1  6  0  0  0
 22 23  1  0  0  0  0
 23 24  1  1  0  0  0
 23 25  1  0  0  0  0
 25 26  1  1  0  0  0
 25 27  1  0  0  0  0
 27 28  1  6  0  0  0
 27 29  1  0  0  0  0
 29 30  1  1  0  0  0
 31 32  1  0  0  0  0
 33 34  1  0  0  0  0
 33 38  1  0  0  0  0
 33 39  1  1  0  0  0
 34 35  1  0  0  0  0
 35 36  1  0  0  0  0
 35 40  1  6  0  0  0
 36 24  1  6  0  0  0
 36 37  1  0  0  0  0
 37 38  1  0  0  0  0
 37 41  1  1  0  0  0
 38 42  1  1  0  0  0
M  CHG  6  14   1  20   1  26   1  32   1  39   1  40   1
M  END
>  <CHROM.1>
-50.78125928,93.32688368,-174.29845445,52.19452052,-110.54432828,74.54276078
171.23420433,-60.52705631,-171.63067768,-171.56303685,34.73432816,177.83795110
117.67541705,-87.97571243,163.31210546,61.27754316,-170.55687105,-178.43859564
-101.23561626,-56.49616976,120.14601872,-50.96685097,-2.16244800,-4.62916328
2.82545063,-0.00761592,-1.07317634,-0.25318646

>  <Name>


>  <RI>
0

>  <Rbt.Current_Directory>
/home/itssahil/PROJECTS/Mol_Feturizer/New_Systems/rnas/1qd3

>  <Rbt.Executable>
rbdock ($Id: //depot/dev/client3/rdock/2013.1/src/exe/rbdock.cxx#4 $)

>  <Rbt.Library>
libRbt.so (2013.1, Build901 2013/11/27)

>  <Rbt.Parameter_File>
/export/apps/rDock/src/rDock_2013.1_src/data/scripts/dock_solv.prm

>  <Rbt.Receptor>
prm/blind_docking_40.prm

>  <SCORE>
-49.4044

>  <SCORE.INTER>
-44.0937

>  <SCORE.INTER.CONST>
1

>  <SCORE.INTER.POLAR>
-7.73009

>  <SCORE.INTER.ROT>
9

>  <SCORE.INTER.SOLV>
32.7646

>  <SCORE.INTER.VDW>
-24.1504

>  <SCORE.INTER.norm>
-1.04985

>  <SCORE.INTRA>
-11.0891

>  <SCORE.INTRA.DIHEDRAL>
-4.38206

>  <SCORE.INTRA.DIHEDRAL.0>
40.6252

>  <SCORE.INTRA.POLAR>
-2.61817

>  <SCORE.INTRA.POLAR.0>
-1.20161

>  <SCORE.INTRA.REPUL>
-0.115675

>  <SCORE.INTRA.REPUL.0>
0.115675

>  <SCORE.INTRA.SOLV>
3.30942

>  <SCORE.INTRA.SOLV.lig_0>
-154.895

>  <SCORE.INTRA.VDW>
-1.07259

>  <SCORE.INTRA.VDW.0>
2.2925

>  <SCORE.INTRA.norm>
-0.264025

>  <SCORE.RESTR>
5.77838

>  <SCORE.RESTR.CAVITY>
5.77838

>  <SCORE.RESTR.norm>
0.13758

>  <SCORE.SYSTEM>
0

>  <SCORE.SYSTEM.CONST>
0

>  <SCORE.SYSTEM.DIHEDRAL>
0

>  <SCORE.SYSTEM.SOLV>
0

>  <SCORE.SYSTEM.norm>
0

>  <SCORE.heavy>
42

>  <SCORE.norm>
-1.1763

>  <RMSD>
14.461

$$$$

 OpenBabel11021811413D
libRbt.so/2013.1/901 2013/11/27
 42 45  0  0  0  0  0  0  0  0999 V2000
   -5.0832   -9.4539   -1.1915 O   0  0  0  0  0  0  0  0  0  0  0  0
   -6.0887   -8.6679   -1.8151 C   0  0  0  0  0  0  0  0  0  0  0  0
   -6.2250   -7.3297   -1.0877 C   0  0  1  0  0  0  0  0  0  0  0  0
   -5.3421   -7.2598    0.0530 O   0  0  0  0  0  0  0  0  0  0  0  0
   -5.8739   -6.1327   -1.9557 C   0  0  2  0  0  0  0  0  0  0  0  0
   -5.6135   -5.0832   -0.8881 C   0  0  1  0  0  0  0  0  0  0  0  0
   -6.8507   -4.6044   -0.3725 O   0  0  0  0  0  0  0  0  0  0  0  0
   -4.8735   -5.8948    0.1946 C   0  0  2  0  0  0  0  0  0  0  0  0
   -8.8350   -8.6073   -4.1739 C   0  0  2  0  0  0  0  0  0  0  0  0
   -8.4978   -7.5103   -3.3111 O   0  0  0  0  0  0  0  0  0  0  0  0
   -7.3066   -6.8304   -3.7465 C   0  0  2  0  0  0  0  0  0  0  0  0
   -6.9638   -5.7725   -2.8272 O   0  0  0  0  0  0  0  0  0  0  0  0
   -7.4916   -6.2658   -5.1655 C   0  0  2  0  0  0  0  0  0  0  0  0
   -8.3083   -5.0663   -5.1398 N   0  3  0  0  0  0  0  0  0  0  0  0
   -8.0724   -7.2901   -6.1474 C   0  0  1  0  0  0  0  0  0  0  0  0
   -7.0505   -8.1881   -6.5503 O   0  0  0  0  0  0  0  0  0  0  0  0
   -9.2340   -8.0753   -5.5444 C   0  0  2  0  0  0  0  0  0  0  0  0
  -10.3788   -7.2380   -5.4306 O   0  0  0  0  0  0  0  0  0  0  0  0
   -9.9586   -9.4430   -3.5673 C   0  0  0  0  0  0  0  0  0  0  0  0
   -9.6128   -9.8548   -2.2198 N   0  3  0  0  0  0  0  0  0  0  0  0
   -4.6659   -1.3363   -0.4051 C   0  0  1  0  0  0  0  0  0  0  0  0
   -3.9068   -2.5408   -0.6394 O   0  0  0  0  0  0  0  0  0  0  0  0
   -3.0895   -2.9311    0.4880 C   0  0  2  0  0  0  0  0  0  0  0  0
   -3.8904   -3.3086    1.6350 O   0  0  0  0  0  0  0  0  0  0  0  0
   -2.0983   -1.8178    0.8481 C   0  0  2  0  0  0  0  0  0  0  0  0
   -1.4352   -2.1309    2.1003 N   0  3  0  0  0  0  0  0  0  0  0  0
   -2.7892   -0.4643    0.9717 C   0  0  1  0  0  0  0  0  0  0  0  0
   -1.8146    0.5627    1.0695 O   0  0  0  0  0  0  0  0  0  0  0  0
   -3.7269   -0.1612   -0.1867 C   0  0  2  0  0  0  0  0  0  0  0  0
   -4.4751    1.0162    0.0790 O   0  0  0  0  0  0  0  0  0  0  0  0
   -5.5301   -1.0185   -1.6221 C   0  0  0  0  0  0  0  0  0  0  0  0
   -6.6766   -1.9064   -1.6844 N   0  3  0  0  0  0  0  0  0  0  0  0
   -1.2121   -6.3039    3.0331 C   0  0  2  0  0  0  0  0  0  0  0  0
   -2.2219   -5.7386    4.0123 C   0  0  0  0  0  0  0  0  0  0  0  0
   -2.8018   -4.4385    3.4867 C   0  0  1  0  0  0  0  0  0  0  0  0
   -3.5409   -4.6163    2.1597 C   0  0  2  0  0  0  0  0  0  0  0  0
   -2.6663   -5.3779    1.1369 C   0  0  1  0  0  0  0  0  0  0  0  0
   -1.8609   -6.5654    1.6805 C   0  0  1  0  0  0  0  0  0  0  0  0
   -0.6696   -7.5413    3.5608 N   0  3  0  0  0  0  0  0  0  0  0  0
   -3.6845   -3.8764    4.4903 N   0  3  0  0  0  0  0  0  0  0  0  0
   -3.4366   -5.7890   -0.0192 O   0  0  0  0  0  0  0  0  0  0  0  0
   -0.8655   -6.9453    0.7360 O   0  0  0  0  0  0  0  0  0  0  0  0
  1  2  1  0  0  0  0
  3  2  1  6  0  0  0
  3  4  1  0  0  0  0
  3  5  1  0  0  0  0
  4  8  1  0  0  0  0
  5  6  1  0  0  0  0
  5 12  1  6  0  0  0
  6  7  1  1  0  0  0
  6  8  1  0  0  0  0
  8 41  1  6  0  0  0
  9 10  1  0  0  0  0
  9 17  1  0  0  0  0
  9 19  1  1  0  0  0
 10 11  1  0  0  0  0
 11 12  1  1  0  0  0
 11 13  1  0  0  0  0
 13 14  1  1  0  0  0
 13 15  1  0  0  0  0
 15 16  1  1  0  0  0
 15 17  1  0  0  0  0
 17 18  1  1  0  0  0
 19 20  1  0  0  0  0
 21 22  1  0  0  0  0
 21 29  1  0  0  0  0
 21 31  1  6  0  0  0
 22 23  1  0  0  0  0
 23 24  1  1  0  0  0
 23 25  1  0  0  0  0
 25 26  1  1  0  0  0
 25 27  1  0  0  0  0
 27 28  1  6  0  0  0
 27 29  1  0  0  0  0
 29 30  1  1  0  0  0
 31 32  1  0  0  0  0
 33 34  1  0  0  0  0
 33 38  1  0  0  0  0
 33 39  1  1  0  0  0
 34 35  1  0  0  0  0
 35 36  1  0  0  0  0
 35 40  1  1  0  0  0
 36 24  1  6  0  0  0
 36 37  1  0  0  0  0
 37 38  1  0  0  0  0
 37 41  1  6  0  0  0
 38 42  1  6  0  0  0
M  CHG  6  14   1  20   1  26   1  32   1  39   1  40   1
M  END
>  <CHROM.1>
62.84128544,-2.38059597,-61.60283973,62.38865626,-115.21230756,-53.60843012
102.76049551,52.24658929,-176.94837564,-66.59387525,167.16784139,75.28198520
127.11096315,107.58612075,-73.76480308,60.13081889,-65.21985052,-147.29658243
-37.01111285,-132.78552694,-22.58683561,-67.77927374,-5.13185588,-5.18628970
-0.80437780,-2.72435814,-0.84545543,-0.12179142

>  <Name>


>  <RI>
0

>  <Rbt.Current_Directory>
/home/itssahil/PROJECTS/Mol_Feturizer/New_Systems/rnas/1qd3

>  <Rbt.Executable>
rbdock ($Id: //depot/dev/client3/rdock/2013.1/src/exe/rbdock.cxx#4 $)

>  <Rbt.Library>
libRbt.so (2013.1, Build901 2013/11/27)

>  <Rbt.Parameter_File>
/export/apps/rDock/src/rDock_2013.1_src/data/scripts/dock_solv.prm

>  <Rbt.Receptor>
prm/blind_docking_100.prm

>  <SCORE>
-32.1219

>  <SCORE.INTER>
-31.3613

>  <SCORE.INTER.CONST>
1

>  <SCORE.INTER.POLAR>
-5.57774

>  <SCORE.INTER.ROT>
9

>  <SCORE.INTER.SOLV>
30.5688

>  <SCORE.INTER.VDW>
-22.1046

>  <SCORE.INTER.norm>
-0.746697

>  <SCORE.INTRA>
-1.83138

>  <SCORE.INTRA.DIHEDRAL>
5.91265

>  <SCORE.INTRA.DIHEDRAL.0>
40.6252

>  <SCORE.INTRA.POLAR>
-0.0369629

>  <SCORE.INTRA.POLAR.0>
-1.20161

>  <SCORE.INTRA.REPUL>
-0.115675

>  <SCORE.INTRA.REPUL.0>
0.115675

>  <SCORE.INTRA.SOLV>
-6.95876

>  <SCORE.INTRA.SOLV.lig_0>
-154.895

>  <SCORE.INTRA.VDW>
-0.604279

>  <SCORE.INTRA.VDW.0>
2.2925

>  <SCORE.INTRA.norm>
-0.0436043

>  <SCORE.RESTR>
1.07078

>  <SCORE.RESTR.CAVITY>
1.07078

>  <SCORE.RESTR.norm>
0.0254947

>  <SCORE.SYSTEM>
0

>  <SCORE.SYSTEM.CONST>
0

>  <SCORE.SYSTEM.DIHEDRAL>
0

>  <SCORE.SYSTEM.SOLV>
0

>  <SCORE.SYSTEM.norm>
0

>  <SCORE.heavy>
42

>  <SCORE.norm>
-0.764806

>  <RMSD>
14.467

$$$$

 OpenBabel11021811413D
libRbt.so/2013.1/901 2013/11/27
 42 45  0  0  0  0  0  0  0  0999 V2000
   -5.2402   -9.2752   -2.4198 O   0  0  0  0  0  0  0  0  0  0  0  0
   -6.5449   -9.0645   -1.8993 C   0  0  0  0  0  0  0  0  0  0  0  0
   -6.5763   -7.7672   -1.0903 C   0  0  1  0  0  0  0  0  0  0  0  0
   -5.7262   -7.8537    0.0739 O   0  0  0  0  0  0  0  0  0  0  0  0
   -6.0872   -6.5580   -1.8700 C   0  0  2  0  0  0  0  0  0  0  0  0
   -5.7616   -5.6068   -0.7307 C   0  0  1  0  0  0  0  0  0  0  0  0
   -6.9632   -5.0441   -0.2157 O   0  0  0  0  0  0  0  0  0  0  0  0
   -5.1351   -6.5516    0.3150 C   0  0  2  0  0  0  0  0  0  0  0  0
   -6.2397   -2.5153   -2.3429 C   0  0  2  0  0  0  0  0  0  0  0  0
   -6.0683   -3.9217   -2.5757 O   0  0  0  0  0  0  0  0  0  0  0  0
   -7.3236   -4.6253   -2.5646 C   0  0  2  0  0  0  0  0  0  0  0  0
   -7.1109   -6.0411   -2.7429 O   0  0  0  0  0  0  0  0  0  0  0  0
   -8.2592   -4.0836   -3.6589 C   0  0  2  0  0  0  0  0  0  0  0  0
   -7.8615   -4.5744   -4.9656 N   0  3  0  0  0  0  0  0  0  0  0  0
   -8.3518   -2.5532   -3.6653 C   0  0  1  0  0  0  0  0  0  0  0  0
   -9.2036   -2.1286   -2.6132 O   0  0  0  0  0  0  0  0  0  0  0  0
   -6.9851   -1.8905   -3.5153 C   0  0  2  0  0  0  0  0  0  0  0  0
   -6.2344   -2.0491   -4.7136 O   0  0  0  0  0  0  0  0  0  0  0  0
   -4.8891   -1.8362   -2.1338 C   0  0  0  0  0  0  0  0  0  0  0  0
   -3.8108   -2.7166   -2.5425 N   0  3  0  0  0  0  0  0  0  0  0  0
   -1.2994   -5.9395    5.5608 C   0  0  1  0  0  0  0  0  0  0  0  0
   -2.6928   -6.1100    5.2269 O   0  0  0  0  0  0  0  0  0  0  0  0
   -3.0416   -5.5702    3.9314 C   0  0  2  0  0  0  0  0  0  0  0  0
   -2.3923   -6.2860    2.8517 O   0  0  0  0  0  0  0  0  0  0  0  0
   -2.7271   -4.0706    3.8683 C   0  0  2  0  0  0  0  0  0  0  0  0
   -2.8814   -3.5888    2.5083 N   0  3  0  0  0  0  0  0  0  0  0  0
   -1.3119   -3.7693    4.3490 C   0  0  1  0  0  0  0  0  0  0  0  0
   -1.1458   -2.3677    4.4979 O   0  0  0  0  0  0  0  0  0  0  0  0
   -0.9629   -4.4605    5.6581 C   0  0  2  0  0  0  0  0  0  0  0  0
    0.4165   -4.2940    5.9516 O   0  0  0  0  0  0  0  0  0  0  0  0
   -1.0066   -6.5714    6.9186 C   0  0  0  0  0  0  0  0  0  0  0  0
    0.4143   -6.8250    7.0719 N   0  3  0  0  0  0  0  0  0  0  0  0
   -2.8734  -10.1562    1.1517 C   0  0  2  0  0  0  0  0  0  0  0  0
   -3.2641   -9.9628    2.6037 C   0  0  0  0  0  0  0  0  0  0  0  0
   -2.6656   -8.6792    3.1487 C   0  0  1  0  0  0  0  0  0  0  0  0
   -3.1537   -7.4372    2.4017 C   0  0  2  0  0  0  0  0  0  0  0  0
   -2.9923   -7.6113    0.8738 C   0  0  1  0  0  0  0  0  0  0  0  0
   -3.3573   -8.9881    0.3032 C   0  0  1  0  0  0  0  0  0  0  0  0
   -3.4525  -11.3907    0.6572 N   0  3  0  0  0  0  0  0  0  0  0  0
   -2.9743   -8.5783    4.5618 N   0  3  0  0  0  0  0  0  0  0  0  0
   -3.6888   -6.5716    0.1439 O   0  0  0  0  0  0  0  0  0  0  0  0
   -2.8467   -9.1120   -1.0201 O   0  0  0  0  0  0  0  0  0  0  0  0
  1  2  1  0  0  0  0
  3  2  1  6  0  0  0
  3  4  1  0  0  0  0
  3  5  1  0  0  0  0
  4  8  1  0  0  0  0
  5  6  1  0  0  0  0
  5 12  1  6  0  0  0
  6  7  1  1  0  0  0
  6  8  1  0  0  0  0
  8 41  1  6  0  0  0
  9 10  1  0  0  0  0
  9 17  1  0  0  0  0
  9 19  1  6  0  0  0
 10 11  1  0  0  0  0
 11 12  1  6  0  0  0
 11 13  1  0  0  0  0
 13 14  1  6  0  0  0
 13 15  1  0  0  0  0
 15 16  1  1  0  0  0
 15 17  1  0  0  0  0
 17 18  1  6  0  0  0
 19 20  1  0  0  0  0
 21 22  1  0  0  0  0
 21 29  1  0  0  0  0
 21 31  1  1  0  0  0
 22 23  1  0  0  0  0
 23 24  1  6  0  0  0
 23 25  1  0  0  0  0
 25 26  1  6  0  0  0
 25 27  1  0  0  0  0
 27 28  1  1  0  0  0
 27 29  1  0  0  0  0
 29 30  1  6  0  0  0
 31 32  1  0  0  0  0
 33 34  1  0  0  0  0
 33 38  1  0  0  0  0
 33 39  1  6  0  0  0
 34 35  1  0  0  0  0
 35 36  1  0  0  0  0
 35 40  1  1  0  0  0
 36 24  1  1  0  0  0
 36 37  1  0  0  0  0
 37 38  1  0  0  0  0
 37 41  1  6  0  0  0
 38 42  1  6  0  0  0
M  CHG  6  14   1  20   1  26   1  32   1  39   1  40   1
M  END
>  <CHROM.1>
61.41217769,-64.50918195,128.04241247,76.04640660,-51.30494406,13.73879600
48.52782590,-74.51473338,-55.36147110,-61.50108090,-84.49764399,160.41954896
87.49981344,-93.56331037,90.11155510,63.65897258,66.38835051,67.23663373
174.80287943,86.56878329,-63.25921066,-57.47977850,-4.26762312,-5.82718425
0.64017723,2.95086895,-0.96740686,0.04596977

>  <Name>


>  <RI>
0

>  <Rbt.Current_Directory>
/home/itssahil/PROJECTS/Mol_Feturizer/New_Systems/rnas/1qd3

>  <Rbt.Executable>
rbdock ($Id: //depot/dev/client3/rdock/2013.1/src/exe/rbdock.cxx#4 $)

>  <Rbt.Library>
libRbt.so (2013.1, Build901 2013/11/27)

>  <Rbt.Parameter_File>
/export/apps/rDock/src/rDock_2013.1_src/data/scripts/dock_solv.prm

>  <Rbt.Receptor>
prm/blind_docking_40.prm

>  <SCORE>
-25.7506

>  <SCORE.INTER>
-19.4809

>  <SCORE.INTER.CONST>
1

>  <SCORE.INTER.POLAR>
-2.45638

>  <SCORE.INTER.ROT>
9

>  <SCORE.INTER.SOLV>
19.8471

>  <SCORE.INTER.VDW>
-21.015

>  <SCORE.INTER.norm>
-0.463831

>  <SCORE.INTRA>
-11.1365

>  <SCORE.INTRA.DIHEDRAL>
-12.2544

>  <SCORE.INTRA.DIHEDRAL.0>
40.6252

>  <SCORE.INTRA.POLAR>
-1.60979

>  <SCORE.INTRA.POLAR.0>
-1.20161

>  <SCORE.INTRA.REPUL>
-0.115675

>  <SCORE.INTRA.REPUL.0>
0.115675

>  <SCORE.INTRA.SOLV>
-2.50487

>  <SCORE.INTRA.SOLV.lig_0>
-154.895

>  <SCORE.INTRA.VDW>
2.29478

>  <SCORE.INTRA.VDW.0>
2.2925

>  <SCORE.INTRA.norm>
-0.265155

>  <SCORE.RESTR>
4.86676

>  <SCORE.RESTR.CAVITY>
4.86676

>  <SCORE.RESTR.norm>
0.115875

>  <SCORE.SYSTEM>
0

>  <SCORE.SYSTEM.CONST>
0

>  <SCORE.SYSTEM.DIHEDRAL>
0

>  <SCORE.SYSTEM.SOLV>
0

>  <SCORE.SYSTEM.norm>
0

>  <SCORE.heavy>
42

>  <SCORE.norm>
-0.61311

>  <RMSD>
14.478

$$$$

 OpenBabel11021811413D
libRbt.so/2013.1/901 2013/11/27
 42 45  0  0  0  0  0  0  0  0999 V2000
   -7.5086   -3.8024   -3.9182 O   0  0  0  0  0  0  0  0  0  0  0  0
   -7.3043   -4.7584   -2.8877 C   0  0  0  0  0  0  0  0  0  0  0  0
   -5.8964   -4.6049   -2.3110 C   0  0  1  0  0  0  0  0  0  0  0  0
   -5.6393   -3.2419   -1.9090 O   0  0  0  0  0  0  0  0  0  0  0  0
   -5.6556   -5.4530   -1.0732 C   0  0  2  0  0  0  0  0  0  0  0  0
   -4.4535   -4.7394   -0.4779 C   0  0  1  0  0  0  0  0  0  0  0  0
   -3.2784   -5.0937   -1.1986 O   0  0  0  0  0  0  0  0  0  0  0  0
   -4.7956   -3.2568   -0.7297 C   0  0  2  0  0  0  0  0  0  0  0  0
   -8.2575   -8.1833   -3.1917 C   0  0  2  0  0  0  0  0  0  0  0  0
   -7.0343   -7.4642   -2.9723 O   0  0  0  0  0  0  0  0  0  0  0  0
   -6.5644   -7.6029   -1.6193 C   0  0  2  0  0  0  0  0  0  0  0  0
   -5.3678   -6.8226   -1.4172 O   0  0  0  0  0  0  0  0  0  0  0  0
   -6.3009   -9.0812   -1.2849 C   0  0  2  0  0  0  0  0  0  0  0  0
   -5.0595   -9.5318   -1.8867 N   0  3  0  0  0  0  0  0  0  0  0  0
   -7.4584  -10.0026   -1.6874 C   0  0  1  0  0  0  0  0  0  0  0  0
   -8.5037   -9.8893   -0.7348 O   0  0  0  0  0  0  0  0  0  0  0  0
   -7.9976   -9.6801   -3.0784 C   0  0  2  0  0  0  0  0  0  0  0  0
   -7.0626  -10.0912   -4.0690 O   0  0  0  0  0  0  0  0  0  0  0  0
   -8.8483   -7.8362   -4.5553 C   0  0  0  0  0  0  0  0  0  0  0  0
   -7.9141   -8.1735   -5.6129 N   0  3  0  0  0  0  0  0  0  0  0  0
   -2.8804   -6.0450    4.6014 C   0  0  1  0  0  0  0  0  0  0  0  0
   -2.6184   -5.9347    3.1867 O   0  0  0  0  0  0  0  0  0  0  0  0
   -3.7860   -5.5718    2.4145 C   0  0  2  0  0  0  0  0  0  0  0  0
   -4.2531   -4.2370    2.7304 O   0  0  0  0  0  0  0  0  0  0  0  0
   -4.9017   -6.6069    2.6029 C   0  0  2  0  0  0  0  0  0  0  0  0
   -6.1302   -6.1269    1.9978 N   0  3  0  0  0  0  0  0  0  0  0  0
   -5.1525   -6.9055    4.0768 C   0  0  1  0  0  0  0  0  0  0  0  0
   -6.0141   -8.0268    4.1975 O   0  0  0  0  0  0  0  0  0  0  0  0
   -3.8760   -7.1633    4.8626 C   0  0  2  0  0  0  0  0  0  0  0  0
   -4.1599   -7.2470    6.2515 O   0  0  0  0  0  0  0  0  0  0  0  0
   -1.5931   -6.3877    5.3458 C   0  0  0  0  0  0  0  0  0  0  0  0
   -0.8916   -7.4740    4.6865 N   0  3  0  0  0  0  0  0  0  0  0  0
   -2.9516   -0.2712    1.9068 C   0  0  2  0  0  0  0  0  0  0  0  0
   -1.8954   -1.3299    2.1556 C   0  0  0  0  0  0  0  0  0  0  0  0
   -2.5107   -2.5496    2.8163 C   0  0  1  0  0  0  0  0  0  0  0  0
   -3.5866   -3.2086    1.9520 C   0  0  2  0  0  0  0  0  0  0  0  0
   -4.6186   -2.1663    1.4627 C   0  0  1  0  0  0  0  0  0  0  0  0
   -4.0564   -0.8125    1.0095 C   0  0  1  0  0  0  0  0  0  0  0  0
   -2.3375    0.8843    1.2810 N   0  3  0  0  0  0  0  0  0  0  0  0
   -1.4586   -3.4965    3.1305 N   0  3  0  0  0  0  0  0  0  0  0  0
   -5.4809   -2.7140    0.4353 O   0  0  0  0  0  0  0  0  0  0  0  0
   -5.1102    0.1405    0.9175 O   0  0  0  0  0  0  0  0  0  0  0  0
  1  2  1  0  0  0  0
  3  2  1  1  0  0  0
  3  4  1  0  0  0  0
  3  5  1  0  0  0  0
  4  8  1  0  0  0  0
  5  6  1  0  0  0  0
  5 12  1  6  0  0  0
  6  7  1  6  0  0  0
  6  8  1  0  0  0  0
  8 41  1  1  0  0  0
  9 10  1  0  0  0  0
  9 17  1  0  0  0  0
  9 19  1  6  0  0  0
 10 11  1  0  0  0  0
 11 12  1  6  0  0  0
 11 13  1  0  0  0  0
 13 14  1  6  0  0  0
 13 15  1  0  0  0  0
 15 16  1  1  0  0  0
 15 17  1  0  0  0  0
 17 18  1  6  0  0  0
 19 20  1  0  0  0  0
 21 22  1  0  0  0  0
 21 29  1  0  0  0  0
 21 31  1  1  0  0  0
 22 23  1  0  0  0  0
 23 24  1  1  0  0  0
 23 25  1  0  0  0  0
 25 26  1  1  0  0  0
 25 27  1  0  0  0  0
 27 28  1  6  0  0  0
 27 29  1  0  0  0  0
 29 30  1  1  0  0  0
 31 32  1  0  0  0  0
 33 34  1  0  0  0  0
 33 38  1  0  0  0  0
 33 39  1  6  0  0  0
 34 35  1  0  0  0  0
 35 36  1  0  0  0  0
 35 40  1  6  0  0  0
 36 24  1  1  0  0  0
 36 37  1  0  0  0  0
 37 38  1  0  0  0  0
 37 41  1  6  0  0  0
 38 42  1  1  0  0  0
M  CHG  6  14   1  20   1  26   1  32   1  39   1  40   1
M  END
>  <CHROM.1>
-179.51490411,52.73708105,-84.39648415,-50.03308495,-154.91676832,59.59657891
85.62305145,109.77755556,-175.69452039,66.75472541,57.54859180,-47.19000349
86.51059876,-101.06630021,140.52555881,161.24941085,150.26642452,26.77107894
148.37965728,120.89579949,-56.08555825,-168.26730689,-5.02750622,-5.56564428
0.39392140,2.99136615,1.04727538,2.66870425

>  <Name>


>  <RI>
0

>  <Rbt.Current_Directory>
/home/itssahil/PROJECTS/Mol_Feturizer/New_Systems/rnas/1qd3

>  <Rbt.Executable>
rbdock ($Id: //depot/dev/client3/rdock/2013.1/src/exe/rbdock.cxx#4 $)

>  <Rbt.Library>
libRbt.so (2013.1, Build901 2013/11/27)

>  <Rbt.Parameter_File>
/export/apps/rDock/src/rDock_2013.1_src/data/scripts/dock_solv.prm

>  <Rbt.Receptor>
prm/blind_docking_60.prm

>  <SCORE>
-56.2898

>  <SCORE.INTER>
-46.5173

>  <SCORE.INTER.CONST>
1

>  <SCORE.INTER.POLAR>
-6.01749

>  <SCORE.INTER.ROT>
9

>  <SCORE.INTER.SOLV>
32.0941

>  <SCORE.INTER.VDW>
-31.2513

>  <SCORE.INTER.norm>
-1.10756

>  <SCORE.INTRA>
-9.93215

>  <SCORE.INTRA.DIHEDRAL>
-2.4886

>  <SCORE.INTRA.DIHEDRAL.0>
40.6252

>  <SCORE.INTRA.POLAR>
-0.58032

>  <SCORE.INTRA.POLAR.0>
-1.20161

>  <SCORE.INTRA.REPUL>
-0.115675

>  <SCORE.INTRA.REPUL.0>
0.115675

>  <SCORE.INTRA.SOLV>
-1.08643

>  <SCORE.INTRA.SOLV.lig_0>
-154.895

>  <SCORE.INTRA.VDW>
-5.59317

>  <SCORE.INTRA.VDW.0>
2.2925

>  <SCORE.INTRA.norm>
-0.23648

>  <SCORE.RESTR>
0.159668

>  <SCORE.RESTR.CAVITY>
0.159668

>  <SCORE.RESTR.norm>
0.00380161

>  <SCORE.SYSTEM>
0

>  <SCORE.SYSTEM.CONST>
0

>  <SCORE.SYSTEM.DIHEDRAL>
0

>  <SCORE.SYSTEM.SOLV>
0

>  <SCORE.SYSTEM.norm>
0

>  <SCORE.heavy>
42

>  <SCORE.norm>
-1.34023

>  <RMSD>
14.487

$$$$

 OpenBabel11021811413D
libRbt.so/2013.1/901 2013/11/27
 42 45  0  0  0  0  0  0  0  0999 V2000
   -4.2910  -11.0373   -1.5800 O   0  0  0  0  0  0  0  0  0  0  0  0
   -3.7864  -10.3800   -0.4262 C   0  0  0  0  0  0  0  0  0  0  0  0
   -3.2863   -8.9848   -0.8025 C   0  0  1  0  0  0  0  0  0  0  0  0
   -4.1594   -8.3563   -1.7661 O   0  0  0  0  0  0  0  0  0  0  0  0
   -3.2179   -8.0297    0.3776 C   0  0  2  0  0  0  0  0  0  0  0  0
   -3.1988   -6.6944   -0.3473 C   0  0  1  0  0  0  0  0  0  0  0  0
   -1.9004   -6.4542   -0.8786 O   0  0  0  0  0  0  0  0  0  0  0  0
   -4.1996   -6.9320   -1.4965 C   0  0  2  0  0  0  0  0  0  0  0  0
   -3.2974   -7.5476    4.5207 C   0  0  2  0  0  0  0  0  0  0  0  0
   -3.1582   -8.1952    3.2469 O   0  0  0  0  0  0  0  0  0  0  0  0
   -2.1051   -7.6111    2.4591 C   0  0  2  0  0  0  0  0  0  0  0  0
   -2.0305   -8.2453    1.1653 O   0  0  0  0  0  0  0  0  0  0  0  0
   -0.7552   -7.7243    3.1881 C   0  0  2  0  0  0  0  0  0  0  0  0
   -0.2331   -9.0755    3.0980 N   0  3  0  0  0  0  0  0  0  0  0  0
   -0.8240   -7.2715    4.6513 C   0  0  1  0  0  0  0  0  0  0  0  0
   -0.8268   -5.8538    4.7058 O   0  0  0  0  0  0  0  0  0  0  0  0
   -2.0587   -7.8128    5.3668 C   0  0  2  0  0  0  0  0  0  0  0  0
   -1.9130   -9.2092    5.5976 O   0  0  0  0  0  0  0  0  0  0  0  0
   -4.5567   -8.0305    5.2348 C   0  0  0  0  0  0  0  0  0  0  0  0
   -4.6591   -7.4225    6.5481 N   0  3  0  0  0  0  0  0  0  0  0  0
   -5.3850   -4.8235    1.6045 C   0  0  1  0  0  0  0  0  0  0  0  0
   -6.0407   -3.9705    0.6430 O   0  0  0  0  0  0  0  0  0  0  0  0
   -5.1333   -3.0778   -0.0435 C   0  0  2  0  0  0  0  0  0  0  0  0
   -4.1948   -3.7962   -0.8819 O   0  0  0  0  0  0  0  0  0  0  0  0
   -4.4018   -2.1757    0.9579 C   0  0  2  0  0  0  0  0  0  0  0  0
   -3.3495   -1.4384    0.2837 N   0  3  0  0  0  0  0  0  0  0  0  0
   -3.7962   -2.9784    2.1040 C   0  0  1  0  0  0  0  0  0  0  0  0
   -3.3405   -2.0955    3.1174 O   0  0  0  0  0  0  0  0  0  0  0  0
   -4.7633   -3.9844    2.7089 C   0  0  2  0  0  0  0  0  0  0  0  0
   -4.0880   -4.8228    3.6350 O   0  0  0  0  0  0  0  0  0  0  0  0
   -6.4017   -5.7599    2.2510 C   0  0  0  0  0  0  0  0  0  0  0  0
   -5.7861   -7.0284    2.5955 N   0  3  0  0  0  0  0  0  0  0  0  0
   -7.3703   -4.3718   -3.6540 C   0  0  2  0  0  0  0  0  0  0  0  0
   -6.1216   -3.6622   -4.1391 C   0  0  0  0  0  0  0  0  0  0  0  0
   -5.2874   -3.1902   -2.9626 C   0  0  1  0  0  0  0  0  0  0  0  0
   -4.8118   -4.3427   -2.0769 C   0  0  2  0  0  0  0  0  0  0  0  0
   -5.9908   -5.2640   -1.6870 C   0  0  1  0  0  0  0  0  0  0  0  0
   -7.0069   -5.5748   -2.7940 C   0  0  1  0  0  0  0  0  0  0  0  0
   -8.1516   -4.8072   -4.7959 N   0  3  0  0  0  0  0  0  0  0  0  0
   -4.1574   -2.4304   -3.4608 N   0  3  0  0  0  0  0  0  0  0  0  0
   -5.5256   -6.4950   -1.0812 O   0  0  0  0  0  0  0  0  0  0  0  0
   -8.1867   -6.1307   -2.2229 O   0  0  0  0  0  0  0  0  0  0  0  0
  1  2  1  0  0  0  0
  3  2  1  1  0  0  0
  3  4  1  0  0  0  0
  3  5  1  0  0  0  0
  4  8  1  0  0  0  0
  5  6  1  0  0  0  0
  5 12  1  6  0  0  0
  6  7  1  6  0  0  0
  6  8  1  0  0  0  0
  8 41  1  1  0  0  0
  9 10  1  0  0  0  0
  9 17  1  0  0  0  0
  9 19  1  1  0  0  0
 10 11  1  0  0  0  0
 11 12  1  6  0  0  0
 11 13  1  0  0  0  0
 13 14  1  1  0  0  0
 13 15  1  0  0  0  0
 15 16  1  6  0  0  0
 15 17  1  0  0  0  0
 17 18  1  6  0  0  0
 19 20  1  0  0  0  0
 21 22  1  0  0  0  0
 21 29  1  0  0  0  0
 21 31  1  1  0  0  0
 22 23  1  0  0  0  0
 23 24  1  1  0  0  0
 23 25  1  0  0  0  0
 25 26  1  6  0  0  0
 25 27  1  0  0  0  0
 27 28  1  1  0  0  0
 27 29  1  0  0  0  0
 29 30  1  1  0  0  0
 31 32  1  0  0  0  0
 33 34  1  0  0  0  0
 33 38  1  0  0  0  0
 33 39  1  6  0  0  0
 34 35  1  0  0  0  0
 35 36  1  0  0  0  0
 35 40  1  6  0  0  0
 36 24  1  1  0  0  0
 36 37  1  0  0  0  0
 37 38  1  0  0  0  0
 37 41  1  6  0  0  0
 38 42  1  1  0  0  0
M  CHG  6  14   1  20   1  26   1  32   1  39   1  40   1
M  END
>  <CHROM.1>
-179.60685821,39.30121296,-164.91635831,-179.08113232,-136.28926726,177.23969545
64.20001794,-179.14556167,78.41468601,-176.60743154,-71.21563014,148.14107271
72.73427421,65.17290643,-160.67610249,176.56181256,77.31479362,-93.38439859
-157.52166179,-140.77088922,-27.71427888,-53.63446837,-4.12168724,-6.04477251
0.81152979,3.13380080,-1.12702386,0.44776971

>  <Name>


>  <RI>
0

>  <Rbt.Current_Directory>
/home/itssahil/PROJECTS/Mol_Feturizer/New_Systems/rnas/1qd3

>  <Rbt.Executable>
rbdock ($Id: //depot/dev/client3/rdock/2013.1/src/exe/rbdock.cxx#4 $)

>  <Rbt.Library>
libRbt.so (2013.1, Build901 2013/11/27)

>  <Rbt.Parameter_File>
/export/apps/rDock/src/rDock_2013.1_src/data/scripts/dock_solv.prm

>  <Rbt.Receptor>
prm/blind_docking_40.prm

>  <SCORE>
-35.5169

>  <SCORE.INTER>
-23.7431

>  <SCORE.INTER.CONST>
1

>  <SCORE.INTER.POLAR>
-2.03649

>  <SCORE.INTER.ROT>
9

>  <SCORE.INTER.SOLV>
28.8985

>  <SCORE.INTER.VDW>
-28.2733

>  <SCORE.INTER.norm>
-0.565312

>  <SCORE.INTRA>
-14.4288

>  <SCORE.INTRA.DIHEDRAL>
-12.829

>  <SCORE.INTRA.DIHEDRAL.0>
40.6252

>  <SCORE.INTRA.POLAR>
0.620925

>  <SCORE.INTRA.POLAR.0>
-1.20161

>  <SCORE.INTRA.REPUL>
-0.115489

>  <SCORE.INTRA.REPUL.0>
0.115675

>  <SCORE.INTRA.SOLV>
-3.36661

>  <SCORE.INTRA.SOLV.lig_0>
-154.895

>  <SCORE.INTRA.VDW>
-7.86469

>  <SCORE.INTRA.VDW.0>
2.2925

>  <SCORE.INTRA.norm>
-0.343543

>  <SCORE.RESTR>
2.65497

>  <SCORE.RESTR.CAVITY>
2.65497

>  <SCORE.RESTR.norm>
0.0632135

>  <SCORE.SYSTEM>
0

>  <SCORE.SYSTEM.CONST>
0

>  <SCORE.SYSTEM.DIHEDRAL>
0

>  <SCORE.SYSTEM.SOLV>
0

>  <SCORE.SYSTEM.norm>
0

>  <SCORE.heavy>
42

>  <SCORE.norm>
-0.845641

>  <RMSD>
14.511

$$$$

 OpenBabel11021811413D
libRbt.so/2013.1/901 2013/11/27
 42 45  0  0  0  0  0  0  0  0999 V2000
   -6.4834   -3.4866   -2.1760 O   0  0  0  0  0  0  0  0  0  0  0  0
   -5.5041   -4.4012   -1.7047 C   0  0  0  0  0  0  0  0  0  0  0  0
   -5.3748   -4.2837   -0.1855 C   0  0  1  0  0  0  0  0  0  0  0  0
   -4.8398   -5.4949    0.3912 O   0  0  0  0  0  0  0  0  0  0  0  0
   -4.4415   -3.1686    0.2562 C   0  0  2  0  0  0  0  0  0  0  0  0
   -4.1328   -3.6119    1.6764 C   0  0  1  0  0  0  0  0  0  0  0  0
   -5.2327   -3.3048    2.5259 O   0  0  0  0  0  0  0  0  0  0  0  0
   -4.0020   -5.1407    1.5206 C   0  0  2  0  0  0  0  0  0  0  0  0
   -3.5435    0.9646   -1.4748 C   0  0  2  0  0  0  0  0  0  0  0  0
   -4.4859   -0.0844   -1.2049 O   0  0  0  0  0  0  0  0  0  0  0  0
   -4.1614   -0.8018   -0.0004 C   0  0  2  0  0  0  0  0  0  0  0  0
   -5.0925   -1.8836    0.2100 O   0  0  0  0  0  0  0  0  0  0  0  0
   -4.1603    0.1453    1.2119 C   0  0  2  0  0  0  0  0  0  0  0  0
   -5.5169    0.4569    1.6231 N   0  3  0  0  0  0  0  0  0  0  0  0
   -3.3643    1.4325    0.9666 C   0  0  1  0  0  0  0  0  0  0  0  0
   -1.9771    1.1568    1.0780 O   0  0  0  0  0  0  0  0  0  0  0  0
   -3.6560    2.0408   -0.4025 C   0  0  2  0  0  0  0  0  0  0  0  0
   -4.9606    2.6087   -0.4136 O   0  0  0  0  0  0  0  0  0  0  0  0
   -3.7778    1.5540   -2.8628 C   0  0  0  0  0  0  0  0  0  0  0  0
   -3.6356    0.5286   -3.8792 N   0  3  0  0  0  0  0  0  0  0  0  0
   -4.1172   -7.5327    4.5639 C   0  0  1  0  0  0  0  0  0  0  0  0
   -3.3223   -6.3864    4.1949 O   0  0  0  0  0  0  0  0  0  0  0  0
   -1.9014   -6.6553    4.1805 C   0  0  2  0  0  0  0  0  0  0  0  0
   -1.5388   -7.6068    3.1496 O   0  0  0  0  0  0  0  0  0  0  0  0
   -1.4267   -7.1273    5.5602 C   0  0  2  0  0  0  0  0  0  0  0  0
   -0.0546   -7.5925    5.4796 N   0  3  0  0  0  0  0  0  0  0  0  0
   -2.3044   -8.2476    6.1070 C   0  0  1  0  0  0  0  0  0  0  0  0
   -1.9801   -8.4881    7.4676 O   0  0  0  0  0  0  0  0  0  0  0  0
   -3.7925   -7.9571    5.9869 C   0  0  2  0  0  0  0  0  0  0  0  0
   -4.5495   -9.1068    6.3360 O   0  0  0  0  0  0  0  0  0  0  0  0
   -5.6005   -7.1777    4.5135 C   0  0  0  0  0  0  0  0  0  0  0  0
   -6.0706   -7.1269    3.1413 N   0  3  0  0  0  0  0  0  0  0  0  0
   -3.1028   -8.7329   -0.6432 C   0  0  2  0  0  0  0  0  0  0  0  0
   -3.5390   -9.5283    0.5714 C   0  0  0  0  0  0  0  0  0  0  0  0
   -2.6056   -9.2694    1.7395 C   0  0  1  0  0  0  0  0  0  0  0  0
   -2.5907   -7.8014    2.1682 C   0  0  2  0  0  0  0  0  0  0  0  0
   -2.3570   -6.8728    0.9542 C   0  0  1  0  0  0  0  0  0  0  0  0
   -3.0988   -7.2412   -0.3375 C   0  0  1  0  0  0  0  0  0  0  0  0
   -4.0064   -9.0022   -1.7455 N   0  3  0  0  0  0  0  0  0  0  0  0
   -2.9913  -10.1202    2.8484 N   0  3  0  0  0  0  0  0  0  0  0  0
   -2.6057   -5.4857    1.2903 O   0  0  0  0  0  0  0  0  0  0  0  0
   -2.5388   -6.5277   -1.4350 O   0  0  0  0  0  0  0  0  0  0  0  0
  1  2  1  0  0  0  0
  3  2  1  6  0  0  0
  3  4  1  0  0  0  0
  3  5  1  0  0  0  0
  4  8  1  0  0  0  0
  5  6  1  0  0  0  0
  5 12  1  1  0  0  0
  6  7  1  1  0  0  0
  6  8  1  0  0  0  0
  8 41  1  6  0  0  0
  9 10  1  0  0  0  0
  9 17  1  0  0  0  0
  9 19  1  6  0  0  0
 10 11  1  0  0  0  0
 11 12  1  1  0  0  0
 11 13  1  0  0  0  0
 13 14  1  6  0  0  0
 13 15  1  0  0  0  0
 15 16  1  6  0  0  0
 15 17  1  0  0  0  0
 17 18  1  1  0  0  0
 19 20  1  0  0  0  0
 21 22  1  0  0  0  0
 21 29  1  0  0  0  0
 21 31  1  1  0  0  0
 22 23  1  0  0  0  0
 23 24  1  6  0  0  0
 23 25  1  0  0  0  0
 25 26  1  6  0  0  0
 25 27  1  0  0  0  0
 27 28  1  1  0  0  0
 27 29  1  0  0  0  0
 29 30  1  6  0  0  0
 31 32  1  0  0  0  0
 33 34  1  0  0  0  0
 33 38  1  0  0  0  0
 33 39  1  6  0  0  0
 34 35  1  0  0  0  0
 35 36  1  0  0  0  0
 35 40  1  1  0  0  0
 36 24  1  1  0  0  0
 36 37  1  0  0  0  0
 37 38  1  0  0  0  0
 37 41  1  1  0  0  0
 38 42  1  6  0  0  0
M  CHG  6  14   1  20   1  26   1  32   1  39   1  40   1
M  END
>  <CHROM.1>
176.97180651,156.65657228,-152.70152018,57.57732908,-55.50285911,-59.62242741
120.50261642,59.82871564,66.50863848,-67.37905568,176.80215295,76.00915808
14.93515777,-143.55513476,159.52699331,60.59517625,-66.93194841,170.45531142
-106.71286191,-55.60986510,-70.27621536,-78.54910470,-3.70114475,-4.66940206
1.49368107,2.32855324,-1.37991093,0.23574846

>  <Name>


>  <RI>
0

>  <Rbt.Current_Directory>
/home/itssahil/PROJECTS/Mol_Feturizer/New_Systems/rnas/1qd3

>  <Rbt.Executable>
rbdock ($Id: //depot/dev/client3/rdock/2013.1/src/exe/rbdock.cxx#4 $)

>  <Rbt.Library>
libRbt.so (2013.1, Build901 2013/11/27)

>  <Rbt.Parameter_File>
/export/apps/rDock/src/rDock_2013.1_src/data/scripts/dock_solv.prm

>  <Rbt.Receptor>
prm/blind_docking_20.prm

>  <SCORE>
-43.0283

>  <SCORE.INTER>
-34.5103

>  <SCORE.INTER.CONST>
1

>  <SCORE.INTER.POLAR>
-4.68614

>  <SCORE.INTER.ROT>
9

>  <SCORE.INTER.SOLV>
38.8747

>  <SCORE.INTER.VDW>
-29.9446

>  <SCORE.INTER.norm>
-0.821673

>  <SCORE.INTRA>
-11.6204

>  <SCORE.INTRA.DIHEDRAL>
-7.52018

>  <SCORE.INTRA.DIHEDRAL.0>
40.6252

>  <SCORE.INTRA.POLAR>
1.20161

>  <SCORE.INTRA.POLAR.0>
-1.20161

>  <SCORE.INTRA.REPUL>
-0.115675

>  <SCORE.INTRA.REPUL.0>
0.115675

>  <SCORE.INTRA.SOLV>
-7.87286

>  <SCORE.INTRA.SOLV.lig_0>
-154.895

>  <SCORE.INTRA.VDW>
-7.43092

>  <SCORE.INTRA.VDW.0>
2.2925

>  <SCORE.INTRA.norm>
-0.276675

>  <SCORE.RESTR>
3.10233

>  <SCORE.RESTR.CAVITY>
3.10233

>  <SCORE.RESTR.norm>
0.073865

>  <SCORE.SYSTEM>
0

>  <SCORE.SYSTEM.CONST>
0

>  <SCORE.SYSTEM.DIHEDRAL>
0

>  <SCORE.SYSTEM.SOLV>
0

>  <SCORE.SYSTEM.norm>
0

>  <SCORE.heavy>
42

>  <SCORE.norm>
-1.02448

>  <RMSD>
14.513

$$$$

 OpenBabel11021811413D
libRbt.so/2013.1/901 2013/11/27
 42 45  0  0  0  0  0  0  0  0999 V2000
   -5.7638   -9.8575   -2.8946 O   0  0  0  0  0  0  0  0  0  0  0  0
   -6.6320   -8.7579   -2.6603 C   0  0  0  0  0  0  0  0  0  0  0  0
   -6.3426   -8.1538   -1.2856 C   0  0  1  0  0  0  0  0  0  0  0  0
   -5.4763   -9.0086   -0.5082 O   0  0  0  0  0  0  0  0  0  0  0  0
   -5.6414   -6.8073   -1.3537 C   0  0  2  0  0  0  0  0  0  0  0  0
   -5.0629   -6.7248    0.0489 C   0  0  1  0  0  0  0  0  0  0  0  0
   -6.0879   -6.3736    0.9719 O   0  0  0  0  0  0  0  0  0  0  0  0
   -4.6063   -8.1764    0.3001 C   0  0  2  0  0  0  0  0  0  0  0  0
   -7.2324   -6.2088   -5.1924 C   0  0  2  0  0  0  0  0  0  0  0  0
   -7.2146   -6.4841   -3.7833 O   0  0  0  0  0  0  0  0  0  0  0  0
   -6.6250   -5.4072   -3.0326 C   0  0  2  0  0  0  0  0  0  0  0  0
   -6.5697   -5.7400   -1.6298 O   0  0  0  0  0  0  0  0  0  0  0  0
   -7.4147   -4.1037   -3.2416 C   0  0  2  0  0  0  0  0  0  0  0  0
   -8.6470   -4.1198   -2.4751 N   0  3  0  0  0  0  0  0  0  0  0  0
   -7.7042   -3.8081   -4.7179 C   0  0  1  0  0  0  0  0  0  0  0  0
   -6.5341   -3.2933   -5.3333 O   0  0  0  0  0  0  0  0  0  0  0  0
   -8.1765   -5.0469   -5.4740 C   0  0  2  0  0  0  0  0  0  0  0  0
   -9.5002   -5.3838   -5.0755 O   0  0  0  0  0  0  0  0  0  0  0  0
   -7.6483   -7.4495   -5.9775 C   0  0  0  0  0  0  0  0  0  0  0  0
   -8.9247   -7.9470   -5.4998 N   0  3  0  0  0  0  0  0  0  0  0  0
   -3.5161   -3.7537    2.2060 C   0  0  1  0  0  0  0  0  0  0  0  0
   -3.9349   -4.7570    1.2571 O   0  0  0  0  0  0  0  0  0  0  0  0
   -2.8646   -5.2176    0.4007 C   0  0  2  0  0  0  0  0  0  0  0  0
   -1.8413   -5.9260    1.1429 O   0  0  0  0  0  0  0  0  0  0  0  0
   -2.2646   -4.0490   -0.3906 C   0  0  2  0  0  0  0  0  0  0  0  0
   -1.0640   -4.4826   -1.0808 N   0  3  0  0  0  0  0  0  0  0  0  0
   -1.9243   -2.8698    0.5139 C   0  0  1  0  0  0  0  0  0  0  0  0
   -1.5985   -1.7381   -0.2782 O   0  0  0  0  0  0  0  0  0  0  0  0
   -3.0462   -2.5069    1.4746 C   0  0  2  0  0  0  0  0  0  0  0  0
   -2.6011   -1.5341    2.4085 O   0  0  0  0  0  0  0  0  0  0  0  0
   -4.6897   -3.3541    3.0957 C   0  0  0  0  0  0  0  0  0  0  0  0
   -5.9487   -3.5272    2.3945 N   0  3  0  0  0  0  0  0  0  0  0  0
   -1.5854   -9.7099    3.0705 C   0  0  2  0  0  0  0  0  0  0  0  0
   -1.9195   -8.4995    3.9198 C   0  0  0  0  0  0  0  0  0  0  0  0
   -1.5775   -7.2198    3.1793 C   0  0  1  0  0  0  0  0  0  0  0  0
   -2.3646   -7.0636    1.8773 C   0  0  2  0  0  0  0  0  0  0  0  0
   -2.2628   -8.3413    1.0124 C   0  0  1  0  0  0  0  0  0  0  0  0
   -2.3586   -9.6783    1.7591 C   0  0  1  0  0  0  0  0  0  0  0  0
   -1.9158  -10.9180    3.8022 N   0  3  0  0  0  0  0  0  0  0  0  0
   -1.8143   -6.0900    4.0566 N   0  3  0  0  0  0  0  0  0  0  0  0
   -3.2086   -8.3172   -0.0847 O   0  0  0  0  0  0  0  0  0  0  0  0
   -1.9147  -10.7349    0.9144 O   0  0  0  0  0  0  0  0  0  0  0  0
  1  2  1  0  0  0  0
  3  2  1  6  0  0  0
  3  4  1  0  0  0  0
  3  5  1  0  0  0  0
  4  8  1  0  0  0  0
  5  6  1  0  0  0  0
  5 12  1  1  0  0  0
  6  7  1  1  0  0  0
  6  8  1  0  0  0  0
  8 41  1  6  0  0  0
  9 10  1  0  0  0  0
  9 17  1  0  0  0  0
  9 19  1  6  0  0  0
 10 11  1  0  0  0  0
 11 12  1  1  0  0  0
 11 13  1  0  0  0  0
 13 14  1  1  0  0  0
 13 15  1  0  0  0  0
 15 16  1  6  0  0  0
 15 17  1  0  0  0  0
 17 18  1  1  0  0  0
 19 20  1  0  0  0  0
 21 22  1  0  0  0  0
 21 29  1  0  0  0  0
 21 31  1  1  0  0  0
 22 23  1  0  0  0  0
 23 24  1  1  0  0  0
 23 25  1  0  0  0  0
 25 26  1  1  0  0  0
 25 27  1  0  0  0  0
 27 28  1  6  0  0  0
 27 29  1  0  0  0  0
 29 30  1  1  0  0  0
 31 32  1  0  0  0  0
 33 34  1  0  0  0  0
 33 38  1  0  0  0  0
 33 39  1  1  0  0  0
 34 35  1  0  0  0  0
 35 36  1  0  0  0  0
 35 40  1  1  0  0  0
 36 24  1  6  0  0  0
 36 37  1  0  0  0  0
 37 38  1  0  0  0  0
 37 41  1  6  0  0  0
 38 42  1  6  0  0  0
M  CHG  6  14   1  20   1  26   1  32   1  39   1  40   1
M  END
>  <CHROM.1>
-173.29821933,-11.46083687,-96.00901877,49.12961669,-140.24059610,55.15476780
68.01620908,175.57188647,-168.98162958,-170.82863114,-73.22978810,-28.31590205
57.25560143,-146.07608556,-161.40687609,175.72421405,-65.43039444,37.32577828
59.06787410,-55.65583239,-57.81031829,69.03231202,-4.64991870,-6.16494852
-0.53538277,3.02035008,-0.88249169,-0.01817354

>  <Name>


>  <RI>
0

>  <Rbt.Current_Directory>
/home/itssahil/PROJECTS/Mol_Feturizer/New_Systems/rnas/1qd3

>  <Rbt.Executable>
rbdock ($Id: //depot/dev/client3/rdock/2013.1/src/exe/rbdock.cxx#4 $)

>  <Rbt.Library>
libRbt.so (2013.1, Build901 2013/11/27)

>  <Rbt.Parameter_File>
/export/apps/rDock/src/rDock_2013.1_src/data/scripts/dock_solv.prm

>  <Rbt.Receptor>
prm/blind_docking_60.prm

>  <SCORE>
-30.0966

>  <SCORE.INTER>
-17.3909

>  <SCORE.INTER.CONST>
1

>  <SCORE.INTER.POLAR>
-2.84188

>  <SCORE.INTER.ROT>
9

>  <SCORE.INTER.SOLV>
28.4474

>  <SCORE.INTER.VDW>
-21.2034

>  <SCORE.INTER.norm>
-0.414068

>  <SCORE.INTRA>
-15.0916

>  <SCORE.INTRA.DIHEDRAL>
-11.4355

>  <SCORE.INTRA.DIHEDRAL.0>
40.6252

>  <SCORE.INTRA.POLAR>
-0.690041

>  <SCORE.INTRA.POLAR.0>
-1.20161

>  <SCORE.INTRA.REPUL>
-0.115611

>  <SCORE.INTRA.REPUL.0>
0.115675

>  <SCORE.INTRA.SOLV>
-5.26218

>  <SCORE.INTRA.SOLV.lig_0>
-154.895

>  <SCORE.INTRA.VDW>
-3.8186

>  <SCORE.INTRA.VDW.0>
2.2925

>  <SCORE.INTRA.norm>
-0.359325

>  <SCORE.RESTR>
2.3859

>  <SCORE.RESTR.CAVITY>
2.3859

>  <SCORE.RESTR.norm>
0.0568072

>  <SCORE.SYSTEM>
0

>  <SCORE.SYSTEM.CONST>
0

>  <SCORE.SYSTEM.DIHEDRAL>
0

>  <SCORE.SYSTEM.SOLV>
0

>  <SCORE.SYSTEM.norm>
0

>  <SCORE.heavy>
42

>  <SCORE.norm>
-0.716586

>  <RMSD>
14.513

$$$$

 OpenBabel11021811413D
libRbt.so/2013.1/901 2013/11/27
 42 45  0  0  0  0  0  0  0  0999 V2000
   -1.3325   -1.1521    4.0056 O   0  0  0  0  0  0  0  0  0  0  0  0
   -1.4430   -2.4099    4.6563 C   0  0  0  0  0  0  0  0  0  0  0  0
   -1.0515   -3.5287    3.6902 C   0  0  1  0  0  0  0  0  0  0  0  0
   -1.0031   -4.8075    4.3595 O   0  0  0  0  0  0  0  0  0  0  0  0
   -2.0288   -3.7016    2.5393 C   0  0  2  0  0  0  0  0  0  0  0  0
   -1.6835   -5.1122    2.0921 C   0  0  1  0  0  0  0  0  0  0  0  0
   -0.4786   -5.0950    1.3346 O   0  0  0  0  0  0  0  0  0  0  0  0
   -1.4479   -5.8326    3.4353 C   0  0  2  0  0  0  0  0  0  0  0  0
   -4.3974   -0.1506    1.5107 C   0  0  2  0  0  0  0  0  0  0  0  0
   -3.1693   -0.8191    1.8370 O   0  0  0  0  0  0  0  0  0  0  0  0
   -3.0185   -2.0516    1.1096 C   0  0  2  0  0  0  0  0  0  0  0  0
   -1.8049   -2.7254    1.5031 O   0  0  0  0  0  0  0  0  0  0  0  0
   -3.0171   -1.7906   -0.4064 C   0  0  2  0  0  0  0  0  0  0  0  0
   -1.7417   -1.2456   -0.8338 N   0  3  0  0  0  0  0  0  0  0  0  0
   -4.1676   -0.8843   -0.8600 C   0  0  1  0  0  0  0  0  0  0  0  0
   -5.3691   -1.6372   -0.9087 O   0  0  0  0  0  0  0  0  0  0  0  0
   -4.3548    0.3178    0.0618 C   0  0  2  0  0  0  0  0  0  0  0  0
   -3.2890    1.2421   -0.1231 O   0  0  0  0  0  0  0  0  0  0  0  0
   -4.6374    1.0243    2.4546 C   0  0  0  0  0  0  0  0  0  0  0  0
   -5.5550    1.9756    1.8562 N   0  3  0  0  0  0  0  0  0  0  0  0
   -4.9175   -6.3437    1.7786 C   0  0  1  0  0  0  0  0  0  0  0  0
   -4.7667   -7.7549    2.0392 O   0  0  0  0  0  0  0  0  0  0  0  0
   -3.8688   -8.4149    1.1174 C   0  0  2  0  0  0  0  0  0  0  0  0
   -2.5053   -7.9445    1.2560 O   0  0  0  0  0  0  0  0  0  0  0  0
   -4.3640   -8.2574   -0.3255 C   0  0  2  0  0  0  0  0  0  0  0  0
   -3.3541   -8.7364   -1.2509 N   0  3  0  0  0  0  0  0  0  0  0  0
   -4.6963   -6.8060   -0.6536 C   0  0  1  0  0  0  0  0  0  0  0  0
   -5.3667   -6.7398   -1.9027 O   0  0  0  0  0  0  0  0  0  0  0  0
   -5.5456   -6.1293    0.4112 C   0  0  2  0  0  0  0  0  0  0  0  0
   -5.6605   -4.7398    0.1415 O   0  0  0  0  0  0  0  0  0  0  0  0
   -5.8434   -5.7169    2.8171 C   0  0  0  0  0  0  0  0  0  0  0  0
   -6.9876   -6.5735    3.0695 N   0  3  0  0  0  0  0  0  0  0  0  0
   -2.3073  -10.1038    4.9163 C   0  0  2  0  0  0  0  0  0  0  0  0
   -1.2878  -10.4282    3.8423 C   0  0  0  0  0  0  0  0  0  0  0  0
   -1.7377   -9.8820    2.4999 C   0  0  1  0  0  0  0  0  0  0  0  0
   -1.8906   -8.3603    2.5037 C   0  0  2  0  0  0  0  0  0  0  0  0
   -2.7549   -7.8940    3.6980 C   0  0  1  0  0  0  0  0  0  0  0  0
   -2.5021   -8.5985    5.0375 C   0  0  1  0  0  0  0  0  0  0  0  0
   -1.8570  -10.6409    6.1862 N   0  3  0  0  0  0  0  0  0  0  0  0
   -0.7925  -10.2967    1.4816 N   0  3  0  0  0  0  0  0  0  0  0  0
   -2.6886   -6.4574    3.8732 O   0  0  0  0  0  0  0  0  0  0  0  0
   -3.5717   -8.3236    5.9360 O   0  0  0  0  0  0  0  0  0  0  0  0
  1  2  1  0  0  0  0
  3  2  1  1  0  0  0
  3  4  1  0  0  0  0
  3  5  1  0  0  0  0
  4  8  1  0  0  0  0
  5  6  1  0  0  0  0
  5 12  1  6  0  0  0
  6  7  1  6  0  0  0
  6  8  1  0  0  0  0
  8 41  1  1  0  0  0
  9 10  1  0  0  0  0
  9 17  1  0  0  0  0
  9 19  1  1  0  0  0
 10 11  1  0  0  0  0
 11 12  1  1  0  0  0
 11 13  1  0  0  0  0
 13 14  1  1  0  0  0
 13 15  1  0  0  0  0
 15 16  1  1  0  0  0
 15 17  1  0  0  0  0
 17 18  1  1  0  0  0
 19 20  1  0  0  0  0
 21 22  1  0  0  0  0
 21 29  1  0  0  0  0
 21 31  1  1  0  0  0
 22 23  1  0  0  0  0
 23 24  1  6  0  0  0
 23 25  1  0  0  0  0
 25 26  1  6  0  0  0
 25 27  1  0  0  0  0
 27 28  1  6  0  0  0
 27 29  1  0  0  0  0
 29 30  1  6  0  0  0
 31 32  1  0  0  0  0
 33 34  1  0  0  0  0
 33 38  1  0  0  0  0
 33 39  1  1  0  0  0
 34 35  1  0  0  0  0
 35 36  1  0  0  0  0
 35 40  1  6  0  0  0
 36 24  1  6  0  0  0
 36 37  1  0  0  0  0
 37 38  1  0  0  0  0
 37 41  1  1  0  0  0
 38 42  1  1  0  0  0
M  CHG  6  14   1  20   1  26   1  32   1  39   1  40   1
M  END
>  <CHROM.1>
176.55108284,173.37546100,-130.13159209,174.31078895,-138.95107432,158.67263174
94.41966582,61.53249760,72.26063282,46.14916996,84.49946146,-42.53805109
69.47311245,65.94887918,68.34684353,-175.87732109,65.04817993,69.51318265
-172.56046812,-168.42622277,-28.91273702,-175.60044466,-3.20286924,-5.05286039
1.93228009,-1.81408192,1.00158708,3.08942620

>  <Name>


>  <RI>
0

>  <Rbt.Current_Directory>
/home/itssahil/PROJECTS/Mol_Feturizer/New_Systems/rnas/1qd3

>  <Rbt.Executable>
rbdock ($Id: //depot/dev/client3/rdock/2013.1/src/exe/rbdock.cxx#4 $)

>  <Rbt.Library>
libRbt.so (2013.1, Build901 2013/11/27)

>  <Rbt.Parameter_File>
/export/apps/rDock/src/rDock_2013.1_src/data/scripts/dock_solv.prm

>  <Rbt.Receptor>
prm/blind_docking_100.prm

>  <SCORE>
-61.5616

>  <SCORE.INTER>
-49.918

>  <SCORE.INTER.CONST>
1

>  <SCORE.INTER.POLAR>
-8.54924

>  <SCORE.INTER.ROT>
9

>  <SCORE.INTER.SOLV>
48.4451

>  <SCORE.INTER.VDW>
-30.5296

>  <SCORE.INTER.norm>
-1.18852

>  <SCORE.INTRA>
-12.8422

>  <SCORE.INTRA.DIHEDRAL>
-11.0609

>  <SCORE.INTRA.DIHEDRAL.0>
40.6252

>  <SCORE.INTRA.POLAR>
1.18978

>  <SCORE.INTRA.POLAR.0>
-1.20161

>  <SCORE.INTRA.REPUL>
-0.0506924

>  <SCORE.INTRA.REPUL.0>
0.115675

>  <SCORE.INTRA.SOLV>
-9.5565

>  <SCORE.INTRA.SOLV.lig_0>
-154.895

>  <SCORE.INTRA.VDW>
-6.3253

>  <SCORE.INTRA.VDW.0>
2.2925

>  <SCORE.INTRA.norm>
-0.305766

>  <SCORE.RESTR>
1.19858

>  <SCORE.RESTR.CAVITY>
1.19858

>  <SCORE.RESTR.norm>
0.0285377

>  <SCORE.SYSTEM>
0

>  <SCORE.SYSTEM.CONST>
0

>  <SCORE.SYSTEM.DIHEDRAL>
0

>  <SCORE.SYSTEM.SOLV>
0

>  <SCORE.SYSTEM.norm>
0

>  <SCORE.heavy>
42

>  <SCORE.norm>
-1.46575

>  <RMSD>
14.523

$$$$

 OpenBabel11021811413D
libRbt.so/2013.1/901 2013/11/27
 42 45  0  0  0  0  0  0  0  0999 V2000
   -4.4680  -11.6653   -1.7054 O   0  0  0  0  0  0  0  0  0  0  0  0
   -4.5021  -10.8558   -0.5387 C   0  0  0  0  0  0  0  0  0  0  0  0
   -4.0558   -9.4340   -0.8819 C   0  0  1  0  0  0  0  0  0  0  0  0
   -4.9363   -8.8273   -1.8526 O   0  0  0  0  0  0  0  0  0  0  0  0
   -4.0522   -8.4974    0.3148 C   0  0  2  0  0  0  0  0  0  0  0  0
   -4.0769   -7.1502   -0.3877 C   0  0  1  0  0  0  0  0  0  0  0  0
   -2.7800   -6.8451   -0.8885 O   0  0  0  0  0  0  0  0  0  0  0  0
   -5.0437   -7.4109   -1.5607 C   0  0  2  0  0  0  0  0  0  0  0  0
   -3.0417   -7.9945    4.7088 C   0  0  2  0  0  0  0  0  0  0  0  0
   -2.9460   -8.7451    3.4886 O   0  0  0  0  0  0  0  0  0  0  0  0
   -2.9094   -7.8893    2.3323 C   0  0  2  0  0  0  0  0  0  0  0  0
   -2.8721   -8.6750    1.1229 O   0  0  0  0  0  0  0  0  0  0  0  0
   -1.6961   -6.9455    2.3937 C   0  0  2  0  0  0  0  0  0  0  0  0
   -0.4755   -7.6534    2.0541 N   0  3  0  0  0  0  0  0  0  0  0  0
   -1.5505   -6.2433    3.7489 C   0  0  1  0  0  0  0  0  0  0  0  0
   -2.4851   -5.1790    3.8306 O   0  0  0  0  0  0  0  0  0  0  0  0
   -1.7602   -7.1986    4.9207 C   0  0  2  0  0  0  0  0  0  0  0  0
   -0.6490   -8.0802    5.0333 O   0  0  0  0  0  0  0  0  0  0  0  0
   -3.3072   -8.9218    5.8913 C   0  0  0  0  0  0  0  0  0  0  0  0
   -4.5955   -9.5728    5.7453 N   0  3  0  0  0  0  0  0  0  0  0  0
   -3.9584   -2.0288    0.2709 C   0  0  1  0  0  0  0  0  0  0  0  0
   -3.6045   -3.3198   -0.2678 O   0  0  0  0  0  0  0  0  0  0  0  0
   -4.5402   -4.3641    0.0860 C   0  0  2  0  0  0  0  0  0  0  0  0
   -5.8452   -4.1480   -0.5057 O   0  0  0  0  0  0  0  0  0  0  0  0
   -4.6408   -4.5062    1.6097 C   0  0  2  0  0  0  0  0  0  0  0  0
   -5.7291   -5.4026    1.9529 N   0  3  0  0  0  0  0  0  0  0  0  0
   -4.8671   -3.1602    2.2890 C   0  0  1  0  0  0  0  0  0  0  0  0
   -4.7180   -3.3024    3.6932 O   0  0  0  0  0  0  0  0  0  0  0  0
   -3.9299   -2.0711    1.7900 C   0  0  2  0  0  0  0  0  0  0  0  0
   -4.3130   -0.8100    2.3188 O   0  0  0  0  0  0  0  0  0  0  0  0
   -2.9479   -0.9789   -0.1822 C   0  0  0  0  0  0  0  0  0  0  0  0
   -1.5962   -1.3883    0.1527 N   0  3  0  0  0  0  0  0  0  0  0  0
   -7.8827   -5.1282   -4.1095 C   0  0  2  0  0  0  0  0  0  0  0  0
   -6.7502   -4.1232   -4.1827 C   0  0  0  0  0  0  0  0  0  0  0  0
   -6.4165   -3.5966   -2.7992 C   0  0  1  0  0  0  0  0  0  0  0  0
   -5.9541   -4.6984   -1.8446 C   0  0  2  0  0  0  0  0  0  0  0  0
   -6.9453   -5.8851   -1.8475 C   0  0  1  0  0  0  0  0  0  0  0  0
   -7.5057   -6.3008   -3.2141 C   0  0  1  0  0  0  0  0  0  0  0  0
   -8.1855   -5.6111   -5.4433 N   0  3  0  0  0  0  0  0  0  0  0  0
   -5.4025   -2.5671   -2.9187 N   0  3  0  0  0  0  0  0  0  0  0  0
   -6.3953   -7.0388   -1.1654 O   0  0  0  0  0  0  0  0  0  0  0  0
   -8.6343   -7.1498   -3.0342 O   0  0  0  0  0  0  0  0  0  0  0  0
  1  2  1  0  0  0  0
  3  2  1  1  0  0  0
  3  4  1  0  0  0  0
  3  5  1  0  0  0  0
  4  8  1  0  0  0  0
  5  6  1  0  0  0  0
  5 12  1  6  0  0  0
  6  7  1  6  0  0  0
  6  8  1  0  0  0  0
  8 41  1  1  0  0  0
  9 10  1  0  0  0  0
  9 17  1  0  0  0  0
  9 19  1  1  0  0  0
 10 11  1  0  0  0  0
 11 12  1  6  0  0  0
 11 13  1  0  0  0  0
 13 14  1  1  0  0  0
 13 15  1  0  0  0  0
 15 16  1  6  0  0  0
 15 17  1  0  0  0  0
 17 18  1  6  0  0  0
 19 20  1  0  0  0  0
 21 22  1  0  0  0  0
 21 29  1  0  0  0  0
 21 31  1  6  0  0  0
 22 23  1  0  0  0  0
 23 24  1  1  0  0  0
 23 25  1  0  0  0  0
 25 26  1  6  0  0  0
 25 27  1  0  0  0  0
 27 28  1  1  0  0  0
 27 29  1  0  0  0  0
 29 30  1  1  0  0  0
 31 32  1  0  0  0  0
 33 34  1  0  0  0  0
 33 38  1  0  0  0  0
 33 39  1  6  0  0  0
 34 35  1  0  0  0  0
 35 36  1  0  0  0  0
 35 40  1  6  0  0  0
 36 24  1  1  0  0  0
 36 37  1  0  0  0  0
 37 38  1  0  0  0  0
 37 41  1  6  0  0  0
 38 42  1  1  0  0  0
M  CHG  6  14   1  20   1  26   1  32   1  39   1  40   1
M  END
>  <CHROM.1>
-177.29923721,61.28655323,-174.37011964,175.04768746,-131.12720184,-64.02499394
115.24830765,-164.76284916,-59.16310460,-174.54432398,-99.11141759,-54.05524689
86.73225656,-125.69194555,83.86405978,51.38151253,-49.72260120,-77.12120269
-66.76446815,84.20992386,-48.66319813,-61.81788303,-4.33899564,-5.99199909
0.50201518,0.36581496,1.02438586,3.10415939

>  <Name>


>  <RI>
0

>  <Rbt.Current_Directory>
/home/itssahil/PROJECTS/Mol_Feturizer/New_Systems/rnas/1qd3

>  <Rbt.Executable>
rbdock ($Id: //depot/dev/client3/rdock/2013.1/src/exe/rbdock.cxx#4 $)

>  <Rbt.Library>
libRbt.so (2013.1, Build901 2013/11/27)

>  <Rbt.Parameter_File>
/export/apps/rDock/src/rDock_2013.1_src/data/scripts/dock_solv.prm

>  <Rbt.Receptor>
prm/blind_docking_40.prm

>  <SCORE>
-49.288

>  <SCORE.INTER>
-35.3726

>  <SCORE.INTER.CONST>
1

>  <SCORE.INTER.POLAR>
-5.09459

>  <SCORE.INTER.ROT>
9

>  <SCORE.INTER.SOLV>
35.8879

>  <SCORE.INTER.VDW>
-28.1624

>  <SCORE.INTER.norm>
-0.842205

>  <SCORE.INTRA>
-17.2933

>  <SCORE.INTRA.DIHEDRAL>
-8.22642

>  <SCORE.INTRA.DIHEDRAL.0>
40.6252

>  <SCORE.INTRA.POLAR>
0.181765

>  <SCORE.INTRA.POLAR.0>
-1.20161

>  <SCORE.INTRA.REPUL>
-0.115675

>  <SCORE.INTRA.REPUL.0>
0.115675

>  <SCORE.INTRA.SOLV>
-6.73636

>  <SCORE.INTRA.SOLV.lig_0>
-154.895

>  <SCORE.INTRA.VDW>
-9.8515

>  <SCORE.INTRA.VDW.0>
2.2925

>  <SCORE.INTRA.norm>
-0.411744

>  <SCORE.RESTR>
3.37787

>  <SCORE.RESTR.CAVITY>
3.37787

>  <SCORE.RESTR.norm>
0.0804255

>  <SCORE.SYSTEM>
0

>  <SCORE.SYSTEM.CONST>
0

>  <SCORE.SYSTEM.DIHEDRAL>
0

>  <SCORE.SYSTEM.SOLV>
0

>  <SCORE.SYSTEM.norm>
0

>  <SCORE.heavy>
42

>  <SCORE.norm>
-1.17352

>  <RMSD>
14.527

$$$$

 OpenBabel11021811413D
libRbt.so/2013.1/901 2013/11/27
 42 45  0  0  0  0  0  0  0  0999 V2000
   -3.4708   -2.6582    3.4936 O   0  0  0  0  0  0  0  0  0  0  0  0
   -2.2200   -2.1558    3.0455 C   0  0  0  0  0  0  0  0  0  0  0  0
   -1.7434   -2.9591    1.8347 C   0  0  1  0  0  0  0  0  0  0  0  0
   -1.6781   -4.3705    2.1336 O   0  0  0  0  0  0  0  0  0  0  0  0
   -2.6599   -2.8342    0.6289 C   0  0  2  0  0  0  0  0  0  0  0  0
   -2.2422   -4.0607   -0.1648 C   0  0  1  0  0  0  0  0  0  0  0  0
   -1.0054   -3.8094   -0.8228 O   0  0  0  0  0  0  0  0  0  0  0  0
   -2.0416   -5.1145    0.9432 C   0  0  2  0  0  0  0  0  0  0  0  0
   -3.2226    1.9080    0.5084 C   0  0  2  0  0  0  0  0  0  0  0  0
   -2.8170    0.7255   -0.1979 O   0  0  0  0  0  0  0  0  0  0  0  0
   -2.8940   -0.4485    0.6307 C   0  0  2  0  0  0  0  0  0  0  0  0
   -2.4253   -1.6073   -0.0899 O   0  0  0  0  0  0  0  0  0  0  0  0
   -4.3342   -0.6721    1.1228 C   0  0  2  0  0  0  0  0  0  0  0  0
   -5.1607   -1.2217    0.0639 N   0  3  0  0  0  0  0  0  0  0  0  0
   -4.9742    0.5958    1.7005 C   0  0  1  0  0  0  0  0  0  0  0  0
   -4.4754    0.8207    3.0095 O   0  0  0  0  0  0  0  0  0  0  0  0
   -4.7083    1.8241    0.8343 C   0  0  2  0  0  0  0  0  0  0  0  0
   -5.4693    1.7462   -0.3654 O   0  0  0  0  0  0  0  0  0  0  0  0
   -2.9163    3.1569   -0.3134 C   0  0  0  0  0  0  0  0  0  0  0  0
   -3.3739    4.3454    0.3815 N   0  3  0  0  0  0  0  0  0  0  0  0
   -3.3021   -8.4559    3.4784 C   0  0  1  0  0  0  0  0  0  0  0  0
   -2.5240   -7.4183    2.8458 O   0  0  0  0  0  0  0  0  0  0  0  0
   -1.5026   -7.9287    1.9584 C   0  0  2  0  0  0  0  0  0  0  0  0
   -2.0696   -8.6093    0.8117 O   0  0  0  0  0  0  0  0  0  0  0  0
   -0.5326   -8.8410    2.7188 C   0  0  2  0  0  0  0  0  0  0  0  0
    0.3542   -9.5095    1.7848 N   0  3  0  0  0  0  0  0  0  0  0  0
   -1.2715   -9.8879    3.5450 C   0  0  1  0  0  0  0  0  0  0  0  0
   -0.3579  -10.5489    4.4067 O   0  0  0  0  0  0  0  0  0  0  0  0
   -2.4115   -9.3078    4.3680 C   0  0  2  0  0  0  0  0  0  0  0  0
   -3.1717  -10.3500    4.9617 O   0  0  0  0  0  0  0  0  0  0  0  0
   -4.3807   -7.8351    4.3615 C   0  0  0  0  0  0  0  0  0  0  0  0
   -5.5281   -7.4354    3.5674 N   0  3  0  0  0  0  0  0  0  0  0  0
   -5.4396   -7.5143   -1.5428 C   0  0  2  0  0  0  0  0  0  0  0  0
   -5.4573   -8.8681   -0.8608 C   0  0  0  0  0  0  0  0  0  0  0  0
   -4.0594   -9.2581   -0.4173 C   0  0  1  0  0  0  0  0  0  0  0  0
   -3.4650   -8.2746    0.5918 C   0  0  2  0  0  0  0  0  0  0  0  0
   -3.5840   -6.8195    0.0825 C   0  0  1  0  0  0  0  0  0  0  0  0
   -4.9050   -6.4435   -0.6014 C   0  0  1  0  0  0  0  0  0  0  0  0
   -6.7846   -7.1681   -1.9614 N   0  3  0  0  0  0  0  0  0  0  0  0
   -4.0975  -10.5971    0.1376 N   0  3  0  0  0  0  0  0  0  0  0  0
   -3.2770   -5.8639    1.1273 O   0  0  0  0  0  0  0  0  0  0  0  0
   -4.7499   -5.2171   -1.3079 O   0  0  0  0  0  0  0  0  0  0  0  0
  1  2  1  0  0  0  0
  3  2  1  1  0  0  0
  3  4  1  0  0  0  0
  3  5  1  0  0  0  0
  4  8  1  0  0  0  0
  5  6  1  0  0  0  0
  5 12  1  6  0  0  0
  6  7  1  1  0  0  0
  6  8  1  0  0  0  0
  8 41  1  1  0  0  0
  9 10  1  0  0  0  0
  9 17  1  0  0  0  0
  9 19  1  6  0  0  0
 10 11  1  0  0  0  0
 11 12  1  6  0  0  0
 11 13  1  0  0  0  0
 13 14  1  6  0  0  0
 13 15  1  0  0  0  0
 15 16  1  1  0  0  0
 15 17  1  0  0  0  0
 17 18  1  6  0  0  0
 19 20  1  0  0  0  0
 21 22  1  0  0  0  0
 21 29  1  0  0  0  0
 21 31  1  1  0  0  0
 22 23  1  0  0  0  0
 23 24  1  6  0  0  0
 23 25  1  0  0  0  0
 25 26  1  6  0  0  0
 25 27  1  0  0  0  0
 27 28  1  1  0  0  0
 27 29  1  0  0  0  0
 29 30  1  6  0  0  0
 31 32  1  0  0  0  0
 33 34  1  0  0  0  0
 33 38  1  0  0  0  0
 33 39  1  1  0  0  0
 34 35  1  0  0  0  0
 35 36  1  0  0  0  0
 35 40  1  1  0  0  0
 36 24  1  6  0  0  0
 36 37  1  0  0  0  0
 37 38  1  0  0  0  0
 37 41  1  1  0  0  0
 38 42  1  6  0  0  0
M  CHG  6  14   1  20   1  26   1  32   1  39   1  40   1
M  END
>  <CHROM.1>
80.16373370,-55.68207279,-71.37049202,171.66776248,-169.27405161,177.83023574
-171.73555836,-48.03404564,-173.18435959,172.95618870,77.29488328,81.30637683
17.99629943,-167.26815854,-160.50110186,-176.56599169,-171.96844702,-134.58863837
-56.48987212,89.05000792,111.16238371,81.26818932,-3.26598290,-4.72939394
1.25308300,-1.73703562,0.91973875,3.12032608

>  <Name>


>  <RI>
0

>  <Rbt.Current_Directory>
/home/itssahil/PROJECTS/Mol_Feturizer/New_Systems/rnas/1qd3

>  <Rbt.Executable>
rbdock ($Id: //depot/dev/client3/rdock/2013.1/src/exe/rbdock.cxx#4 $)

>  <Rbt.Library>
libRbt.so (2013.1, Build901 2013/11/27)

>  <Rbt.Parameter_File>
/export/apps/rDock/src/rDock_2013.1_src/data/scripts/dock_solv.prm

>  <Rbt.Receptor>
prm/blind_docking_100.prm

>  <SCORE>
-49.6306

>  <SCORE.INTER>
-37.7952

>  <SCORE.INTER.CONST>
1

>  <SCORE.INTER.POLAR>
-4.76818

>  <SCORE.INTER.ROT>
9

>  <SCORE.INTER.SOLV>
35.3731

>  <SCORE.INTER.VDW>
-30.6939

>  <SCORE.INTER.norm>
-0.899885

>  <SCORE.INTRA>
-12.8372

>  <SCORE.INTRA.DIHEDRAL>
-12.4972

>  <SCORE.INTRA.DIHEDRAL.0>
40.6252

>  <SCORE.INTRA.POLAR>
1.19218

>  <SCORE.INTRA.POLAR.0>
-1.20161

>  <SCORE.INTRA.REPUL>
-0.115675

>  <SCORE.INTRA.REPUL.0>
0.115675

>  <SCORE.INTRA.SOLV>
-9.3266

>  <SCORE.INTRA.SOLV.lig_0>
-154.895

>  <SCORE.INTRA.VDW>
-5.4003

>  <SCORE.INTRA.VDW.0>
2.2925

>  <SCORE.INTRA.norm>
-0.305647

>  <SCORE.RESTR>
1.00179

>  <SCORE.RESTR.CAVITY>
1.00179

>  <SCORE.RESTR.norm>
0.0238522

>  <SCORE.SYSTEM>
0

>  <SCORE.SYSTEM.CONST>
0

>  <SCORE.SYSTEM.DIHEDRAL>
0

>  <SCORE.SYSTEM.SOLV>
0

>  <SCORE.SYSTEM.norm>
0

>  <SCORE.heavy>
42

>  <SCORE.norm>
-1.18168

>  <RMSD>
14.530

$$$$

 OpenBabel11021811413D
libRbt.so/2013.1/901 2013/11/27
 42 45  0  0  0  0  0  0  0  0999 V2000
   -1.1954   -2.1351    5.1399 O   0  0  0  0  0  0  0  0  0  0  0  0
   -1.0857   -3.5501    5.0808 C   0  0  0  0  0  0  0  0  0  0  0  0
   -0.8523   -3.9913    3.6353 C   0  0  1  0  0  0  0  0  0  0  0  0
   -0.7694   -5.4294    3.5322 O   0  0  0  0  0  0  0  0  0  0  0  0
   -1.9657   -3.5728    2.6895 C   0  0  2  0  0  0  0  0  0  0  0  0
   -1.7264   -4.5341    1.5373 C   0  0  1  0  0  0  0  0  0  0  0  0
   -0.6209   -4.0874    0.7600 O   0  0  0  0  0  0  0  0  0  0  0  0
   -1.3575   -5.8392    2.2716 C   0  0  2  0  0  0  0  0  0  0  0  0
   -4.4179    0.2145    1.3601 C   0  0  2  0  0  0  0  0  0  0  0  0
   -3.2147   -0.3016    1.9496 O   0  0  0  0  0  0  0  0  0  0  0  0
   -3.0173   -1.6926    1.6383 C   0  0  2  0  0  0  0  0  0  0  0  0
   -1.8330   -2.1938    2.2924 O   0  0  0  0  0  0  0  0  0  0  0  0
   -2.9155   -1.8994    0.1173 C   0  0  2  0  0  0  0  0  0  0  0  0
   -1.6141   -1.4839   -0.3728 N   0  3  0  0  0  0  0  0  0  0  0  0
   -4.0327   -1.1933   -0.6600 C   0  0  1  0  0  0  0  0  0  0  0  0
   -5.2290   -1.9488   -0.5556 O   0  0  0  0  0  0  0  0  0  0  0  0
   -4.2792    0.2264   -0.1569 C   0  0  2  0  0  0  0  0  0  0  0  0
   -3.2026    1.0725   -0.5437 O   0  0  0  0  0  0  0  0  0  0  0  0
   -4.7186    1.6139    1.8892 C   0  0  0  0  0  0  0  0  0  0  0  0
   -5.6930    2.2769    1.0429 N   0  3  0  0  0  0  0  0  0  0  0  0
   -4.4955   -7.2151    0.5355 C   0  0  1  0  0  0  0  0  0  0  0  0
   -4.3343   -8.3117    1.4594 O   0  0  0  0  0  0  0  0  0  0  0  0
   -3.5618   -9.4079    0.9180 C   0  0  2  0  0  0  0  0  0  0  0  0
   -2.1851   -9.0312    0.6679 O   0  0  0  0  0  0  0  0  0  0  0  0
   -4.2230   -9.9603   -0.3506 C   0  0  2  0  0  0  0  0  0  0  0  0
   -3.3373  -10.9104   -0.9975 N   0  3  0  0  0  0  0  0  0  0  0  0
   -4.5720   -8.8498   -1.3354 C   0  0  1  0  0  0  0  0  0  0  0  0
   -5.3854   -9.3711   -2.3750 O   0  0  0  0  0  0  0  0  0  0  0  0
   -5.2791   -7.6709   -0.6846 C   0  0  2  0  0  0  0  0  0  0  0  0
   -5.4061   -6.6002   -1.6088 O   0  0  0  0  0  0  0  0  0  0  0  0
   -5.2824   -6.0869    1.1962 C   0  0  0  0  0  0  0  0  0  0  0  0
   -6.2332   -6.6170    2.1563 N   0  3  0  0  0  0  0  0  0  0  0  0
   -1.3754   -9.3884    4.8292 C   0  0  2  0  0  0  0  0  0  0  0  0
   -0.3598   -9.9525    3.8553 C   0  0  0  0  0  0  0  0  0  0  0  0
   -0.9739  -10.1054    2.4760 C   0  0  1  0  0  0  0  0  0  0  0  0
   -1.4417   -8.7735    1.8879 C   0  0  2  0  0  0  0  0  0  0  0  0
   -2.3300   -8.0057    2.8940 C   0  0  1  0  0  0  0  0  0  0  0  0
   -1.8754   -8.0290    4.3593 C   0  0  1  0  0  0  0  0  0  0  0  0
   -0.7661   -9.2576    6.1390 N   0  3  0  0  0  0  0  0  0  0  0  0
   -0.0094  -10.7394    1.5985 N   0  3  0  0  0  0  0  0  0  0  0  0
   -2.5582   -6.6401    2.4673 O   0  0  0  0  0  0  0  0  0  0  0  0
   -2.9375   -7.5912    5.2004 O   0  0  0  0  0  0  0  0  0  0  0  0
  1  2  1  0  0  0  0
  3  2  1  1  0  0  0
  3  4  1  0  0  0  0
  3  5  1  0  0  0  0
  4  8  1  0  0  0  0
  5  6  1  0  0  0  0
  5 12  1  6  0  0  0
  6  7  1  6  0  0  0
  6  8  1  0  0  0  0
  8 41  1  1  0  0  0
  9 10  1  0  0  0  0
  9 17  1  0  0  0  0
  9 19  1  1  0  0  0
 10 11  1  0  0  0  0
 11 12  1  1  0  0  0
 11 13  1  0  0  0  0
 13 14  1  6  0  0  0
 13 15  1  0  0  0  0
 15 16  1  1  0  0  0
 15 17  1  0  0  0  0
 17 18  1  1  0  0  0
 19 20  1  0  0  0  0
 21 22  1  0  0  0  0
 21 29  1  0  0  0  0
 21 31  1  1  0  0  0
 22 23  1  0  0  0  0
 23 24  1  6  0  0  0
 23 25  1  0  0  0  0
 25 26  1  6  0  0  0
 25 27  1  0  0  0  0
 27 28  1  6  0  0  0
 27 29  1  0  0  0  0
 29 30  1  6  0  0  0
 31 32  1  0  0  0  0
 33 34  1  0  0  0  0
 33 38  1  0  0  0  0
 33 39  1  1  0  0  0
 34 35  1  0  0  0  0
 35 36  1  0  0  0  0
 35 40  1  6  0  0  0
 36 24  1  6  0  0  0
 36 37  1  0  0  0  0
 37 38  1  0  0  0  0
 37 41  1  6  0  0  0
 38 42  1  1  0  0  0
M  CHG  6  14   1  20   1  26   1  32   1  39   1  40   1
M  END
>  <CHROM.1>
-43.25084688,-178.54373966,-167.41658594,63.39629542,-75.27753090,164.10790127
146.14870017,-168.73642570,-54.90100151,-139.85498725,175.19850110,-31.51428477
67.93403718,81.53992893,-178.12285139,63.69762567,-52.49376505,-72.71533241
56.97287633,97.18658098,-58.04209626,-175.15031618,-2.92951041,-5.37643841
1.60115252,-1.79193784,0.93365020,-3.05763742

>  <Name>


>  <RI>
0

>  <Rbt.Current_Directory>
/home/itssahil/PROJECTS/Mol_Feturizer/New_Systems/rnas/1qd3

>  <Rbt.Executable>
rbdock ($Id: //depot/dev/client3/rdock/2013.1/src/exe/rbdock.cxx#4 $)

>  <Rbt.Library>
libRbt.so (2013.1, Build901 2013/11/27)

>  <Rbt.Parameter_File>
/export/apps/rDock/src/rDock_2013.1_src/data/scripts/dock_solv.prm

>  <Rbt.Receptor>
prm/blind_docking_60.prm

>  <SCORE>
-51.3025

>  <SCORE.INTER>
-41.339

>  <SCORE.INTER.CONST>
1

>  <SCORE.INTER.POLAR>
-6.7407

>  <SCORE.INTER.ROT>
9

>  <SCORE.INTER.SOLV>
36.2237

>  <SCORE.INTER.VDW>
-26.7649

>  <SCORE.INTER.norm>
-0.984261

>  <SCORE.INTRA>
-14.9574

>  <SCORE.INTRA.DIHEDRAL>
-16.636

>  <SCORE.INTRA.DIHEDRAL.0>
40.6252

>  <SCORE.INTRA.POLAR>
0.706923

>  <SCORE.INTRA.POLAR.0>
-1.20161

>  <SCORE.INTRA.REPUL>
-0.115675

>  <SCORE.INTRA.REPUL.0>
0.115675

>  <SCORE.INTRA.SOLV>
-9.9863

>  <SCORE.INTRA.SOLV.lig_0>
-154.895

>  <SCORE.INTRA.VDW>
-3.47141

>  <SCORE.INTRA.VDW.0>
2.2925

>  <SCORE.INTRA.norm>
-0.356128

>  <SCORE.RESTR>
4.99388

>  <SCORE.RESTR.CAVITY>
4.99388

>  <SCORE.RESTR.norm>
0.118902

>  <SCORE.SYSTEM>
0

>  <SCORE.SYSTEM.CONST>
0

>  <SCORE.SYSTEM.DIHEDRAL>
0

>  <SCORE.SYSTEM.SOLV>
0

>  <SCORE.SYSTEM.norm>
0

>  <SCORE.heavy>
42

>  <SCORE.norm>
-1.22149

>  <RMSD>
14.541

$$$$

 OpenBabel11021811413D
libRbt.so/2013.1/901 2013/11/27
 42 45  0  0  0  0  0  0  0  0999 V2000
   -7.7426   -5.6151   -3.8225 O   0  0  0  0  0  0  0  0  0  0  0  0
   -7.7090   -4.7436   -2.7013 C   0  0  0  0  0  0  0  0  0  0  0  0
   -6.2584   -4.4624   -2.3075 C   0  0  1  0  0  0  0  0  0  0  0  0
   -6.1053   -3.1233   -1.7888 O   0  0  0  0  0  0  0  0  0  0  0  0
   -5.7377   -5.3884   -1.2209 C   0  0  2  0  0  0  0  0  0  0  0  0
   -4.5519   -4.5837   -0.7158 C   0  0  1  0  0  0  0  0  0  0  0  0
   -3.4645   -4.7068   -1.6260 O   0  0  0  0  0  0  0  0  0  0  0  0
   -5.0989   -3.1419   -0.7450 C   0  0  2  0  0  0  0  0  0  0  0  0
   -7.9519   -8.7559   -3.2410 C   0  0  2  0  0  0  0  0  0  0  0  0
   -6.8248   -7.8697   -3.1632 O   0  0  0  0  0  0  0  0  0  0  0  0
   -6.4423   -7.6049   -1.8014 C   0  0  2  0  0  0  0  0  0  0  0  0
   -5.3464   -6.6674   -1.7575 O   0  0  0  0  0  0  0  0  0  0  0  0
   -6.0585   -8.9092   -1.0818 C   0  0  2  0  0  0  0  0  0  0  0  0
   -4.7384   -9.3532   -1.4900 N   0  3  0  0  0  0  0  0  0  0  0  0
   -7.0871  -10.0288   -1.2806 C   0  0  1  0  0  0  0  0  0  0  0  0
   -8.2043   -9.7969   -0.4374 O   0  0  0  0  0  0  0  0  0  0  0  0
   -7.5539  -10.1346   -2.7299 C   0  0  2  0  0  0  0  0  0  0  0  0
   -6.5139  -10.6748   -3.5368 O   0  0  0  0  0  0  0  0  0  0  0  0
   -8.4743   -8.8371   -4.6725 C   0  0  0  0  0  0  0  0  0  0  0  0
   -9.6714   -9.6549   -4.7293 N   0  3  0  0  0  0  0  0  0  0  0  0
   -2.4831   -6.2256    4.1156 C   0  0  1  0  0  0  0  0  0  0  0  0
   -2.6772   -6.1119    2.6903 O   0  0  0  0  0  0  0  0  0  0  0  0
   -4.0144   -5.6993    2.3255 C   0  0  2  0  0  0  0  0  0  0  0  0
   -4.3073   -4.3513    2.7690 O   0  0  0  0  0  0  0  0  0  0  0  0
   -5.0517   -6.6947    2.8594 C   0  0  2  0  0  0  0  0  0  0  0  0
   -6.3894   -6.1645    2.6720 N   0  3  0  0  0  0  0  0  0  0  0  0
   -4.8354   -6.9975    4.3379 C   0  0  1  0  0  0  0  0  0  0  0  0
   -5.6563   -8.0876    4.7276 O   0  0  0  0  0  0  0  0  0  0  0  0
   -3.3868   -7.3092    4.6810 C   0  0  2  0  0  0  0  0  0  0  0  0
   -3.2205   -7.3953    6.0887 O   0  0  0  0  0  0  0  0  0  0  0  0
   -1.0406   -6.6221    4.4163 C   0  0  0  0  0  0  0  0  0  0  0  0
   -0.6931   -7.8547    3.7331 N   0  3  0  0  0  0  0  0  0  0  0  0
   -2.9922   -0.4126    1.8433 C   0  0  2  0  0  0  0  0  0  0  0  0
   -1.9413   -1.4902    2.0233 C   0  0  0  0  0  0  0  0  0  0  0  0
   -2.5323   -2.6965    2.7292 C   0  0  1  0  0  0  0  0  0  0  0  0
   -3.6768   -3.3376    1.9430 C   0  0  2  0  0  0  0  0  0  0  0  0
   -4.7204   -2.2775    1.5213 C   0  0  1  0  0  0  0  0  0  0  0  0
   -4.1657   -0.9355    1.0257 C   0  0  1  0  0  0  0  0  0  0  0  0
   -2.4013    0.7296    1.1725 N   0  3  0  0  0  0  0  0  0  0  0  0
   -1.4788   -3.6621    2.9743 N   0  3  0  0  0  0  0  0  0  0  0  0
   -5.6610   -2.8115    0.5575 O   0  0  0  0  0  0  0  0  0  0  0  0
   -5.2055    0.0368    1.0023 O   0  0  0  0  0  0  0  0  0  0  0  0
  1  2  1  0  0  0  0
  3  2  1  1  0  0  0
  3  4  1  0  0  0  0
  3  5  1  0  0  0  0
  4  8  1  0  0  0  0
  5  6  1  0  0  0  0
  5 12  1  6  0  0  0
  6  7  1  6  0  0  0
  6  8  1  0  0  0  0
  8 41  1  1  0  0  0
  9 10  1  0  0  0  0
  9 17  1  0  0  0  0
  9 19  1  6  0  0  0
 10 11  1  0  0  0  0
 11 12  1  6  0  0  0
 11 13  1  0  0  0  0
 13 14  1  6  0  0  0
 13 15  1  0  0  0  0
 15 16  1  1  0  0  0
 15 17  1  0  0  0  0
 17 18  1  6  0  0  0
 19 20  1  0  0  0  0
 21 22  1  0  0  0  0
 21 29  1  0  0  0  0
 21 31  1  6  0  0  0
 22 23  1  0  0  0  0
 23 24  1  1  0  0  0
 23 25  1  0  0  0  0
 25 26  1  1  0  0  0
 25 27  1  0  0  0  0
 27 28  1  6  0  0  0
 27 29  1  0  0  0  0
 29 30  1  1  0  0  0
 31 32  1  0  0  0  0
 33 34  1  0  0  0  0
 33 38  1  0  0  0  0
 33 39  1  6  0  0  0
 34 35  1  0  0  0  0
 35 36  1  0  0  0  0
 35 40  1  6  0  0  0
 36 24  1  1  0  0  0
 36 37  1  0  0  0  0
 37 38  1  0  0  0  0
 37 41  1  6  0  0  0
 38 42  1  1  0  0  0
M  CHG  6  14   1  20   1  26   1  32   1  39   1  40   1
M  END
>  <CHROM.1>
-56.42649554,146.60298706,-88.24144788,179.29238682,-155.84214223,-175.80939130
110.96840853,81.46761881,41.08220316,175.68063484,-171.59518476,-56.33499966
76.17420505,-108.04265626,-21.73221164,70.23563776,-174.27718640,150.35147036
140.41136546,133.49075901,-66.94999124,-172.79407857,-5.00468649,-5.75947743
0.39911466,2.80274195,1.00815394,2.80458039

>  <Name>


>  <RI>
0

>  <Rbt.Current_Directory>
/home/itssahil/PROJECTS/Mol_Feturizer/New_Systems/rnas/1qd3

>  <Rbt.Executable>
rbdock ($Id: //depot/dev/client3/rdock/2013.1/src/exe/rbdock.cxx#4 $)

>  <Rbt.Library>
libRbt.so (2013.1, Build901 2013/11/27)

>  <Rbt.Parameter_File>
/export/apps/rDock/src/rDock_2013.1_src/data/scripts/dock_solv.prm

>  <Rbt.Receptor>
prm/blind_docking_60.prm

>  <SCORE>
-52.228

>  <SCORE.INTER>
-41.5249

>  <SCORE.INTER.CONST>
1

>  <SCORE.INTER.POLAR>
-5.45255

>  <SCORE.INTER.ROT>
9

>  <SCORE.INTER.SOLV>
30.133

>  <SCORE.INTER.VDW>
-29.1525

>  <SCORE.INTER.norm>
-0.988689

>  <SCORE.INTRA>
-11.8704

>  <SCORE.INTRA.DIHEDRAL>
-2.09542

>  <SCORE.INTRA.DIHEDRAL.0>
40.6252

>  <SCORE.INTRA.POLAR>
0.309003

>  <SCORE.INTRA.POLAR.0>
-1.20161

>  <SCORE.INTRA.REPUL>
-0.115675

>  <SCORE.INTRA.REPUL.0>
0.115675

>  <SCORE.INTRA.SOLV>
-6.90896

>  <SCORE.INTRA.SOLV.lig_0>
-154.895

>  <SCORE.INTRA.VDW>
-7.84046

>  <SCORE.INTRA.VDW.0>
2.2925

>  <SCORE.INTRA.norm>
-0.282629

>  <SCORE.RESTR>
1.16739

>  <SCORE.RESTR.CAVITY>
1.16739

>  <SCORE.RESTR.norm>
0.0277951

>  <SCORE.SYSTEM>
0

>  <SCORE.SYSTEM.CONST>
0

>  <SCORE.SYSTEM.DIHEDRAL>
0

>  <SCORE.SYSTEM.SOLV>
0

>  <SCORE.SYSTEM.norm>
0

>  <SCORE.heavy>
42

>  <SCORE.norm>
-1.24352

>  <RMSD>
14.543

$$$$

 OpenBabel11021811413D
libRbt.so/2013.1/901 2013/11/27
 42 45  0  0  0  0  0  0  0  0999 V2000
   -7.5478   -7.8667   -4.6040 O   0  0  0  0  0  0  0  0  0  0  0  0
   -7.3807   -8.3359   -3.2737 C   0  0  0  0  0  0  0  0  0  0  0  0
   -7.3274   -7.1501   -2.3095 C   0  0  1  0  0  0  0  0  0  0  0  0
   -6.6751   -7.5086   -1.0720 O   0  0  0  0  0  0  0  0  0  0  0  0
   -6.5525   -5.9625   -2.8560 C   0  0  2  0  0  0  0  0  0  0  0  0
   -6.2502   -5.2131   -1.5691 C   0  0  1  0  0  0  0  0  0  0  0  0
   -7.4121   -4.5151   -1.1348 O   0  0  0  0  0  0  0  0  0  0  0  0
   -5.9315   -6.3609   -0.5895 C   0  0  2  0  0  0  0  0  0  0  0  0
   -6.4574   -2.8395   -6.4263 C   0  0  2  0  0  0  0  0  0  0  0  0
   -7.2308   -3.7943   -5.6835 O   0  0  0  0  0  0  0  0  0  0  0  0
   -6.5755   -4.1840   -4.4630 C   0  0  2  0  0  0  0  0  0  0  0  0
   -7.3500   -5.1854   -3.7710 O   0  0  0  0  0  0  0  0  0  0  0  0
   -6.3480   -2.9631   -3.5552 C   0  0  2  0  0  0  0  0  0  0  0  0
   -7.5835   -2.5685   -2.9039 N   0  3  0  0  0  0  0  0  0  0  0  0
   -5.7271   -1.7727   -4.2956 C   0  0  1  0  0  0  0  0  0  0  0  0
   -4.3382   -2.0012   -4.4735 O   0  0  0  0  0  0  0  0  0  0  0  0
   -6.3828   -1.5296   -5.6523 C   0  0  2  0  0  0  0  0  0  0  0  0
   -7.6879   -0.9924   -5.4715 O   0  0  0  0  0  0  0  0  0  0  0  0
   -7.0607   -2.6190   -7.8106 C   0  0  0  0  0  0  0  0  0  0  0  0
   -8.4829   -2.3516   -7.7066 N   0  3  0  0  0  0  0  0  0  0  0  0
   -2.9153   -6.4147    4.5535 C   0  0  1  0  0  0  0  0  0  0  0  0
   -1.7422   -6.6350    3.7427 O   0  0  0  0  0  0  0  0  0  0  0  0
   -1.8820   -7.7413    2.8219 C   0  0  2  0  0  0  0  0  0  0  0  0
   -2.8906   -7.4851    1.8136 O   0  0  0  0  0  0  0  0  0  0  0  0
   -2.1758   -9.0416    3.5799 C   0  0  2  0  0  0  0  0  0  0  0  0
   -2.5209  -10.0943    2.6427 N   0  3  0  0  0  0  0  0  0  0  0  0
   -3.3137   -8.8680    4.5797 C   0  0  1  0  0  0  0  0  0  0  0  0
   -3.3934  -10.0115    5.4165 O   0  0  0  0  0  0  0  0  0  0  0  0
   -3.1715   -7.6221    5.4405 C   0  0  2  0  0  0  0  0  0  0  0  0
   -4.3463   -7.4184    6.2118 O   0  0  0  0  0  0  0  0  0  0  0  0
   -2.7021   -5.2084    5.4636 C   0  0  0  0  0  0  0  0  0  0  0  0
   -2.5823   -3.9905    4.6833 N   0  3  0  0  0  0  0  0  0  0  0  0
   -2.4628   -3.5176    0.3388 C   0  0  2  0  0  0  0  0  0  0  0  0
   -1.2031   -4.2968    0.6616 C   0  0  0  0  0  0  0  0  0  0  0  0
   -1.5285   -5.4961    1.5326 C   0  0  1  0  0  0  0  0  0  0  0  0
   -2.4808   -6.4793    0.8503 C   0  0  2  0  0  0  0  0  0  0  0  0
   -3.7232   -5.7485    0.2907 C   0  0  1  0  0  0  0  0  0  0  0  0
   -3.4688   -4.3975   -0.3909 C   0  0  1  0  0  0  0  0  0  0  0  0
   -2.1240   -2.3753   -0.4884 N   0  3  0  0  0  0  0  0  0  0  0  0
   -0.2930   -6.1578    1.9041 N   0  3  0  0  0  0  0  0  0  0  0  0
   -4.4960   -6.6071   -0.5836 O   0  0  0  0  0  0  0  0  0  0  0  0
   -4.6981   -3.6959   -0.5439 O   0  0  0  0  0  0  0  0  0  0  0  0
  1  2  1  0  0  0  0
  3  2  1  6  0  0  0
  3  4  1  0  0  0  0
  3  5  1  0  0  0  0
  4  8  1  0  0  0  0
  5  6  1  0  0  0  0
  5 12  1  6  0  0  0
  6  7  1  1  0  0  0
  6  8  1  0  0  0  0
  8 41  1  6  0  0  0
  9 10  1  0  0  0  0
  9 17  1  0  0  0  0
  9 19  1  6  0  0  0
 10 11  1  0  0  0  0
 11 12  1  1  0  0  0
 11 13  1  0  0  0  0
 13 14  1  6  0  0  0
 13 15  1  0  0  0  0
 15 16  1  6  0  0  0
 15 17  1  0  0  0  0
 17 18  1  1  0  0  0
 19 20  1  0  0  0  0
 21 22  1  0  0  0  0
 21 29  1  0  0  0  0
 21 31  1  1  0  0  0
 22 23  1  0  0  0  0
 23 24  1  6  0  0  0
 23 25  1  0  0  0  0
 25 26  1  6  0  0  0
 25 27  1  0  0  0  0
 27 28  1  1  0  0  0
 27 29  1  0  0  0  0
 29 30  1  6  0  0  0
 31 32  1  0  0  0  0
 33 34  1  0  0  0  0
 33 38  1  0  0  0  0
 33 39  1  6  0  0  0
 34 35  1  0  0  0  0
 35 36  1  0  0  0  0
 35 40  1  6  0  0  0
 36 24  1  1  0  0  0
 36 37  1  0  0  0  0
 37 38  1  0  0  0  0
 37 41  1  6  0  0  0
 38 42  1  1  0  0  0
M  CHG  6  14   1  20   1  26   1  32   1  39   1  40   1
M  END
>  <CHROM.1>
70.55206803,-158.32465818,-170.71166425,175.68353378,-159.16678474,49.84169475
158.01274669,80.08276061,-55.34560188,176.80701621,-56.32407468,65.64766299
70.85578115,-29.82229679,87.71536593,176.52419973,-65.17080719,165.71801910
-30.10601627,18.62214017,148.42222751,67.42198784,-4.70046298,-5.33746336
-0.59893911,2.22182850,-0.84189510,-0.63170578

>  <Name>


>  <RI>
0

>  <Rbt.Current_Directory>
/home/itssahil/PROJECTS/Mol_Feturizer/New_Systems/rnas/1qd3

>  <Rbt.Executable>
rbdock ($Id: //depot/dev/client3/rdock/2013.1/src/exe/rbdock.cxx#4 $)

>  <Rbt.Library>
libRbt.so (2013.1, Build901 2013/11/27)

>  <Rbt.Parameter_File>
/export/apps/rDock/src/rDock_2013.1_src/data/scripts/dock_solv.prm

>  <Rbt.Receptor>
prm/blind_docking_40.prm

>  <SCORE>
-38.7977

>  <SCORE.INTER>
-39.5533

>  <SCORE.INTER.CONST>
1

>  <SCORE.INTER.POLAR>
-4.76602

>  <SCORE.INTER.ROT>
9

>  <SCORE.INTER.SOLV>
33.7572

>  <SCORE.INTER.VDW>
-31.3346

>  <SCORE.INTER.norm>
-0.941746

>  <SCORE.INTRA>
-3.44235

>  <SCORE.INTRA.DIHEDRAL>
-15.53

>  <SCORE.INTRA.DIHEDRAL.0>
40.6252

>  <SCORE.INTRA.POLAR>
-0.439713

>  <SCORE.INTRA.POLAR.0>
-1.20161

>  <SCORE.INTRA.REPUL>
-0.112339

>  <SCORE.INTRA.REPUL.0>
0.115675

>  <SCORE.INTRA.SOLV>
-2.68255

>  <SCORE.INTRA.SOLV.lig_0>
-154.895

>  <SCORE.INTRA.VDW>
7.72063

>  <SCORE.INTRA.VDW.0>
2.2925

>  <SCORE.INTRA.norm>
-0.0819608

>  <SCORE.RESTR>
4.198

>  <SCORE.RESTR.CAVITY>
4.198

>  <SCORE.RESTR.norm>
0.0999523

>  <SCORE.SYSTEM>
0

>  <SCORE.SYSTEM.CONST>
0

>  <SCORE.SYSTEM.DIHEDRAL>
0

>  <SCORE.SYSTEM.SOLV>
0

>  <SCORE.SYSTEM.norm>
0

>  <SCORE.heavy>
42

>  <SCORE.norm>
-0.923754

>  <RMSD>
14.575

$$$$

 OpenBabel11021811413D
libRbt.so/2013.1/901 2013/11/27
 42 45  0  0  0  0  0  0  0  0999 V2000
   -7.5325   -9.3548   -2.9639 O   0  0  0  0  0  0  0  0  0  0  0  0
   -6.5286   -9.4079   -1.9604 C   0  0  0  0  0  0  0  0  0  0  0  0
   -6.5433   -8.1145   -1.1447 C   0  0  1  0  0  0  0  0  0  0  0  0
   -5.6622   -8.2032   -0.0039 O   0  0  0  0  0  0  0  0  0  0  0  0
   -6.0795   -6.8998   -1.9313 C   0  0  2  0  0  0  0  0  0  0  0  0
   -5.7272   -5.9528   -0.7964 C   0  0  1  0  0  0  0  0  0  0  0  0
   -6.9168   -5.3970   -0.2470 O   0  0  0  0  0  0  0  0  0  0  0  0
   -5.0697   -6.9001    0.2277 C   0  0  2  0  0  0  0  0  0  0  0  0
   -7.1353   -4.0212   -5.5623 C   0  0  2  0  0  0  0  0  0  0  0  0
   -7.5790   -5.0788   -4.6986 O   0  0  0  0  0  0  0  0  0  0  0  0
   -6.6851   -5.2770   -3.5884 C   0  0  2  0  0  0  0  0  0  0  0  0
   -7.1279   -6.3827   -2.7742 O   0  0  0  0  0  0  0  0  0  0  0  0
   -6.5803   -3.9976   -2.7407 C   0  0  2  0  0  0  0  0  0  0  0  0
   -7.7604   -3.8308   -1.9125 N   0  3  0  0  0  0  0  0  0  0  0  0
   -6.3319   -2.7398   -3.5814 C   0  0  1  0  0  0  0  0  0  0  0  0
   -4.9674   -2.6931   -3.9672 O   0  0  0  0  0  0  0  0  0  0  0  0
   -7.2163   -2.6910   -4.8244 C   0  0  2  0  0  0  0  0  0  0  0  0
   -8.5624   -2.4186   -4.4522 O   0  0  0  0  0  0  0  0  0  0  0  0
   -7.9684   -3.9852   -6.8404 C   0  0  0  0  0  0  0  0  0  0  0  0
   -9.1941   -4.7421   -6.6676 N   0  3  0  0  0  0  0  0  0  0  0  0
   -4.0418   -3.4326    1.6943 C   0  0  1  0  0  0  0  0  0  0  0  0
   -3.6281   -4.4894    0.8032 O   0  0  0  0  0  0  0  0  0  0  0  0
   -2.3013   -4.9904    1.0858 C   0  0  2  0  0  0  0  0  0  0  0  0
   -2.2326   -5.6504    2.3740 O   0  0  0  0  0  0  0  0  0  0  0  0
   -1.2655   -3.8640    0.9858 C   0  0  2  0  0  0  0  0  0  0  0  0
    0.0198   -4.3280    1.4739 N   0  3  0  0  0  0  0  0  0  0  0  0
   -1.6894   -2.6343    1.7813 C   0  0  1  0  0  0  0  0  0  0  0  0
   -0.8317   -1.5465    1.4729 O   0  0  0  0  0  0  0  0  0  0  0  0
   -3.1327   -2.2255    1.5304 C   0  0  2  0  0  0  0  0  0  0  0  0
   -3.5191   -1.1997    2.4333 O   0  0  0  0  0  0  0  0  0  0  0  0
   -5.4630   -2.9912    1.3568 C   0  0  0  0  0  0  0  0  0  0  0  0
   -5.5381   -2.4975   -0.0060 N   0  3  0  0  0  0  0  0  0  0  0  0
   -2.6285   -9.8823    2.1903 C   0  0  2  0  0  0  0  0  0  0  0  0
   -2.9658   -9.1918    3.4970 C   0  0  0  0  0  0  0  0  0  0  0  0
   -2.3970   -7.7850    3.5171 C   0  0  1  0  0  0  0  0  0  0  0  0
   -2.9653   -6.9033    2.4043 C   0  0  2  0  0  0  0  0  0  0  0  0
   -2.8609   -7.6080    1.0320 C   0  0  1  0  0  0  0  0  0  0  0  0
   -3.1938   -9.1057    1.0087 C   0  0  1  0  0  0  0  0  0  0  0  0
   -3.1777  -11.2248    2.1989 N   0  3  0  0  0  0  0  0  0  0  0  0
   -2.6502   -7.1928    4.8161 N   0  3  0  0  0  0  0  0  0  0  0  0
   -3.6284   -6.9137    0.0181 O   0  0  0  0  0  0  0  0  0  0  0  0
   -2.7343   -9.6827   -0.2091 O   0  0  0  0  0  0  0  0  0  0  0  0
  1  2  1  0  0  0  0
  3  2  1  6  0  0  0
  3  4  1  0  0  0  0
  3  5  1  0  0  0  0
  4  8  1  0  0  0  0
  5  6  1  0  0  0  0
  5 12  1  6  0  0  0
  6  7  1  1  0  0  0
  6  8  1  0  0  0  0
  8 41  1  6  0  0  0
  9 10  1  0  0  0  0
  9 17  1  0  0  0  0
  9 19  1  6  0  0  0
 10 11  1  0  0  0  0
 11 12  1  1  0  0  0
 11 13  1  0  0  0  0
 13 14  1  6  0  0  0
 13 15  1  0  0  0  0
 15 16  1  6  0  0  0
 15 17  1  0  0  0  0
 17 18  1  1  0  0  0
 19 20  1  0  0  0  0
 21 22  1  0  0  0  0
 21 29  1  0  0  0  0
 21 31  1  6  0  0  0
 22 23  1  0  0  0  0
 23 24  1  1  0  0  0
 23 25  1  0  0  0  0
 25 26  1  1  0  0  0
 25 27  1  0  0  0  0
 27 28  1  6  0  0  0
 27 29  1  0  0  0  0
 29 30  1  1  0  0  0
 31 32  1  0  0  0  0
 33 34  1  0  0  0  0
 33 38  1  0  0  0  0
 33 39  1  1  0  0  0
 34 35  1  0  0  0  0
 35 36  1  0  0  0  0
 35 40  1  1  0  0  0
 36 24  1  6  0  0  0
 36 37  1  0  0  0  0
 37 38  1  0  0  0  0
 37 41  1  6  0  0  0
 38 42  1  6  0  0  0
M  CHG  6  14   1  20   1  26   1  32   1  39   1  40   1
M  END
>  <CHROM.1>
57.93367062,172.21231601,-176.59065060,172.73692557,-71.79030515,16.66769650
161.04764659,-167.28104565,62.92810166,-178.25639770,-125.30058562,-60.16598593
69.06086436,156.76942128,-46.03799013,48.03779631,-173.46512626,-166.26918314
146.80699851,172.20859116,-64.96427151,-64.20261162,-4.78383450,-5.53702247
-0.56092199,2.72547525,-0.88143461,-0.17976791

>  <Name>


>  <RI>
0

>  <Rbt.Current_Directory>
/home/itssahil/PROJECTS/Mol_Feturizer/New_Systems/rnas/1qd3

>  <Rbt.Executable>
rbdock ($Id: //depot/dev/client3/rdock/2013.1/src/exe/rbdock.cxx#4 $)

>  <Rbt.Library>
libRbt.so (2013.1, Build901 2013/11/27)

>  <Rbt.Parameter_File>
/export/apps/rDock/src/rDock_2013.1_src/data/scripts/dock_solv.prm

>  <Rbt.Receptor>
prm/blind_docking_80.prm

>  <SCORE>
-37.4021

>  <SCORE.INTER>
-24.6597

>  <SCORE.INTER.CONST>
1

>  <SCORE.INTER.POLAR>
-4.64513

>  <SCORE.INTER.ROT>
9

>  <SCORE.INTER.SOLV>
28.0714

>  <SCORE.INTER.VDW>
-19.9132

>  <SCORE.INTER.norm>
-0.587137

>  <SCORE.INTRA>
-14.333

>  <SCORE.INTRA.DIHEDRAL>
-21.9725

>  <SCORE.INTRA.DIHEDRAL.0>
40.6252

>  <SCORE.INTRA.POLAR>
-0.0199799

>  <SCORE.INTRA.POLAR.0>
-1.20161

>  <SCORE.INTRA.REPUL>
-0.115675

>  <SCORE.INTRA.REPUL.0>
0.115675

>  <SCORE.INTRA.SOLV>
0.865025

>  <SCORE.INTRA.SOLV.lig_0>
-154.895

>  <SCORE.INTRA.VDW>
-3.13291

>  <SCORE.INTRA.VDW.0>
2.2925

>  <SCORE.INTRA.norm>
-0.341261

>  <SCORE.RESTR>
1.5906

>  <SCORE.RESTR.CAVITY>
1.5906

>  <SCORE.RESTR.norm>
0.0378715

>  <SCORE.SYSTEM>
0

>  <SCORE.SYSTEM.CONST>
0

>  <SCORE.SYSTEM.DIHEDRAL>
0

>  <SCORE.SYSTEM.SOLV>
0

>  <SCORE.SYSTEM.norm>
0

>  <SCORE.heavy>
42

>  <SCORE.norm>
-0.890526

>  <RMSD>
14.575

$$$$

 OpenBabel11021811413D
libRbt.so/2013.1/901 2013/11/27
 42 45  0  0  0  0  0  0  0  0999 V2000
   -1.8723   -4.7101    0.7318 O   0  0  0  0  0  0  0  0  0  0  0  0
   -1.7382   -4.4457   -0.6573 C   0  0  0  0  0  0  0  0  0  0  0  0
   -2.9985   -4.8998   -1.3947 C   0  0  1  0  0  0  0  0  0  0  0  0
   -3.0325   -6.3361   -1.5411 O   0  0  0  0  0  0  0  0  0  0  0  0
   -4.2850   -4.5272   -0.6766 C   0  0  2  0  0  0  0  0  0  0  0  0
   -5.2567   -5.4968   -1.3281 C   0  0  1  0  0  0  0  0  0  0  0  0
   -5.6057   -5.0286   -2.6261 O   0  0  0  0  0  0  0  0  0  0  0  0
   -4.4095   -6.7803   -1.4442 C   0  0  2  0  0  0  0  0  0  0  0  0
   -3.1402   -1.9014    2.1783 C   0  0  2  0  0  0  0  0  0  0  0  0
   -3.2806   -2.6525    0.9628 O   0  0  0  0  0  0  0  0  0  0  0  0
   -4.5046   -2.3379    0.2747 C   0  0  2  0  0  0  0  0  0  0  0  0
   -4.6420   -3.1505   -0.9096 O   0  0  0  0  0  0  0  0  0  0  0  0
   -4.5522   -0.8450   -0.0934 C   0  0  2  0  0  0  0  0  0  0  0  0
   -3.7012   -0.5692   -1.2362 N   0  3  0  0  0  0  0  0  0  0  0  0
   -4.1907    0.0737    1.0797 C   0  0  1  0  0  0  0  0  0  0  0  0
   -5.2991    0.1720    1.9598 O   0  0  0  0  0  0  0  0  0  0  0  0
   -2.9699   -0.4238    1.8490 C   0  0  2  0  0  0  0  0  0  0  0  0
   -1.7937   -0.2274    1.0729 O   0  0  0  0  0  0  0  0  0  0  0  0
   -1.9581   -2.4157    2.9950 C   0  0  0  0  0  0  0  0  0  0  0  0
   -2.3927   -3.4409    3.9250 N   0  3  0  0  0  0  0  0  0  0  0  0
   -3.5077   -8.0192    4.2100 C   0  0  1  0  0  0  0  0  0  0  0  0
   -3.8778   -7.3552    2.9836 O   0  0  0  0  0  0  0  0  0  0  0  0
   -2.8034   -7.2964    2.0173 C   0  0  2  0  0  0  0  0  0  0  0  0
   -2.4319   -8.6121    1.5370 O   0  0  0  0  0  0  0  0  0  0  0  0
   -1.5921   -6.5583    2.6001 C   0  0  2  0  0  0  0  0  0  0  0  0
   -0.4555   -6.6893    1.7075 N   0  3  0  0  0  0  0  0  0  0  0  0
   -1.2127   -7.0936    3.9764 C   0  0  1  0  0  0  0  0  0  0  0  0
   -0.2513   -6.2374    4.5739 O   0  0  0  0  0  0  0  0  0  0  0  0
   -2.4033   -7.2447    4.9107 C   0  0  2  0  0  0  0  0  0  0  0  0
   -2.0157   -7.9185    6.0991 O   0  0  0  0  0  0  0  0  0  0  0  0
   -4.7046   -8.0761    5.1549 C   0  0  0  0  0  0  0  0  0  0  0  0
   -4.7207   -9.3280    5.8893 N   0  3  0  0  0  0  0  0  0  0  0  0
   -4.4655  -11.3496   -1.0066 C   0  0  2  0  0  0  0  0  0  0  0  0
   -4.2524  -11.7465    0.4409 C   0  0  0  0  0  0  0  0  0  0  0  0
   -3.1900  -10.8721    1.0809 C   0  0  1  0  0  0  0  0  0  0  0  0
   -3.5728   -9.3915    1.0916 C   0  0  2  0  0  0  0  0  0  0  0  0
   -4.0139   -8.9237   -0.3146 C   0  0  1  0  0  0  0  0  0  0  0  0
   -4.8995   -9.8936   -1.1080 C   0  0  1  0  0  0  0  0  0  0  0  0
   -5.4798  -12.2028   -1.5958 N   0  3  0  0  0  0  0  0  0  0  0  0
   -2.9408  -11.3439    2.4291 N   0  3  0  0  0  0  0  0  0  0  0  0
   -4.6301   -7.6133   -0.2699 O   0  0  0  0  0  0  0  0  0  0  0  0
   -4.9413   -9.4992   -2.4754 O   0  0  0  0  0  0  0  0  0  0  0  0
  1  2  1  0  0  0  0
  3  2  1  1  0  0  0
  3  4  1  0  0  0  0
  3  5  1  0  0  0  0
  4  8  1  0  0  0  0
  5  6  1  0  0  0  0
  5 12  1  6  0  0  0
  6  7  1  6  0  0  0
  6  8  1  0  0  0  0
  8 41  1  1  0  0  0
  9 10  1  0  0  0  0
  9 17  1  0  0  0  0
  9 19  1  6  0  0  0
 10 11  1  0  0  0  0
 11 12  1  6  0  0  0
 11 13  1  0  0  0  0
 13 14  1  6  0  0  0
 13 15  1  0  0  0  0
 15 16  1  1  0  0  0
 15 17  1  0  0  0  0
 17 18  1  6  0  0  0
 19 20  1  0  0  0  0
 21 22  1  0  0  0  0
 21 29  1  0  0  0  0
 21 31  1  1  0  0  0
 22 23  1  0  0  0  0
 23 24  1  1  0  0  0
 23 25  1  0  0  0  0
 25 26  1  6  0  0  0
 25 27  1  0  0  0  0
 27 28  1  1  0  0  0
 27 29  1  0  0  0  0
 29 30  1  1  0  0  0
 31 32  1  0  0  0  0
 33 34  1  0  0  0  0
 33 38  1  0  0  0  0
 33 39  1  1  0  0  0
 34 35  1  0  0  0  0
 35 36  1  0  0  0  0
 35 40  1  1  0  0  0
 36 24  1  6  0  0  0
 36 37  1  0  0  0  0
 37 38  1  0  0  0  0
 37 41  1  1  0  0  0
 38 42  1  6  0  0  0
M  CHG  6  14   1  20   1  26   1  32   1  39   1  40   1
M  END
>  <CHROM.1>
-64.94944498,-76.05073852,-110.78621497,-46.28991451,-69.88062293,-91.35086642
43.24504572,90.30001280,-168.34001517,167.51745252,-71.38654806,143.12720465
50.27709240,-160.06472149,-129.21083028,-64.19260380,-66.69683561,-173.61164175
-52.10754450,70.65832647,147.10969127,177.81711817,-3.41385302,-6.02140455
1.18885216,-1.44699033,1.21004879,2.97595814

>  <Name>


>  <RI>
0

>  <Rbt.Current_Directory>
/home/itssahil/PROJECTS/Mol_Feturizer/New_Systems/rnas/1qd3

>  <Rbt.Executable>
rbdock ($Id: //depot/dev/client3/rdock/2013.1/src/exe/rbdock.cxx#4 $)

>  <Rbt.Library>
libRbt.so (2013.1, Build901 2013/11/27)

>  <Rbt.Parameter_File>
/export/apps/rDock/src/rDock_2013.1_src/data/scripts/dock_solv.prm

>  <Rbt.Receptor>
prm/blind_docking_60.prm

>  <SCORE>
-66.7065

>  <SCORE.INTER>
-53.8772

>  <SCORE.INTER.CONST>
1

>  <SCORE.INTER.POLAR>
-7.35909

>  <SCORE.INTER.ROT>
9

>  <SCORE.INTER.SOLV>
31.8442

>  <SCORE.INTER.VDW>
-31.6025

>  <SCORE.INTER.norm>
-1.28279

>  <SCORE.INTRA>
-15.6101

>  <SCORE.INTRA.DIHEDRAL>
-9.86869

>  <SCORE.INTRA.DIHEDRAL.0>
40.6252

>  <SCORE.INTRA.POLAR>
0.0645255

>  <SCORE.INTRA.POLAR.0>
-1.20161

>  <SCORE.INTRA.REPUL>
-0.115675

>  <SCORE.INTRA.REPUL.0>
0.115675

>  <SCORE.INTRA.SOLV>
-5.84167

>  <SCORE.INTRA.SOLV.lig_0>
-154.895

>  <SCORE.INTRA.VDW>
-7.39594

>  <SCORE.INTRA.VDW.0>
2.2925

>  <SCORE.INTRA.norm>
-0.371669

>  <SCORE.RESTR>
2.78075

>  <SCORE.RESTR.CAVITY>
2.78075

>  <SCORE.RESTR.norm>
0.0662084

>  <SCORE.SYSTEM>
0

>  <SCORE.SYSTEM.CONST>
0

>  <SCORE.SYSTEM.DIHEDRAL>
0

>  <SCORE.SYSTEM.SOLV>
0

>  <SCORE.SYSTEM.norm>
0

>  <SCORE.heavy>
42

>  <SCORE.norm>
-1.58825

>  <RMSD>
14.581

$$$$

 OpenBabel11021811413D
libRbt.so/2013.1/901 2013/11/27
 42 45  0  0  0  0  0  0  0  0999 V2000
   -7.1358   -1.3597   -2.2149 O   0  0  0  0  0  0  0  0  0  0  0  0
   -6.5016   -1.9992   -3.3133 C   0  0  0  0  0  0  0  0  0  0  0  0
   -5.4354   -2.9691   -2.8023 C   0  0  1  0  0  0  0  0  0  0  0  0
   -4.7372   -2.4275   -1.6599 O   0  0  0  0  0  0  0  0  0  0  0  0
   -6.0022   -4.3031   -2.3457 C   0  0  2  0  0  0  0  0  0  0  0  0
   -4.8638   -4.8037   -1.4726 C   0  0  1  0  0  0  0  0  0  0  0  0
   -3.8114   -5.3000   -2.2925 O   0  0  0  0  0  0  0  0  0  0  0  0
   -4.4083   -3.5148   -0.7585 C   0  0  2  0  0  0  0  0  0  0  0  0
   -8.8558   -4.4838   -5.9433 C   0  0  2  0  0  0  0  0  0  0  0  0
   -7.5479   -4.7132   -5.3972 O   0  0  0  0  0  0  0  0  0  0  0  0
   -7.5973   -5.0093   -3.9898 C   0  0  2  0  0  0  0  0  0  0  0  0
   -6.2652   -5.1766   -3.4614 O   0  0  0  0  0  0  0  0  0  0  0  0
   -8.4375   -6.2714   -3.7298 C   0  0  2  0  0  0  0  0  0  0  0  0
   -7.6907   -7.4671   -4.0748 N   0  3  0  0  0  0  0  0  0  0  0  0
   -9.7877   -6.2532   -4.4560 C   0  0  1  0  0  0  0  0  0  0  0  0
  -10.6883   -5.4106   -3.7546 O   0  0  0  0  0  0  0  0  0  0  0  0
   -9.6612   -5.7761   -5.9003 C   0  0  2  0  0  0  0  0  0  0  0  0
   -9.0254   -6.7760   -6.6880 O   0  0  0  0  0  0  0  0  0  0  0  0
   -8.7571   -3.9524   -7.3705 C   0  0  0  0  0  0  0  0  0  0  0  0
   -8.1410   -2.6389   -7.3805 N   0  3  0  0  0  0  0  0  0  0  0  0
   -2.3417   -6.2056    4.8908 C   0  0  1  0  0  0  0  0  0  0  0  0
   -2.1378   -6.1248    3.4647 O   0  0  0  0  0  0  0  0  0  0  0  0
   -3.3500   -5.8442    2.7277 C   0  0  2  0  0  0  0  0  0  0  0  0
   -3.8731   -4.5256    3.0236 O   0  0  0  0  0  0  0  0  0  0  0  0
   -4.4035   -6.9279    2.9875 C   0  0  2  0  0  0  0  0  0  0  0  0
   -5.6763   -6.5285    2.4164 N   0  3  0  0  0  0  0  0  0  0  0  0
   -4.5844   -7.1944    4.4777 C   0  0  1  0  0  0  0  0  0  0  0  0
   -5.3823   -8.3535    4.6626 O   0  0  0  0  0  0  0  0  0  0  0  0
   -3.2684   -7.3642    5.2211 C   0  0  2  0  0  0  0  0  0  0  0  0
   -3.4965   -7.4204    6.6216 O   0  0  0  0  0  0  0  0  0  0  0  0
   -1.0121   -6.4608    5.5949 C   0  0  0  0  0  0  0  0  0  0  0  0
   -0.3970   -5.2104    6.0009 N   0  3  0  0  0  0  0  0  0  0  0  0
   -3.0396   -0.5075    1.9013 C   0  0  2  0  0  0  0  0  0  0  0  0
   -1.8771   -1.3850    2.3216 C   0  0  0  0  0  0  0  0  0  0  0  0
   -2.3778   -2.6142    3.0573 C   0  0  1  0  0  0  0  0  0  0  0  0
   -3.2877   -3.4886    2.1933 C   0  0  2  0  0  0  0  0  0  0  0  0
   -4.4053   -2.6453    1.5373 C   0  0  1  0  0  0  0  0  0  0  0  0
   -3.9909   -1.2726    0.9911 C   0  0  1  0  0  0  0  0  0  0  0  0
   -2.5345    0.6613    1.2065 N   0  3  0  0  0  0  0  0  0  0  0  0
   -1.2389   -3.3762    3.5312 N   0  3  0  0  0  0  0  0  0  0  0  0
   -5.1060   -3.3949    0.5145 O   0  0  0  0  0  0  0  0  0  0  0  0
   -5.1495   -0.4851    0.7370 O   0  0  0  0  0  0  0  0  0  0  0  0
  1  2  1  0  0  0  0
  3  2  1  1  0  0  0
  3  4  1  0  0  0  0
  3  5  1  0  0  0  0
  4  8  1  0  0  0  0
  5  6  1  0  0  0  0
  5 12  1  6  0  0  0
  6  7  1  6  0  0  0
  6  8  1  0  0  0  0
  8 41  1  1  0  0  0
  9 10  1  0  0  0  0
  9 17  1  0  0  0  0
  9 19  1  6  0  0  0
 10 11  1  0  0  0  0
 11 12  1  6  0  0  0
 11 13  1  0  0  0  0
 13 14  1  6  0  0  0
 13 15  1  0  0  0  0
 15 16  1  1  0  0  0
 15 17  1  0  0  0  0
 17 18  1  6  0  0  0
 19 20  1  0  0  0  0
 21 22  1  0  0  0  0
 21 29  1  0  0  0  0
 21 31  1  1  0  0  0
 22 23  1  0  0  0  0
 23 24  1  1  0  0  0
 23 25  1  0  0  0  0
 25 26  1  1  0  0  0
 25 27  1  0  0  0  0
 27 28  1  6  0  0  0
 27 29  1  0  0  0  0
 29 30  1  1  0  0  0
 31 32  1  0  0  0  0
 33 34  1  0  0  0  0
 33 38  1  0  0  0  0
 33 39  1  6  0  0  0
 34 35  1  0  0  0  0
 35 36  1  0  0  0  0
 35 40  1  6  0  0  0
 36 24  1  1  0  0  0
 36 37  1  0  0  0  0
 37 38  1  0  0  0  0
 37 41  1  6  0  0  0
 38 42  1  1  0  0  0
M  CHG  6  14   1  20   1  26   1  32   1  39   1  40   1
M  END
>  <CHROM.1>
-54.34732502,-38.32580584,-89.48446565,52.42022044,-90.06928424,-65.57558226
124.66633675,44.13775031,63.15690350,-173.00549013,-54.21474065,93.07161032
86.41918834,-109.76633545,72.98561117,-169.57107021,-60.89370966,58.95332940
-80.16190293,-15.75948746,-77.82141472,-155.34436615,-5.20075319,-4.45835915
-0.21478028,-2.60492287,0.93066387,2.54086314

>  <Name>


>  <RI>
0

>  <Rbt.Current_Directory>
/home/itssahil/PROJECTS/Mol_Feturizer/New_Systems/rnas/1qd3

>  <Rbt.Executable>
rbdock ($Id: //depot/dev/client3/rdock/2013.1/src/exe/rbdock.cxx#4 $)

>  <Rbt.Library>
libRbt.so (2013.1, Build901 2013/11/27)

>  <Rbt.Parameter_File>
/export/apps/rDock/src/rDock_2013.1_src/data/scripts/dock_solv.prm

>  <Rbt.Receptor>
prm/blind_docking_80.prm

>  <SCORE>
-50.5554

>  <SCORE.INTER>
-41.8422

>  <SCORE.INTER.CONST>
1

>  <SCORE.INTER.POLAR>
-5.64881

>  <SCORE.INTER.ROT>
9

>  <SCORE.INTER.SOLV>
29.7287

>  <SCORE.INTER.VDW>
-28.575

>  <SCORE.INTER.norm>
-0.996242

>  <SCORE.INTRA>
-10.2609

>  <SCORE.INTRA.DIHEDRAL>
-0.680203

>  <SCORE.INTRA.DIHEDRAL.0>
40.6252

>  <SCORE.INTRA.POLAR>
0.233021

>  <SCORE.INTRA.POLAR.0>
-1.20161

>  <SCORE.INTRA.REPUL>
-0.115675

>  <SCORE.INTRA.REPUL.0>
0.115675

>  <SCORE.INTRA.SOLV>
-6.80742

>  <SCORE.INTRA.SOLV.lig_0>
-154.895

>  <SCORE.INTRA.VDW>
-6.73098

>  <SCORE.INTRA.VDW.0>
2.2925

>  <SCORE.INTRA.norm>
-0.244307

>  <SCORE.RESTR>
1.54769

>  <SCORE.RESTR.CAVITY>
1.54769

>  <SCORE.RESTR.norm>
0.0368497

>  <SCORE.SYSTEM>
0

>  <SCORE.SYSTEM.CONST>
0

>  <SCORE.SYSTEM.DIHEDRAL>
0

>  <SCORE.SYSTEM.SOLV>
0

>  <SCORE.SYSTEM.norm>
0

>  <SCORE.heavy>
42

>  <SCORE.norm>
-1.2037

>  <RMSD>
14.586

$$$$

 OpenBabel11021811413D
libRbt.so/2013.1/901 2013/11/27
 42 45  0  0  0  0  0  0  0  0999 V2000
   -3.2144   -3.8710   -2.0403 O   0  0  0  0  0  0  0  0  0  0  0  0
   -4.6121   -4.0602   -2.2084 C   0  0  0  0  0  0  0  0  0  0  0  0
   -4.9455   -5.5508   -2.1333 C   0  0  1  0  0  0  0  0  0  0  0  0
   -3.9003   -6.2895   -1.4644 O   0  0  0  0  0  0  0  0  0  0  0  0
   -6.2198   -5.8458   -1.3599 C   0  0  2  0  0  0  0  0  0  0  0  0
   -6.0120   -7.3153   -1.0336 C   0  0  1  0  0  0  0  0  0  0  0  0
   -6.2850   -8.1068   -2.1846 O   0  0  0  0  0  0  0  0  0  0  0  0
   -4.5056   -7.3677   -0.7068 C   0  0  2  0  0  0  0  0  0  0  0  0
   -7.6661   -3.6225   -5.2126 C   0  0  2  0  0  0  0  0  0  0  0  0
   -7.8322   -4.7319   -4.3164 O   0  0  0  0  0  0  0  0  0  0  0  0
   -7.2607   -4.4679   -3.0224 C   0  0  2  0  0  0  0  0  0  0  0  0
   -7.3929   -5.6218   -2.1665 O   0  0  0  0  0  0  0  0  0  0  0  0
   -7.9278   -3.2427   -2.3740 C   0  0  2  0  0  0  0  0  0  0  0  0
   -9.2393   -3.5850   -1.8552 N   0  3  0  0  0  0  0  0  0  0  0  0
   -8.0217   -2.0400   -3.3203 C   0  0  1  0  0  0  0  0  0  0  0  0
   -6.7547   -1.4071   -3.4045 O   0  0  0  0  0  0  0  0  0  0  0  0
   -8.4876   -2.4388   -4.7180 C   0  0  2  0  0  0  0  0  0  0  0  0
   -9.8690   -2.7785   -4.6908 O   0  0  0  0  0  0  0  0  0  0  0  0
   -8.0730   -4.0114   -6.6311 C   0  0  0  0  0  0  0  0  0  0  0  0
   -7.8243   -2.9149   -7.5480 N   0  3  0  0  0  0  0  0  0  0  0  0
   -1.6123   -5.4315    1.8832 C   0  0  1  0  0  0  0  0  0  0  0  0
   -1.2646   -6.7299    2.4079 O   0  0  0  0  0  0  0  0  0  0  0  0
   -1.8844   -7.0173    3.6825 C   0  0  2  0  0  0  0  0  0  0  0  0
   -3.3256   -7.1217    3.5748 O   0  0  0  0  0  0  0  0  0  0  0  0
   -1.4826   -5.9692    4.7274 C   0  0  2  0  0  0  0  0  0  0  0  0
   -2.2701   -6.1448    5.9335 N   0  3  0  0  0  0  0  0  0  0  0  0
   -1.6743   -4.5493    4.2061 C   0  0  1  0  0  0  0  0  0  0  0  0
   -1.0754   -3.6261    5.1023 O   0  0  0  0  0  0  0  0  0  0  0  0
   -1.1049   -4.3400    2.8113 C   0  0  2  0  0  0  0  0  0  0  0  0
   -1.4789   -3.0644    2.3119 O   0  0  0  0  0  0  0  0  0  0  0  0
   -0.9540   -5.2249    0.5220 C   0  0  0  0  0  0  0  0  0  0  0  0
   -1.4710   -4.0320   -0.1233 N   0  3  0  0  0  0  0  0  0  0  0  0
   -2.7338  -10.6276    1.2385 C   0  0  2  0  0  0  0  0  0  0  0  0
   -3.2636  -10.7932    2.6492 C   0  0  0  0  0  0  0  0  0  0  0  0
   -3.0337   -9.5282    3.4553 C   0  0  1  0  0  0  0  0  0  0  0  0
   -3.7520   -8.3140    2.8647 C   0  0  2  0  0  0  0  0  0  0  0  0
   -3.4433   -8.1678    1.3567 C   0  0  1  0  0  0  0  0  0  0  0  0
   -3.4228   -9.4649    0.5371 C   0  0  1  0  0  0  0  0  0  0  0  0
   -2.9603  -11.8505    0.4921 N   0  3  0  0  0  0  0  0  0  0  0  0
   -3.4589   -9.7567    4.8225 N   0  3  0  0  0  0  0  0  0  0  0  0
   -4.3155   -7.1973    0.7272 O   0  0  0  0  0  0  0  0  0  0  0  0
   -2.8030   -9.2290   -0.7228 O   0  0  0  0  0  0  0  0  0  0  0  0
  1  2  1  0  0  0  0
  3  2  1  1  0  0  0
  3  4  1  0  0  0  0
  3  5  1  0  0  0  0
  4  8  1  0  0  0  0
  5  6  1  0  0  0  0
  5 12  1  6  0  0  0
  6  7  1  6  0  0  0
  6  8  1  0  0  0  0
  8 41  1  1  0  0  0
  9 10  1  0  0  0  0
  9 17  1  0  0  0  0
  9 19  1  6  0  0  0
 10 11  1  0  0  0  0
 11 12  1  1  0  0  0
 11 13  1  0  0  0  0
 13 14  1  6  0  0  0
 13 15  1  0  0  0  0
 15 16  1  6  0  0  0
 15 17  1  0  0  0  0
 17 18  1  1  0  0  0
 19 20  1  0  0  0  0
 21 22  1  0  0  0  0
 21 29  1  0  0  0  0
 21 31  1  6  0  0  0
 22 23  1  0  0  0  0
 23 24  1  6  0  0  0
 23 25  1  0  0  0  0
 25 26  1  1  0  0  0
 25 27  1  0  0  0  0
 27 28  1  1  0  0  0
 27 29  1  0  0  0  0
 29 30  1  6  0  0  0
 31 32  1  0  0  0  0
 33 34  1  0  0  0  0
 33 38  1  0  0  0  0
 33 39  1  6  0  0  0
 34 35  1  0  0  0  0
 35 36  1  0  0  0  0
 35 40  1  1  0  0  0
 36 24  1  1  0  0  0
 36 37  1  0  0  0  0
 37 38  1  0  0  0  0
 37 41  1  6  0  0  0
 38 42  1  6  0  0  0
M  CHG  6  14   1  20   1  26   1  32   1  39   1  40   1
M  END
>  <CHROM.1>
163.52715270,20.34303728,-38.31803271,-60.52957996,-111.99987327,-176.41279243
140.11793077,-30.53782922,176.38314238,-63.75549150,122.44702009,170.18269373
70.34416448,49.62082947,60.21286776,178.40179377,-146.31182123,35.88731967
-167.81736576,100.31865161,-155.66823051,61.94441024,-4.50456171,-5.86023743
-0.21036417,-2.66293564,0.90886104,3.03614332

>  <Name>


>  <RI>
0

>  <Rbt.Current_Directory>
/home/itssahil/PROJECTS/Mol_Feturizer/New_Systems/rnas/1qd3

>  <Rbt.Executable>
rbdock ($Id: //depot/dev/client3/rdock/2013.1/src/exe/rbdock.cxx#4 $)

>  <Rbt.Library>
libRbt.so (2013.1, Build901 2013/11/27)

>  <Rbt.Parameter_File>
/export/apps/rDock/src/rDock_2013.1_src/data/scripts/dock_solv.prm

>  <Rbt.Receptor>
prm/blind_docking_40.prm

>  <SCORE>
-48.999

>  <SCORE.INTER>
-47.1843

>  <SCORE.INTER.CONST>
1

>  <SCORE.INTER.POLAR>
-6.41048

>  <SCORE.INTER.ROT>
9

>  <SCORE.INTER.SOLV>
26.7393

>  <SCORE.INTER.VDW>
-28.601

>  <SCORE.INTER.norm>
-1.12344

>  <SCORE.INTRA>
-6.66942

>  <SCORE.INTRA.DIHEDRAL>
-2.60121

>  <SCORE.INTRA.DIHEDRAL.0>
40.6252

>  <SCORE.INTRA.POLAR>
-0.894895

>  <SCORE.INTRA.POLAR.0>
-1.20161

>  <SCORE.INTRA.REPUL>
-0.115675

>  <SCORE.INTRA.REPUL.0>
0.115675

>  <SCORE.INTRA.SOLV>
-4.13258

>  <SCORE.INTRA.SOLV.lig_0>
-154.895

>  <SCORE.INTRA.VDW>
0.318496

>  <SCORE.INTRA.VDW.0>
2.2925

>  <SCORE.INTRA.norm>
-0.158796

>  <SCORE.RESTR>
4.85464

>  <SCORE.RESTR.CAVITY>
4.85464

>  <SCORE.RESTR.norm>
0.115587

>  <SCORE.SYSTEM>
0

>  <SCORE.SYSTEM.CONST>
0

>  <SCORE.SYSTEM.DIHEDRAL>
0

>  <SCORE.SYSTEM.SOLV>
0

>  <SCORE.SYSTEM.norm>
0

>  <SCORE.heavy>
42

>  <SCORE.norm>
-1.16664

>  <RMSD>
14.598

$$$$

 OpenBabel11021811413D
libRbt.so/2013.1/901 2013/11/27
 42 45  0  0  0  0  0  0  0  0999 V2000
   -2.0112   -2.8642   -0.9586 O   0  0  0  0  0  0  0  0  0  0  0  0
   -3.2418   -3.3434   -1.4819 C   0  0  0  0  0  0  0  0  0  0  0  0
   -3.3750   -4.8409   -1.2026 C   0  0  1  0  0  0  0  0  0  0  0  0
   -2.9158   -5.1700    0.1265 O   0  0  0  0  0  0  0  0  0  0  0  0
   -4.8067   -5.3444   -1.2814 C   0  0  2  0  0  0  0  0  0  0  0  0
   -4.6876   -6.6417   -0.4993 C   0  0  1  0  0  0  0  0  0  0  0  0
   -4.0767   -7.6384   -1.3113 O   0  0  0  0  0  0  0  0  0  0  0  0
   -3.7366   -6.2455    0.6484 C   0  0  2  0  0  0  0  0  0  0  0  0
   -7.9839   -4.3703   -4.7157 C   0  0  2  0  0  0  0  0  0  0  0  0
   -6.8152   -5.1127   -4.3356 O   0  0  0  0  0  0  0  0  0  0  0  0
   -6.4264   -4.8445   -2.9763 C   0  0  2  0  0  0  0  0  0  0  0  0
   -5.2180   -5.5600   -2.6457 O   0  0  0  0  0  0  0  0  0  0  0  0
   -7.5557   -5.2252   -2.0035 C   0  0  2  0  0  0  0  0  0  0  0  0
   -7.6186   -6.6642   -1.8255 N   0  3  0  0  0  0  0  0  0  0  0  0
   -8.9230   -4.6761   -2.4275 C   0  0  1  0  0  0  0  0  0  0  0  0
   -8.9979   -3.2971   -2.1028 O   0  0  0  0  0  0  0  0  0  0  0  0
   -9.1847   -4.8648   -3.9193 C   0  0  2  0  0  0  0  0  0  0  0  0
   -9.4265   -6.2386   -4.2000 O   0  0  0  0  0  0  0  0  0  0  0  0
   -8.2372   -4.4966   -6.2153 C   0  0  0  0  0  0  0  0  0  0  0  0
   -8.4945   -5.8794   -6.5709 N   0  3  0  0  0  0  0  0  0  0  0  0
   -2.0281   -9.5764    3.6577 C   0  0  1  0  0  0  0  0  0  0  0  0
   -2.8055   -8.7670    2.7507 O   0  0  0  0  0  0  0  0  0  0  0  0
   -3.5724   -7.7371    3.4159 C   0  0  2  0  0  0  0  0  0  0  0  0
   -2.7218   -6.7432    4.0391 O   0  0  0  0  0  0  0  0  0  0  0  0
   -4.5382   -8.3551    4.4342 C   0  0  2  0  0  0  0  0  0  0  0  0
   -5.1448   -7.3108    5.2388 N   0  3  0  0  0  0  0  0  0  0  0  0
   -3.8331   -9.3482    5.3513 C   0  0  1  0  0  0  0  0  0  0  0  0
   -4.7951  -10.0638    6.1107 O   0  0  0  0  0  0  0  0  0  0  0  0
   -2.9479  -10.3326    4.6024 C   0  0  2  0  0  0  0  0  0  0  0  0
   -2.1802  -11.1009    5.5173 O   0  0  0  0  0  0  0  0  0  0  0  0
   -1.2190  -10.6070    2.8755 C   0  0  0  0  0  0  0  0  0  0  0  0
   -0.3145   -9.9536    1.9473 N   0  3  0  0  0  0  0  0  0  0  0  0
   -2.8454   -2.6171    3.0099 C   0  0  2  0  0  0  0  0  0  0  0  0
   -1.4874   -3.2609    3.2085 C   0  0  0  0  0  0  0  0  0  0  0  0
   -1.6270   -4.5790    3.9472 C   0  0  1  0  0  0  0  0  0  0  0  0
   -2.4785   -5.5951    3.1846 C   0  0  2  0  0  0  0  0  0  0  0  0
   -3.8231   -4.9712    2.7449 C   0  0  1  0  0  0  0  0  0  0  0  0
   -3.7648   -3.5330    2.2133 C   0  0  1  0  0  0  0  0  0  0  0  0
   -2.6839   -1.3582    2.3078 N   0  3  0  0  0  0  0  0  0  0  0  0
   -0.3054   -5.1153    4.2081 N   0  3  0  0  0  0  0  0  0  0  0  0
   -4.5199   -5.8209    1.8007 O   0  0  0  0  0  0  0  0  0  0  0  0
   -5.0763   -2.9803    2.1737 O   0  0  0  0  0  0  0  0  0  0  0  0
  1  2  1  0  0  0  0
  3  2  1  1  0  0  0
  3  4  1  0  0  0  0
  3  5  1  0  0  0  0
  4  8  1  0  0  0  0
  5  6  1  0  0  0  0
  5 12  1  6  0  0  0
  6  7  1  6  0  0  0
  6  8  1  0  0  0  0
  8 41  1  1  0  0  0
  9 10  1  0  0  0  0
  9 17  1  0  0  0  0
  9 19  1  6  0  0  0
 10 11  1  0  0  0  0
 11 12  1  1  0  0  0
 11 13  1  0  0  0  0
 13 14  1  6  0  0  0
 13 15  1  0  0  0  0
 15 16  1  6  0  0  0
 15 17  1  0  0  0  0
 17 18  1  1  0  0  0
 19 20  1  0  0  0  0
 21 22  1  0  0  0  0
 21 29  1  0  0  0  0
 21 31  1  6  0  0  0
 22 23  1  0  0  0  0
 23 24  1  1  0  0  0
 23 25  1  0  0  0  0
 25 26  1  1  0  0  0
 25 27  1  0  0  0  0
 27 28  1  6  0  0  0
 27 29  1  0  0  0  0
 29 30  1  1  0  0  0
 31 32  1  0  0  0  0
 33 34  1  0  0  0  0
 33 38  1  0  0  0  0
 33 39  1  6  0  0  0
 34 35  1  0  0  0  0
 35 36  1  0  0  0  0
 35 40  1  6  0  0  0
 36 24  1  1  0  0  0
 36 37  1  0  0  0  0
 37 38  1  0  0  0  0
 37 41  1  6  0  0  0
 38 42  1  1  0  0  0
M  CHG  6  14   1  20   1  26   1  32   1  39   1  40   1
M  END
>  <CHROM.1>
161.54943180,41.08314092,-125.27221954,-43.00382743,-41.06829634,62.37017513
-178.70023442,24.82439242,-174.82379012,53.61363468,54.68483853,59.95312407
93.90781573,177.53766849,-50.57389118,-54.92037591,-167.15029839,57.32789643
-73.60062245,-178.84839767,-52.02883782,67.71085158,-4.48855207,-6.03789229
0.67743677,-2.49504562,0.87581560,2.73398986

>  <Name>


>  <RI>
0

>  <Rbt.Current_Directory>
/home/itssahil/PROJECTS/Mol_Feturizer/New_Systems/rnas/1qd3

>  <Rbt.Executable>
rbdock ($Id: //depot/dev/client3/rdock/2013.1/src/exe/rbdock.cxx#4 $)

>  <Rbt.Library>
libRbt.so (2013.1, Build901 2013/11/27)

>  <Rbt.Parameter_File>
/export/apps/rDock/src/rDock_2013.1_src/data/scripts/dock_solv.prm

>  <Rbt.Receptor>
prm/blind_docking_100.prm

>  <SCORE>
-61.9537

>  <SCORE.INTER>
-47.08

>  <SCORE.INTER.CONST>
1

>  <SCORE.INTER.POLAR>
-7.02399

>  <SCORE.INTER.ROT>
9

>  <SCORE.INTER.SOLV>
36.9194

>  <SCORE.INTER.VDW>
-29.8799

>  <SCORE.INTER.norm>
-1.12095

>  <SCORE.INTRA>
-15.3449

>  <SCORE.INTRA.DIHEDRAL>
-17.1721

>  <SCORE.INTRA.DIHEDRAL.0>
40.6252

>  <SCORE.INTRA.POLAR>
0.61063

>  <SCORE.INTRA.POLAR.0>
-1.20161

>  <SCORE.INTRA.REPUL>
-0.115675

>  <SCORE.INTRA.REPUL.0>
0.115675

>  <SCORE.INTRA.SOLV>
-5.36298

>  <SCORE.INTRA.SOLV.lig_0>
-154.895

>  <SCORE.INTRA.VDW>
-5.57511

>  <SCORE.INTRA.VDW.0>
2.2925

>  <SCORE.INTRA.norm>
-0.365355

>  <SCORE.RESTR>
0.471192

>  <SCORE.RESTR.CAVITY>
0.471192

>  <SCORE.RESTR.norm>
0.0112189

>  <SCORE.SYSTEM>
0

>  <SCORE.SYSTEM.CONST>
0

>  <SCORE.SYSTEM.DIHEDRAL>
0

>  <SCORE.SYSTEM.SOLV>
0

>  <SCORE.SYSTEM.norm>
0

>  <SCORE.heavy>
42

>  <SCORE.norm>
-1.47509

>  <RMSD>
14.605

$$$$

 OpenBabel11021811413D
libRbt.so/2013.1/901 2013/11/27
 42 45  0  0  0  0  0  0  0  0999 V2000
   -3.1227  -10.4225   -1.1597 O   0  0  0  0  0  0  0  0  0  0  0  0
   -3.9869   -9.6409   -1.9721 C   0  0  0  0  0  0  0  0  0  0  0  0
   -4.9874   -8.8911   -1.0917 C   0  0  1  0  0  0  0  0  0  0  0  0
   -4.3135   -8.0487   -0.1315 O   0  0  0  0  0  0  0  0  0  0  0  0
   -5.9084   -7.9701   -1.8746 C   0  0  2  0  0  0  0  0  0  0  0  0
   -6.3851   -7.0470   -0.7657 C   0  0  1  0  0  0  0  0  0  0  0  0
   -7.3744   -7.7064    0.0169 O   0  0  0  0  0  0  0  0  0  0  0  0
   -5.1031   -6.8490    0.0686 C   0  0  2  0  0  0  0  0  0  0  0  0
   -8.6485   -5.5540   -3.3302 C   0  0  2  0  0  0  0  0  0  0  0  0
   -7.6207   -6.4509   -2.8822 O   0  0  0  0  0  0  0  0  0  0  0  0
   -8.0207   -7.8282   -2.9989 C   0  0  2  0  0  0  0  0  0  0  0  0
   -6.9903   -8.6989   -2.4872 O   0  0  0  0  0  0  0  0  0  0  0  0
   -8.3382   -8.1791   -4.4627 C   0  0  2  0  0  0  0  0  0  0  0  0
   -7.1167   -8.3467   -5.2285 N   0  3  0  0  0  0  0  0  0  0  0  0
   -9.2597   -7.1568   -5.1382 C   0  0  1  0  0  0  0  0  0  0  0  0
  -10.5955   -7.3729   -4.7116 O   0  0  0  0  0  0  0  0  0  0  0  0
   -8.8516   -5.7185   -4.8310 C   0  0  2  0  0  0  0  0  0  0  0  0
   -7.6528   -5.3950   -5.5258 O   0  0  0  0  0  0  0  0  0  0  0  0
   -8.2911   -4.1111   -2.9853 C   0  0  0  0  0  0  0  0  0  0  0  0
   -8.9806   -3.6928   -1.7792 N   0  3  0  0  0  0  0  0  0  0  0  0
   -5.0739   -2.5926   -1.3960 C   0  0  1  0  0  0  0  0  0  0  0  0
   -3.7444   -2.9044   -0.9297 O   0  0  0  0  0  0  0  0  0  0  0  0
   -3.5030   -2.4870    0.4337 C   0  0  2  0  0  0  0  0  0  0  0  0
   -4.3233   -3.2172    1.3789 O   0  0  0  0  0  0  0  0  0  0  0  0
   -3.7054   -0.9739    0.5795 C   0  0  2  0  0  0  0  0  0  0  0  0
   -3.6682   -0.6019    1.9816 N   0  3  0  0  0  0  0  0  0  0  0  0
   -5.0297   -0.5201   -0.0244 C   0  0  1  0  0  0  0  0  0  0  0  0
   -5.0688    0.8975   -0.0805 O   0  0  0  0  0  0  0  0  0  0  0  0
   -5.2817   -1.0870   -1.4131 C   0  0  2  0  0  0  0  0  0  0  0  0
   -6.6021   -0.7832   -1.8381 O   0  0  0  0  0  0  0  0  0  0  0  0
   -5.2601   -3.1020   -2.8223 C   0  0  0  0  0  0  0  0  0  0  0  0
   -4.1024   -2.7825   -3.6375 N   0  3  0  0  0  0  0  0  0  0  0  0
   -1.2367   -6.1304    1.6726 C   0  0  2  0  0  0  0  0  0  0  0  0
   -1.8549   -5.6161    2.9577 C   0  0  0  0  0  0  0  0  0  0  0  0
   -2.6207   -4.3312    2.7022 C   0  0  1  0  0  0  0  0  0  0  0  0
   -3.7730   -4.5181    1.7141 C   0  0  2  0  0  0  0  0  0  0  0  0
   -3.2909   -5.2330    0.4306 C   0  0  1  0  0  0  0  0  0  0  0  0
   -2.3109   -6.3972    0.6269 C   0  0  1  0  0  0  0  0  0  0  0  0
   -0.5069   -7.3540    1.9449 N   0  3  0  0  0  0  0  0  0  0  0  0
   -3.1112   -3.8157    3.9655 N   0  3  0  0  0  0  0  0  0  0  0  0
   -4.4054   -5.6564   -0.3925 O   0  0  0  0  0  0  0  0  0  0  0  0
   -1.6997   -6.7273   -0.6159 O   0  0  0  0  0  0  0  0  0  0  0  0
  1  2  1  0  0  0  0
  3  2  1  6  0  0  0
  3  4  1  0  0  0  0
  3  5  1  0  0  0  0
  4  8  1  0  0  0  0
  5  6  1  0  0  0  0
  5 12  1  1  0  0  0
  6  7  1  1  0  0  0
  6  8  1  0  0  0  0
  8 41  1  6  0  0  0
  9 10  1  0  0  0  0
  9 17  1  0  0  0  0
  9 19  1  6  0  0  0
 10 11  1  0  0  0  0
 11 12  1  6  0  0  0
 11 13  1  0  0  0  0
 13 14  1  6  0  0  0
 13 15  1  0  0  0  0
 15 16  1  1  0  0  0
 15 17  1  0  0  0  0
 17 18  1  6  0  0  0
 19 20  1  0  0  0  0
 21 22  1  0  0  0  0
 21 29  1  0  0  0  0
 21 31  1  6  0  0  0
 22 23  1  0  0  0  0
 23 24  1  1  0  0  0
 23 25  1  0  0  0  0
 25 26  1  1  0  0  0
 25 27  1  0  0  0  0
 27 28  1  6  0  0  0
 27 29  1  0  0  0  0
 29 30  1  1  0  0  0
 31 32  1  0  0  0  0
 33 34  1  0  0  0  0
 33 38  1  0  0  0  0
 33 39  1  1  0  0  0
 34 35  1  0  0  0  0
 35 36  1  0  0  0  0
 35 40  1  1  0  0  0
 36 24  1  6  0  0  0
 36 37  1  0  0  0  0
 37 38  1  0  0  0  0
 37 41  1  1  0  0  0
 38 42  1  6  0  0  0
M  CHG  6  14   1  20   1  26   1  32   1  39   1  40   1
M  END
>  <CHROM.1>
-163.08281411,57.86164861,168.05722420,55.31267858,-72.06130832,-99.04443029
6.01947097,-154.13333545,-52.37461947,46.26591353,-69.06922992,-44.47296292
81.71789654,77.22789351,-36.77924198,-161.46753566,67.94175132,22.15456966
162.72511542,-104.74288610,-76.89713195,-64.34478233,-5.27832136,-5.25591790
-1.10334115,-2.52744786,-0.74306969,0.15879984

>  <Name>


>  <RI>
0

>  <Rbt.Current_Directory>
/home/itssahil/PROJECTS/Mol_Feturizer/New_Systems/rnas/1qd3

>  <Rbt.Executable>
rbdock ($Id: //depot/dev/client3/rdock/2013.1/src/exe/rbdock.cxx#4 $)

>  <Rbt.Library>
libRbt.so (2013.1, Build901 2013/11/27)

>  <Rbt.Parameter_File>
/export/apps/rDock/src/rDock_2013.1_src/data/scripts/dock_solv.prm

>  <Rbt.Receptor>
prm/blind_docking_100.prm

>  <SCORE>
-22.5533

>  <SCORE.INTER>
-17.4297

>  <SCORE.INTER.CONST>
1

>  <SCORE.INTER.POLAR>
-6.65541

>  <SCORE.INTER.ROT>
9

>  <SCORE.INTER.SOLV>
43.0946

>  <SCORE.INTER.VDW>
-13.3999

>  <SCORE.INTER.norm>
-0.414992

>  <SCORE.INTRA>
-7.39324

>  <SCORE.INTRA.DIHEDRAL>
-8.73827

>  <SCORE.INTRA.DIHEDRAL.0>
40.6252

>  <SCORE.INTRA.POLAR>
0.720428

>  <SCORE.INTRA.POLAR.0>
-1.20161

>  <SCORE.INTRA.REPUL>
-0.000908345

>  <SCORE.INTRA.REPUL.0>
0.115675

>  <SCORE.INTRA.SOLV>
-8.09534

>  <SCORE.INTRA.SOLV.lig_0>
-154.895

>  <SCORE.INTRA.VDW>
-1.42134

>  <SCORE.INTRA.VDW.0>
2.2925

>  <SCORE.INTRA.norm>
-0.176029

>  <SCORE.RESTR>
2.26963

>  <SCORE.RESTR.CAVITY>
2.26963

>  <SCORE.RESTR.norm>
0.0540389

>  <SCORE.SYSTEM>
0

>  <SCORE.SYSTEM.CONST>
0

>  <SCORE.SYSTEM.DIHEDRAL>
0

>  <SCORE.SYSTEM.SOLV>
0

>  <SCORE.SYSTEM.norm>
0

>  <SCORE.heavy>
42

>  <SCORE.norm>
-0.536982

>  <RMSD>
14.641

$$$$

 OpenBabel11021811413D
libRbt.so/2013.1/901 2013/11/27
 42 45  0  0  0  0  0  0  0  0999 V2000
   -7.3936   -4.5522   -4.4095 O   0  0  0  0  0  0  0  0  0  0  0  0
   -7.5629   -4.6621   -3.0035 C   0  0  0  0  0  0  0  0  0  0  0  0
   -6.1966   -4.7591   -2.3236 C   0  0  1  0  0  0  0  0  0  0  0  0
   -5.6965   -3.4535   -1.9614 O   0  0  0  0  0  0  0  0  0  0  0  0
   -6.2195   -5.5646   -1.0352 C   0  0  2  0  0  0  0  0  0  0  0  0
   -4.9417   -5.0715   -0.3773 C   0  0  1  0  0  0  0  0  0  0  0  0
   -3.8160   -5.6942   -0.9862 O   0  0  0  0  0  0  0  0  0  0  0  0
   -4.9573   -3.5676   -0.7191 C   0  0  2  0  0  0  0  0  0  0  0  0
   -8.1660   -7.8338   -4.2509 C   0  0  2  0  0  0  0  0  0  0  0  0
   -7.0295   -7.4527   -3.4606 O   0  0  0  0  0  0  0  0  0  0  0  0
   -7.3373   -7.4238   -2.0552 C   0  0  2  0  0  0  0  0  0  0  0  0
   -6.1928   -6.9818   -1.2961 O   0  0  0  0  0  0  0  0  0  0  0  0
   -7.7961   -8.8101   -1.5713 C   0  0  2  0  0  0  0  0  0  0  0  0
   -6.6631   -9.7052   -1.4245 N   0  3  0  0  0  0  0  0  0  0  0  0
   -8.8632   -9.4381   -2.4756 C   0  0  1  0  0  0  0  0  0  0  0  0
  -10.1206   -8.8383   -2.2068 O   0  0  0  0  0  0  0  0  0  0  0  0
   -8.5297   -9.2836   -3.9569 C   0  0  2  0  0  0  0  0  0  0  0  0
   -7.4472  -10.1399   -4.3028 O   0  0  0  0  0  0  0  0  0  0  0  0
   -7.8787   -7.6362   -5.7365 C   0  0  0  0  0  0  0  0  0  0  0  0
   -9.1099   -7.6894   -6.5021 N   0  3  0  0  0  0  0  0  0  0  0  0
   -2.3997   -6.1804    3.9319 C   0  0  1  0  0  0  0  0  0  0  0  0
   -2.5978   -6.0394    2.5096 O   0  0  0  0  0  0  0  0  0  0  0  0
   -3.9315   -5.6050    2.1574 C   0  0  2  0  0  0  0  0  0  0  0  0
   -4.2068   -4.2616    2.6256 O   0  0  0  0  0  0  0  0  0  0  0  0
   -4.9783   -6.5974    2.6780 C   0  0  2  0  0  0  0  0  0  0  0  0
   -6.3104   -6.0484    2.5052 N   0  3  0  0  0  0  0  0  0  0  0  0
   -4.7599   -6.9286    4.1501 C   0  0  1  0  0  0  0  0  0  0  0  0
   -5.5921   -8.0158    4.5239 O   0  0  0  0  0  0  0  0  0  0  0  0
   -3.3138   -7.2631    4.4819 C   0  0  2  0  0  0  0  0  0  0  0  0
   -3.1432   -7.3758    5.8872 O   0  0  0  0  0  0  0  0  0  0  0  0
   -0.9607   -6.5989    4.2199 C   0  0  0  0  0  0  0  0  0  0  0  0
   -0.6447   -6.4198    5.6251 N   0  3  0  0  0  0  0  0  0  0  0  0
   -3.0543   -0.2898    1.6278 C   0  0  2  0  0  0  0  0  0  0  0  0
   -1.9594   -1.3154    1.8452 C   0  0  0  0  0  0  0  0  0  0  0  0
   -2.5061   -2.5310    2.5706 C   0  0  1  0  0  0  0  0  0  0  0  0
   -3.6106   -3.2393    1.7849 C   0  0  2  0  0  0  0  0  0  0  0  0
   -4.6941   -2.2360    1.3265 C   0  0  1  0  0  0  0  0  0  0  0  0
   -4.1924   -0.8819    0.8077 C   0  0  1  0  0  0  0  0  0  0  0  0
   -2.5053    0.8626    0.9389 N   0  3  0  0  0  0  0  0  0  0  0  0
   -1.4145   -3.4433    2.8505 N   0  3  0  0  0  0  0  0  0  0  0  0
   -5.5972   -2.8323    0.3632 O   0  0  0  0  0  0  0  0  0  0  0  0
   -5.2737    0.0424    0.7494 O   0  0  0  0  0  0  0  0  0  0  0  0
  1  2  1  0  0  0  0
  3  2  1  1  0  0  0
  3  4  1  0  0  0  0
  3  5  1  0  0  0  0
  4  8  1  0  0  0  0
  5  6  1  0  0  0  0
  5 12  1  6  0  0  0
  6  7  1  6  0  0  0
  6  8  1  0  0  0  0
  8 41  1  1  0  0  0
  9 10  1  0  0  0  0
  9 17  1  0  0  0  0
  9 19  1  6  0  0  0
 10 11  1  0  0  0  0
 11 12  1  1  0  0  0
 11 13  1  0  0  0  0
 13 14  1  6  0  0  0
 13 15  1  0  0  0  0
 15 16  1  6  0  0  0
 15 17  1  0  0  0  0
 17 18  1  1  0  0  0
 19 20  1  0  0  0  0
 21 22  1  0  0  0  0
 21 29  1  0  0  0  0
 21 31  1  6  0  0  0
 22 23  1  0  0  0  0
 23 24  1  1  0  0  0
 23 25  1  0  0  0  0
 25 26  1  1  0  0  0
 25 27  1  0  0  0  0
 27 28  1  6  0  0  0
 27 29  1  0  0  0  0
 29 30  1  1  0  0  0
 31 32  1  0  0  0  0
 33 34  1  0  0  0  0
 33 38  1  0  0  0  0
 33 39  1  6  0  0  0
 34 35  1  0  0  0  0
 35 36  1  0  0  0  0
 35 40  1  6  0  0  0
 36 24  1  1  0  0  0
 36 37  1  0  0  0  0
 37 38  1  0  0  0  0
 37 41  1  6  0  0  0
 38 42  1  1  0  0  0
M  CHG  6  14   1  20   1  26   1  32   1  39   1  40   1
M  END
>  <CHROM.1>
-42.36040571,90.91077579,-61.36286341,-175.15640939,-146.01690612,-165.47241473
94.42277829,-148.17526017,-173.81378341,-176.25082732,-85.86168424,165.56696858
78.41867426,-112.39263069,-148.32443506,-161.48965413,74.94528443,60.18165435
27.27709862,129.33592509,-47.11463538,63.63542953,-5.23176170,-5.53941748
0.14101240,3.09411310,0.98818405,2.67136201

>  <Name>


>  <RI>
0

>  <Rbt.Current_Directory>
/home/itssahil/PROJECTS/Mol_Feturizer/New_Systems/rnas/1qd3

>  <Rbt.Executable>
rbdock ($Id: //depot/dev/client3/rdock/2013.1/src/exe/rbdock.cxx#4 $)

>  <Rbt.Library>
libRbt.so (2013.1, Build901 2013/11/27)

>  <Rbt.Parameter_File>
/export/apps/rDock/src/rDock_2013.1_src/data/scripts/dock_solv.prm

>  <Rbt.Receptor>
prm/blind_docking_60.prm

>  <SCORE>
-53.9607

>  <SCORE.INTER>
-45.103

>  <SCORE.INTER.CONST>
1

>  <SCORE.INTER.POLAR>
-5.84018

>  <SCORE.INTER.ROT>
9

>  <SCORE.INTER.SOLV>
26.9493

>  <SCORE.INTER.VDW>
-29.1845

>  <SCORE.INTER.norm>
-1.07388

>  <SCORE.INTRA>
-10.1276

>  <SCORE.INTRA.DIHEDRAL>
-3.83974

>  <SCORE.INTRA.DIHEDRAL.0>
40.6252

>  <SCORE.INTRA.POLAR>
0.00623281

>  <SCORE.INTRA.POLAR.0>
-1.20161

>  <SCORE.INTRA.REPUL>
-0.115675

>  <SCORE.INTRA.REPUL.0>
0.115675

>  <SCORE.INTRA.SOLV>
-3.88619

>  <SCORE.INTRA.SOLV.lig_0>
-154.895

>  <SCORE.INTRA.VDW>
-5.70745

>  <SCORE.INTRA.VDW.0>
2.2925

>  <SCORE.INTRA.norm>
-0.241133

>  <SCORE.RESTR>
1.26989

>  <SCORE.RESTR.CAVITY>
1.26989

>  <SCORE.RESTR.norm>
0.0302354

>  <SCORE.SYSTEM>
0

>  <SCORE.SYSTEM.CONST>
0

>  <SCORE.SYSTEM.DIHEDRAL>
0

>  <SCORE.SYSTEM.SOLV>
0

>  <SCORE.SYSTEM.norm>
0

>  <SCORE.heavy>
42

>  <SCORE.norm>
-1.28478

>  <RMSD>
14.641

$$$$

 OpenBabel11021811413D
libRbt.so/2013.1/901 2013/11/27
 42 45  0  0  0  0  0  0  0  0999 V2000
   -1.3928   -0.9225    0.9688 O   0  0  0  0  0  0  0  0  0  0  0  0
   -2.7621   -1.2840    0.8583 C   0  0  0  0  0  0  0  0  0  0  0  0
   -3.0531   -1.7828   -0.5577 C   0  0  1  0  0  0  0  0  0  0  0  0
   -2.8550   -3.2094   -0.6628 O   0  0  0  0  0  0  0  0  0  0  0  0
   -4.4836   -1.5303   -1.0042 C   0  0  2  0  0  0  0  0  0  0  0  0
   -4.5982   -2.5284   -2.1442 C   0  0  1  0  0  0  0  0  0  0  0  0
   -3.9333   -2.0212   -3.2960 O   0  0  0  0  0  0  0  0  0  0  0  0
   -3.8316   -3.7467   -1.5905 C   0  0  2  0  0  0  0  0  0  0  0  0
   -2.6481    2.8039   -0.7942 C   0  0  2  0  0  0  0  0  0  0  0  0
   -3.4858    1.8799   -1.5055 O   0  0  0  0  0  0  0  0  0  0  0  0
   -3.8783    0.7667   -0.6824 C   0  0  2  0  0  0  0  0  0  0  0  0
   -4.6693   -0.1701   -1.4428 O   0  0  0  0  0  0  0  0  0  0  0  0
   -4.6624    1.2519    0.5489 C   0  0  2  0  0  0  0  0  0  0  0  0
   -6.0203    1.6130    0.1852 N   0  3  0  0  0  0  0  0  0  0  0  0
   -3.9753    2.4122    1.2786 C   0  0  1  0  0  0  0  0  0  0  0  0
   -2.9028    1.9085    2.0590 O   0  0  0  0  0  0  0  0  0  0  0  0
   -3.4513    3.4727    0.3141 C   0  0  2  0  0  0  0  0  0  0  0  0
   -4.5385    4.2034   -0.2415 O   0  0  0  0  0  0  0  0  0  0  0  0
   -2.0653    3.8443   -1.7464 C   0  0  0  0  0  0  0  0  0  0  0  0
   -1.9299    5.1243   -1.0769 N   0  3  0  0  0  0  0  0  0  0  0  0
   -4.5399   -5.7153    1.8717 C   0  0  1  0  0  0  0  0  0  0  0  0
   -3.4072   -4.9685    1.3804 O   0  0  0  0  0  0  0  0  0  0  0  0
   -2.2987   -5.8064    0.9800 C   0  0  2  0  0  0  0  0  0  0  0  0
   -2.6261   -6.6295   -0.1668 O   0  0  0  0  0  0  0  0  0  0  0  0
   -1.8170   -6.6640    2.1565 C   0  0  2  0  0  0  0  0  0  0  0  0
   -0.8531   -7.6447    1.6928 N   0  3  0  0  0  0  0  0  0  0  0  0
   -2.9733   -7.3833    2.8422 C   0  0  1  0  0  0  0  0  0  0  0  0
   -2.5213   -7.9680    4.0538 O   0  0  0  0  0  0  0  0  0  0  0  0
   -4.1580   -6.4746    3.1319 C   0  0  2  0  0  0  0  0  0  0  0  0
   -5.2634   -7.2370    3.5939 O   0  0  0  0  0  0  0  0  0  0  0  0
   -5.6770   -4.7633    2.2313 C   0  0  0  0  0  0  0  0  0  0  0  0
   -5.8106   -3.7207    1.2303 N   0  3  0  0  0  0  0  0  0  0  0  0
   -6.1494   -7.9962   -2.1207 C   0  0  2  0  0  0  0  0  0  0  0  0
   -5.6673   -8.7619   -0.9044 C   0  0  0  0  0  0  0  0  0  0  0  0
   -4.2268   -8.4045   -0.5878 C   0  0  1  0  0  0  0  0  0  0  0  0
   -4.0449   -6.9211   -0.2635 C   0  0  2  0  0  0  0  0  0  0  0  0
   -4.6923   -6.0333   -1.3515 C   0  0  1  0  0  0  0  0  0  0  0  0
   -6.0550   -6.4949   -1.8848 C   0  0  1  0  0  0  0  0  0  0  0  0
   -7.5246   -8.3595   -2.4049 N   0  3  0  0  0  0  0  0  0  0  0  0
   -3.7685   -9.2272    0.5147 N   0  3  0  0  0  0  0  0  0  0  0  0
   -4.7671   -4.6485   -0.9324 O   0  0  0  0  0  0  0  0  0  0  0  0
   -6.3620   -5.7995   -3.0887 O   0  0  0  0  0  0  0  0  0  0  0  0
  1  2  1  0  0  0  0
  3  2  1  1  0  0  0
  3  4  1  0  0  0  0
  3  5  1  0  0  0  0
  4  8  1  0  0  0  0
  5  6  1  0  0  0  0
  5 12  1  6  0  0  0
  6  7  1  6  0  0  0
  6  8  1  0  0  0  0
  8 41  1  1  0  0  0
  9 10  1  0  0  0  0
  9 17  1  0  0  0  0
  9 19  1  6  0  0  0
 10 11  1  0  0  0  0
 11 12  1  6  0  0  0
 11 13  1  0  0  0  0
 13 14  1  6  0  0  0
 13 15  1  0  0  0  0
 15 16  1  6  0  0  0
 15 17  1  0  0  0  0
 17 18  1  6  0  0  0
 19 20  1  0  0  0  0
 21 22  1  0  0  0  0
 21 29  1  0  0  0  0
 21 31  1  1  0  0  0
 22 23  1  0  0  0  0
 23 24  1  6  0  0  0
 23 25  1  0  0  0  0
 25 26  1  6  0  0  0
 25 27  1  0  0  0  0
 27 28  1  1  0  0  0
 27 29  1  0  0  0  0
 29 30  1  6  0  0  0
 31 32  1  0  0  0  0
 33 34  1  0  0  0  0
 33 38  1  0  0  0  0
 33 39  1  1  0  0  0
 34 35  1  0  0  0  0
 35 36  1  0  0  0  0
 35 40  1  1  0  0  0
 36 24  1  6  0  0  0
 36 37  1  0  0  0  0
 37 38  1  0  0  0  0
 37 41  1  1  0  0  0
 38 42  1  6  0  0  0
M  CHG  6  14   1  20   1  26   1  32   1  39   1  40   1
M  END
>  <CHROM.1>
61.74217597,90.11699349,-35.08424856,-54.72601991,-114.27926356,146.09083529
148.14266163,57.48646215,165.65224657,179.91768755,176.36486193,41.74864855
-27.24355404,-135.29696686,-5.80525332,61.92976324,-168.43034684,-58.77428840
-165.37356958,86.07153628,107.11456698,-172.11517879,-3.96023878,-3.19675945
0.04243132,-1.41108706,0.99482925,2.91367537

>  <Name>


>  <RI>
0

>  <Rbt.Current_Directory>
/home/itssahil/PROJECTS/Mol_Feturizer/New_Systems/rnas/1qd3

>  <Rbt.Executable>
rbdock ($Id: //depot/dev/client3/rdock/2013.1/src/exe/rbdock.cxx#4 $)

>  <Rbt.Library>
libRbt.so (2013.1, Build901 2013/11/27)

>  <Rbt.Parameter_File>
/export/apps/rDock/src/rDock_2013.1_src/data/scripts/dock_solv.prm

>  <Rbt.Receptor>
prm/blind_docking_20.prm

>  <SCORE>
-53.6056

>  <SCORE.INTER>
-58.0225

>  <SCORE.INTER.CONST>
1

>  <SCORE.INTER.POLAR>
-8.73189

>  <SCORE.INTER.ROT>
9

>  <SCORE.INTER.SOLV>
31.1137

>  <SCORE.INTER.VDW>
-29.5466

>  <SCORE.INTER.norm>
-1.38149

>  <SCORE.INTRA>
2.13238

>  <SCORE.INTRA.DIHEDRAL>
5.04729

>  <SCORE.INTRA.DIHEDRAL.0>
40.6252

>  <SCORE.INTRA.POLAR>
-0.0367729

>  <SCORE.INTRA.POLAR.0>
-1.20161

>  <SCORE.INTRA.REPUL>
-0.0574328

>  <SCORE.INTRA.REPUL.0>
0.115675

>  <SCORE.INTRA.SOLV>
1.46953

>  <SCORE.INTRA.SOLV.lig_0>
-154.895

>  <SCORE.INTRA.VDW>
-0.713836

>  <SCORE.INTRA.VDW.0>
2.2925

>  <SCORE.INTRA.norm>
0.050771

>  <SCORE.RESTR>
2.28453

>  <SCORE.RESTR.CAVITY>
2.28453

>  <SCORE.RESTR.norm>
0.0543937

>  <SCORE.SYSTEM>
0

>  <SCORE.SYSTEM.CONST>
0

>  <SCORE.SYSTEM.DIHEDRAL>
0

>  <SCORE.SYSTEM.SOLV>
0

>  <SCORE.SYSTEM.norm>
0

>  <SCORE.heavy>
42

>  <SCORE.norm>
-1.27632

>  <RMSD>
14.642

$$$$

 OpenBabel11021811413D
libRbt.so/2013.1/901 2013/11/27
 42 45  0  0  0  0  0  0  0  0999 V2000
   -2.3584   -4.5383   -0.8263 O   0  0  0  0  0  0  0  0  0  0  0  0
   -3.2795   -3.6404   -1.4289 C   0  0  0  0  0  0  0  0  0  0  0  0
   -4.7097   -4.1191   -1.1762 C   0  0  1  0  0  0  0  0  0  0  0  0
   -4.8400   -5.5363   -1.4214 O   0  0  0  0  0  0  0  0  0  0  0  0
   -5.1744   -3.9029    0.2544 C   0  0  2  0  0  0  0  0  0  0  0  0
   -6.3358   -4.8806    0.3192 C   0  0  1  0  0  0  0  0  0  0  0  0
   -7.4662   -4.3292   -0.3472 O   0  0  0  0  0  0  0  0  0  0  0  0
   -5.7940   -6.0851   -0.4772 C   0  0  2  0  0  0  0  0  0  0  0  0
   -3.8540    0.6721    0.6172 C   0  0  2  0  0  0  0  0  0  0  0  0
   -4.8976   -0.2980    0.7935 O   0  0  0  0  0  0  0  0  0  0  0  0
   -4.4996   -1.6043    0.3396 C   0  0  2  0  0  0  0  0  0  0  0  0
   -5.5887   -2.5406    0.4766 O   0  0  0  0  0  0  0  0  0  0  0  0
   -3.2691   -2.0984    1.1194 C   0  0  2  0  0  0  0  0  0  0  0  0
   -3.6468   -2.5460    2.4473 N   0  3  0  0  0  0  0  0  0  0  0  0
   -2.1520   -1.0516    1.2029 C   0  0  1  0  0  0  0  0  0  0  0  0
   -1.4536   -1.0087   -0.0314 O   0  0  0  0  0  0  0  0  0  0  0  0
   -2.6859    0.3387    1.5365 C   0  0  2  0  0  0  0  0  0  0  0  0
   -3.1037    0.3851    2.8958 O   0  0  0  0  0  0  0  0  0  0  0  0
   -4.3763    2.0797    0.8909 C   0  0  0  0  0  0  0  0  0  0  0  0
   -3.2724    3.0079    1.0485 N   0  3  0  0  0  0  0  0  0  0  0  0
   -3.2379   -7.8312    3.9037 C   0  0  1  0  0  0  0  0  0  0  0  0
   -3.7692   -6.9853    2.8624 O   0  0  0  0  0  0  0  0  0  0  0  0
   -2.7856   -6.6121    1.8700 C   0  0  2  0  0  0  0  0  0  0  0  0
   -2.3201   -7.7545    1.1098 O   0  0  0  0  0  0  0  0  0  0  0  0
   -1.6144   -5.8681    2.5231 C   0  0  2  0  0  0  0  0  0  0  0  0
   -0.5440   -5.6869    1.5603 N   0  3  0  0  0  0  0  0  0  0  0  0
   -1.0754   -6.6172    3.7366 C   0  0  1  0  0  0  0  0  0  0  0  0
   -0.1629   -5.7903    4.4423 O   0  0  0  0  0  0  0  0  0  0  0  0
   -2.1672   -7.0875    4.6853 C   0  0  2  0  0  0  0  0  0  0  0  0
   -1.6205   -7.9333    5.6865 O   0  0  0  0  0  0  0  0  0  0  0  0
   -4.3449   -8.2126    4.8823 C   0  0  0  0  0  0  0  0  0  0  0  0
   -4.4835   -7.2065    5.9193 N   0  3  0  0  0  0  0  0  0  0  0  0
   -4.5969  -10.3078   -1.4192 C   0  0  2  0  0  0  0  0  0  0  0  0
   -3.8016  -10.9434   -0.2959 C   0  0  0  0  0  0  0  0  0  0  0  0
   -2.7604   -9.9742    0.2326 C   0  0  1  0  0  0  0  0  0  0  0  0
   -3.3796   -8.7005    0.8098 C   0  0  2  0  0  0  0  0  0  0  0  0
   -4.3811   -8.0715   -0.1863 C   0  0  1  0  0  0  0  0  0  0  0  0
   -5.2992   -9.0462   -0.9356 C   0  0  1  0  0  0  0  0  0  0  0  0
   -5.5797  -11.2552   -1.9097 N   0  3  0  0  0  0  0  0  0  0  0  0
   -1.9545  -10.6474    1.2324 N   0  3  0  0  0  0  0  0  0  0  0  0
   -5.1695   -7.0293    0.4393 O   0  0  0  0  0  0  0  0  0  0  0  0
   -5.9085   -8.3832   -2.0384 O   0  0  0  0  0  0  0  0  0  0  0  0
  1  2  1  0  0  0  0
  3  2  1  1  0  0  0
  3  4  1  0  0  0  0
  3  5  1  0  0  0  0
  4  8  1  0  0  0  0
  5  6  1  0  0  0  0
  5 12  1  6  0  0  0
  6  7  1  6  0  0  0
  6  8  1  0  0  0  0
  8 41  1  1  0  0  0
  9 10  1  0  0  0  0
  9 17  1  0  0  0  0
  9 19  1  1  0  0  0
 10 11  1  0  0  0  0
 11 12  1  1  0  0  0
 11 13  1  0  0  0  0
 13 14  1  1  0  0  0
 13 15  1  0  0  0  0
 15 16  1  6  0  0  0
 15 17  1  0  0  0  0
 17 18  1  1  0  0  0
 19 20  1  0  0  0  0
 21 22  1  0  0  0  0
 21 29  1  0  0  0  0
 21 31  1  1  0  0  0
 22 23  1  0  0  0  0
 23 24  1  1  0  0  0
 23 25  1  0  0  0  0
 25 26  1  6  0  0  0
 25 27  1  0  0  0  0
 27 28  1  1  0  0  0
 27 29  1  0  0  0  0
 29 30  1  1  0  0  0
 31 32  1  0  0  0  0
 33 34  1  0  0  0  0
 33 38  1  0  0  0  0
 33 39  1  1  0  0  0
 34 35  1  0  0  0  0
 35 36  1  0  0  0  0
 35 40  1  1  0  0  0
 36 24  1  6  0  0  0
 36 37  1  0  0  0  0
 37 38  1  0  0  0  0
 37 41  1  1  0  0  0
 38 42  1  6  0  0  0
M  CHG  6  14   1  20   1  26   1  32   1  39   1  40   1
M  END
>  <CHROM.1>
-175.78680179,-45.64392559,-64.63112027,-45.92393861,-51.10711825,165.48509950
-169.98212573,24.52537694,-74.49197020,46.67589387,-174.65461630,-86.92365962
38.56873657,-170.05931418,-130.31926193,63.02073523,63.65455927,173.39770701
-62.96932078,-50.89771456,159.93920012,-58.78358165,-3.64228815,-5.21054243
1.15178749,1.53945050,-1.00243042,-0.01880169

>  <Name>


>  <RI>
0

>  <Rbt.Current_Directory>
/home/itssahil/PROJECTS/Mol_Feturizer/New_Systems/rnas/1qd3

>  <Rbt.Executable>
rbdock ($Id: //depot/dev/client3/rdock/2013.1/src/exe/rbdock.cxx#4 $)

>  <Rbt.Library>
libRbt.so (2013.1, Build901 2013/11/27)

>  <Rbt.Parameter_File>
/export/apps/rDock/src/rDock_2013.1_src/data/scripts/dock_solv.prm

>  <Rbt.Receptor>
prm/blind_docking_80.prm

>  <SCORE>
-64.7013

>  <SCORE.INTER>
-51.3067

>  <SCORE.INTER.CONST>
1

>  <SCORE.INTER.POLAR>
-7.07615

>  <SCORE.INTER.ROT>
9

>  <SCORE.INTER.SOLV>
32.3745

>  <SCORE.INTER.VDW>
-31.0088

>  <SCORE.INTER.norm>
-1.22159

>  <SCORE.INTRA>
-14.2907

>  <SCORE.INTRA.DIHEDRAL>
-20.7647

>  <SCORE.INTRA.DIHEDRAL.0>
40.6252

>  <SCORE.INTRA.POLAR>
1.04248

>  <SCORE.INTRA.POLAR.0>
-1.20161

>  <SCORE.INTRA.REPUL>
-0.114932

>  <SCORE.INTRA.REPUL.0>
0.115675

>  <SCORE.INTRA.SOLV>
-6.11005

>  <SCORE.INTRA.SOLV.lig_0>
-154.895

>  <SCORE.INTRA.VDW>
-3.82304

>  <SCORE.INTRA.VDW.0>
2.2925

>  <SCORE.INTRA.norm>
-0.340254

>  <SCORE.RESTR>
0.896071

>  <SCORE.RESTR.CAVITY>
0.896071

>  <SCORE.RESTR.norm>
0.021335

>  <SCORE.SYSTEM>
0

>  <SCORE.SYSTEM.CONST>
0

>  <SCORE.SYSTEM.DIHEDRAL>
0

>  <SCORE.SYSTEM.SOLV>
0

>  <SCORE.SYSTEM.norm>
0

>  <SCORE.heavy>
42

>  <SCORE.norm>
-1.54051

>  <RMSD>
14.654

$$$$

 OpenBabel11021811413D
libRbt.so/2013.1/901 2013/11/27
 42 45  0  0  0  0  0  0  0  0999 V2000
   -6.0511   -3.9542    2.9501 O   0  0  0  0  0  0  0  0  0  0  0  0
   -4.9447   -3.4092    2.2456 C   0  0  0  0  0  0  0  0  0  0  0  0
   -3.7139   -3.3859    3.1529 C   0  0  1  0  0  0  0  0  0  0  0  0
   -3.4075   -4.7044    3.6560 O   0  0  0  0  0  0  0  0  0  0  0  0
   -2.4543   -2.9093    2.4488 C   0  0  2  0  0  0  0  0  0  0  0  0
   -1.3897   -3.4589    3.3835 C   0  0  1  0  0  0  0  0  0  0  0  0
   -1.2974   -2.6382    4.5427 O   0  0  0  0  0  0  0  0  0  0  0  0
   -1.9674   -4.8378    3.7623 C   0  0  2  0  0  0  0  0  0  0  0  0
   -3.6799   -1.4395   -1.0748 C   0  0  2  0  0  0  0  0  0  0  0  0
   -3.5251   -1.8420    0.2947 O   0  0  0  0  0  0  0  0  0  0  0  0
   -2.5889   -1.0057    0.9983 C   0  0  2  0  0  0  0  0  0  0  0  0
   -2.4130   -1.4720    2.3522 O   0  0  0  0  0  0  0  0  0  0  0  0
   -3.0599    0.4587    0.9946 C   0  0  2  0  0  0  0  0  0  0  0  0
   -4.1344    0.6563    1.9500 N   0  3  0  0  0  0  0  0  0  0  0  0
   -3.4802    0.9501   -0.3956 C   0  0  1  0  0  0  0  0  0  0  0  0
   -2.3223    1.2357   -1.1640 O   0  0  0  0  0  0  0  0  0  0  0  0
   -4.3440   -0.0697   -1.1327 C   0  0  2  0  0  0  0  0  0  0  0  0
   -5.6375   -0.1272   -0.5429 O   0  0  0  0  0  0  0  0  0  0  0  0
   -4.4943   -2.4714   -1.8499 C   0  0  0  0  0  0  0  0  0  0  0  0
   -4.2690   -2.3273   -3.2759 N   0  3  0  0  0  0  0  0  0  0  0  0
   -4.2794   -9.6744   -0.6498 C   0  0  1  0  0  0  0  0  0  0  0  0
   -3.0128   -8.9918   -0.7579 O   0  0  0  0  0  0  0  0  0  0  0  0
   -2.9902   -7.7152   -0.0786 C   0  0  2  0  0  0  0  0  0  0  0  0
   -3.1224   -7.8611    1.3570 O   0  0  0  0  0  0  0  0  0  0  0  0
   -4.0711   -6.7844   -0.6416 C   0  0  2  0  0  0  0  0  0  0  0  0
   -4.1785   -5.5947    0.1823 N   0  3  0  0  0  0  0  0  0  0  0  0
   -5.4303   -7.4720   -0.7082 C   0  0  1  0  0  0  0  0  0  0  0  0
   -6.3374   -6.6673   -1.4457 O   0  0  0  0  0  0  0  0  0  0  0  0
   -5.3707   -8.8606   -1.3260 C   0  0  2  0  0  0  0  0  0  0  0  0
   -6.6226   -9.5164   -1.1878 O   0  0  0  0  0  0  0  0  0  0  0  0
   -4.2061  -11.0261   -1.3541 C   0  0  0  0  0  0  0  0  0  0  0  0
   -3.2185  -10.9988   -2.4175 N   0  3  0  0  0  0  0  0  0  0  0  0
   -0.6613   -9.1536    4.5775 C   0  0  2  0  0  0  0  0  0  0  0  0
   -0.6287   -9.9544    3.2908 C   0  0  0  0  0  0  0  0  0  0  0  0
   -1.8260   -9.6145    2.4226 C   0  0  1  0  0  0  0  0  0  0  0  0
   -1.8580   -8.1414    2.0129 C   0  0  2  0  0  0  0  0  0  0  0  0
   -1.6874   -7.2209    3.2436 C   0  0  1  0  0  0  0  0  0  0  0  0
   -0.6476   -7.6597    4.2831 C   0  0  1  0  0  0  0  0  0  0  0  0
    0.4888   -9.5008    5.3904 N   0  3  0  0  0  0  0  0  0  0  0  0
   -1.8167  -10.4691    1.2514 N   0  3  0  0  0  0  0  0  0  0  0  0
   -1.4467   -5.8474    2.8507 O   0  0  0  0  0  0  0  0  0  0  0  0
   -0.8365   -6.9305    5.4912 O   0  0  0  0  0  0  0  0  0  0  0  0
  1  2  1  0  0  0  0
  3  2  1  6  0  0  0
  3  4  1  0  0  0  0
  3  5  1  0  0  0  0
  4  8  1  0  0  0  0
  5  6  1  0  0  0  0
  5 12  1  1  0  0  0
  6  7  1  1  0  0  0
  6  8  1  0  0  0  0
  8 41  1  6  0  0  0
  9 10  1  0  0  0  0
  9 17  1  0  0  0  0
  9 19  1  6  0  0  0
 10 11  1  0  0  0  0
 11 12  1  1  0  0  0
 11 13  1  0  0  0  0
 13 14  1  1  0  0  0
 13 15  1  0  0  0  0
 15 16  1  6  0  0  0
 15 17  1  0  0  0  0
 17 18  1  1  0  0  0
 19 20  1  0  0  0  0
 21 22  1  0  0  0  0
 21 29  1  0  0  0  0
 21 31  1  6  0  0  0
 22 23  1  0  0  0  0
 23 24  1  1  0  0  0
 23 25  1  0  0  0  0
 25 26  1  1  0  0  0
 25 27  1  0  0  0  0
 27 28  1  6  0  0  0
 27 29  1  0  0  0  0
 29 30  1  1  0  0  0
 31 32  1  0  0  0  0
 33 34  1  0  0  0  0
 33 38  1  0  0  0  0
 33 39  1  1  0  0  0
 34 35  1  0  0  0  0
 35 36  1  0  0  0  0
 35 40  1  6  0  0  0
 36 24  1  1  0  0  0
 36 37  1  0  0  0  0
 37 38  1  0  0  0  0
 37 41  1  6  0  0  0
 38 42  1  1  0  0  0
M  CHG  6  14   1  20   1  26   1  32   1  39   1  40   1
M  END
>  <CHROM.1>
-68.83272793,56.72629897,-110.05166837,-87.17462980,-74.96443209,-160.28061070
36.12960491,-82.80735390,-167.80757672,-64.41720982,156.02790605,-27.09614323
83.95451645,-105.59804594,-167.84697630,-145.01529157,-60.04819288,-40.87367485
-168.86768128,-78.03989823,148.16751840,61.18496766,-3.18969240,-5.28853958
1.15237739,-1.81976390,1.00582412,-3.05105831

>  <Name>


>  <RI>
0

>  <Rbt.Current_Directory>
/home/itssahil/PROJECTS/Mol_Feturizer/New_Systems/rnas/1qd3

>  <Rbt.Executable>
rbdock ($Id: //depot/dev/client3/rdock/2013.1/src/exe/rbdock.cxx#4 $)

>  <Rbt.Library>
libRbt.so (2013.1, Build901 2013/11/27)

>  <Rbt.Parameter_File>
/export/apps/rDock/src/rDock_2013.1_src/data/scripts/dock_solv.prm

>  <Rbt.Receptor>
prm/blind_docking_80.prm

>  <SCORE>
-39.7131

>  <SCORE.INTER>
-34.4316

>  <SCORE.INTER.CONST>
1

>  <SCORE.INTER.POLAR>
-3.54955

>  <SCORE.INTER.ROT>
9

>  <SCORE.INTER.SOLV>
26.4508

>  <SCORE.INTER.VDW>
-29.5395

>  <SCORE.INTER.norm>
-0.819799

>  <SCORE.INTRA>
-7.66382

>  <SCORE.INTRA.DIHEDRAL>
0.784936

>  <SCORE.INTRA.DIHEDRAL.0>
40.6252

>  <SCORE.INTRA.POLAR>
0.47927

>  <SCORE.INTRA.POLAR.0>
-1.20161

>  <SCORE.INTRA.REPUL>
-0.115675

>  <SCORE.INTRA.REPUL.0>
0.115675

>  <SCORE.INTRA.SOLV>
-1.51266

>  <SCORE.INTRA.SOLV.lig_0>
-154.895

>  <SCORE.INTRA.VDW>
-8.3511

>  <SCORE.INTRA.VDW.0>
2.2925

>  <SCORE.INTRA.norm>
-0.182472

>  <SCORE.RESTR>
2.38229

>  <SCORE.RESTR.CAVITY>
2.38229

>  <SCORE.RESTR.norm>
0.0567213

>  <SCORE.SYSTEM>
0

>  <SCORE.SYSTEM.CONST>
0

>  <SCORE.SYSTEM.DIHEDRAL>
0

>  <SCORE.SYSTEM.SOLV>
0

>  <SCORE.SYSTEM.norm>
0

>  <SCORE.heavy>
42

>  <SCORE.norm>
-0.945549

>  <RMSD>
14.670

$$$$

 OpenBabel11021811413D
libRbt.so/2013.1/901 2013/11/27
 42 45  0  0  0  0  0  0  0  0999 V2000
   -5.5627   -4.6505    1.7336 O   0  0  0  0  0  0  0  0  0  0  0  0
   -4.5781   -3.7273    1.2910 C   0  0  0  0  0  0  0  0  0  0  0  0
   -3.5652   -4.4408    0.3948 C   0  0  1  0  0  0  0  0  0  0  0  0
   -3.0083   -5.6002    1.0514 O   0  0  0  0  0  0  0  0  0  0  0  0
   -4.1639   -4.9503   -0.9058 C   0  0  2  0  0  0  0  0  0  0  0  0
   -3.1261   -5.9875   -1.3009 C   0  0  1  0  0  0  0  0  0  0  0  0
   -1.9813   -5.3395   -1.8444 O   0  0  0  0  0  0  0  0  0  0  0  0
   -2.7708   -6.6280    0.0563 C   0  0  2  0  0  0  0  0  0  0  0  0
   -7.3329   -5.3051   -3.3267 C   0  0  2  0  0  0  0  0  0  0  0  0
   -6.3645   -4.9402   -2.3315 O   0  0  0  0  0  0  0  0  0  0  0  0
   -5.2691   -4.1961   -2.8947 C   0  0  2  0  0  0  0  0  0  0  0  0
   -4.2875   -3.8962   -1.8808 O   0  0  0  0  0  0  0  0  0  0  0  0
   -5.7738   -2.8990   -3.5498 C   0  0  2  0  0  0  0  0  0  0  0  0
   -6.0872   -1.9018   -2.5429 N   0  3  0  0  0  0  0  0  0  0  0  0
   -6.9749   -3.1229   -4.4761 C   0  0  1  0  0  0  0  0  0  0  0  0
   -6.5253   -3.6657   -5.7074 O   0  0  0  0  0  0  0  0  0  0  0  0
   -8.0165   -4.0518   -3.8581 C   0  0  2  0  0  0  0  0  0  0  0  0
   -8.7000   -3.3826   -2.8048 O   0  0  0  0  0  0  0  0  0  0  0  0
   -8.3564   -6.2790   -2.7496 C   0  0  0  0  0  0  0  0  0  0  0  0
   -9.2431   -6.7591   -3.7928 N   0  3  0  0  0  0  0  0  0  0  0  0
   -3.0440   -7.9981    5.6198 C   0  0  1  0  0  0  0  0  0  0  0  0
   -3.7458   -7.5488    4.4418 O   0  0  0  0  0  0  0  0  0  0  0  0
   -2.8642   -7.1587    3.3638 C   0  0  2  0  0  0  0  0  0  0  0  0
   -2.1105   -8.2821    2.8446 O   0  0  0  0  0  0  0  0  0  0  0  0
   -1.9315   -6.0266    3.8112 C   0  0  2  0  0  0  0  0  0  0  0  0
   -0.9185   -5.7903    2.7994 N   0  3  0  0  0  0  0  0  0  0  0  0
   -1.2503   -6.3464    5.1372 C   0  0  1  0  0  0  0  0  0  0  0  0
   -0.5900   -5.1894    5.6266 O   0  0  0  0  0  0  0  0  0  0  0  0
   -2.2114   -6.8645    6.1961 C   0  0  2  0  0  0  0  0  0  0  0  0
   -1.4938   -7.3182    7.3344 O   0  0  0  0  0  0  0  0  0  0  0  0
   -4.0426   -8.4295    6.6900 C   0  0  0  0  0  0  0  0  0  0  0  0
   -4.8259   -9.5636    6.2349 N   0  3  0  0  0  0  0  0  0  0  0  0
   -2.8631  -11.5358    0.2089 C   0  0  2  0  0  0  0  0  0  0  0  0
   -3.1397  -11.7373    1.6858 C   0  0  0  0  0  0  0  0  0  0  0  0
   -2.4539  -10.6608    2.5067 C   0  0  1  0  0  0  0  0  0  0  0  0
   -2.9466   -9.2542    2.1638 C   0  0  2  0  0  0  0  0  0  0  0  0
   -2.9033   -9.0094    0.6376 C   0  0  1  0  0  0  0  0  0  0  0  0
   -3.3617  -10.1727   -0.2517 C   0  0  1  0  0  0  0  0  0  0  0  0
   -3.5239  -12.5792   -0.5518 N   0  3  0  0  0  0  0  0  0  0  0  0
   -2.6551  -10.9421    3.9148 N   0  3  0  0  0  0  0  0  0  0  0  0
   -3.6102   -7.7984    0.2733 O   0  0  0  0  0  0  0  0  0  0  0  0
   -2.9537   -9.9414   -1.5960 O   0  0  0  0  0  0  0  0  0  0  0  0
  1  2  1  0  0  0  0
  3  2  1  1  0  0  0
  3  4  1  0  0  0  0
  3  5  1  0  0  0  0
  4  8  1  0  0  0  0
  5  6  1  0  0  0  0
  5 12  1  6  0  0  0
  6  7  1  1  0  0  0
  6  8  1  0  0  0  0
  8 41  1  1  0  0  0
  9 10  1  0  0  0  0
  9 17  1  0  0  0  0
  9 19  1  1  0  0  0
 10 11  1  0  0  0  0
 11 12  1  1  0  0  0
 11 13  1  0  0  0  0
 13 14  1  1  0  0  0
 13 15  1  0  0  0  0
 15 16  1  6  0  0  0
 15 17  1  0  0  0  0
 17 18  1  1  0  0  0
 19 20  1  0  0  0  0
 21 22  1  0  0  0  0
 21 29  1  0  0  0  0
 21 31  1  1  0  0  0
 22 23  1  0  0  0  0
 23 24  1  1  0  0  0
 23 25  1  0  0  0  0
 25 26  1  6  0  0  0
 25 27  1  0  0  0  0
 27 28  1  1  0  0  0
 27 29  1  0  0  0  0
 29 30  1  1  0  0  0
 31 32  1  0  0  0  0
 33 34  1  0  0  0  0
 33 38  1  0  0  0  0
 33 39  1  6  0  0  0
 34 35  1  0  0  0  0
 35 36  1  0  0  0  0
 35 40  1  1  0  0  0
 36 24  1  1  0  0  0
 36 37  1  0  0  0  0
 37 38  1  0  0  0  0
 37 41  1  1  0  0  0
 38 42  1  6  0  0  0
M  CHG  6  14   1  20   1  26   1  32   1  39   1  40   1
M  END
>  <CHROM.1>
-59.04211283,-53.67163435,-158.33662246,65.06874122,-113.93367010,-173.71091536
34.73308618,85.70654326,-57.98581639,-69.87278615,-65.38592992,63.18903570
67.46726427,-140.66443473,175.73120232,-175.06697796,64.64899701,-141.29215054
56.50473061,-48.35631832,99.12560675,-76.76293038,-4.08835199,-6.70673528
0.71081957,-2.88309618,1.10926106,-2.93235674

>  <Name>


>  <RI>
0

>  <Rbt.Current_Directory>
/home/itssahil/PROJECTS/Mol_Feturizer/New_Systems/rnas/1qd3

>  <Rbt.Executable>
rbdock ($Id: //depot/dev/client3/rdock/2013.1/src/exe/rbdock.cxx#4 $)

>  <Rbt.Library>
libRbt.so (2013.1, Build901 2013/11/27)

>  <Rbt.Parameter_File>
/export/apps/rDock/src/rDock_2013.1_src/data/scripts/dock_solv.prm

>  <Rbt.Receptor>
prm/blind_docking_80.prm

>  <SCORE>
-59.2917

>  <SCORE.INTER>
-45.1776

>  <SCORE.INTER.CONST>
1

>  <SCORE.INTER.POLAR>
-5.89162

>  <SCORE.INTER.ROT>
9

>  <SCORE.INTER.SOLV>
23.3493

>  <SCORE.INTER.VDW>
-27.8627

>  <SCORE.INTER.norm>
-1.07566

>  <SCORE.INTRA>
-16.9205

>  <SCORE.INTRA.DIHEDRAL>
-11.1885

>  <SCORE.INTRA.DIHEDRAL.0>
40.6252

>  <SCORE.INTRA.POLAR>
0.518165

>  <SCORE.INTRA.POLAR.0>
-1.20161

>  <SCORE.INTRA.REPUL>
-0.115675

>  <SCORE.INTRA.REPUL.0>
0.115675

>  <SCORE.INTRA.SOLV>
-6.68903

>  <SCORE.INTRA.SOLV.lig_0>
-154.895

>  <SCORE.INTRA.VDW>
-9.16513

>  <SCORE.INTRA.VDW.0>
2.2925

>  <SCORE.INTRA.norm>
-0.40287

>  <SCORE.RESTR>
2.80639

>  <SCORE.RESTR.CAVITY>
2.80639

>  <SCORE.RESTR.norm>
0.0668188

>  <SCORE.SYSTEM>
0

>  <SCORE.SYSTEM.CONST>
0

>  <SCORE.SYSTEM.DIHEDRAL>
0

>  <SCORE.SYSTEM.SOLV>
0

>  <SCORE.SYSTEM.norm>
0

>  <SCORE.heavy>
42

>  <SCORE.norm>
-1.41171

>  <RMSD>
14.673

$$$$

 OpenBabel11021811413D
libRbt.so/2013.1/901 2013/11/27
 42 45  0  0  0  0  0  0  0  0999 V2000
   -2.4671   -1.0038    2.5385 O   0  0  0  0  0  0  0  0  0  0  0  0
   -1.7975   -2.0109    3.2836 C   0  0  0  0  0  0  0  0  0  0  0  0
   -1.4633   -3.1928    2.3727 C   0  0  1  0  0  0  0  0  0  0  0  0
   -1.0792   -4.3546    3.1396 O   0  0  0  0  0  0  0  0  0  0  0  0
   -2.6310   -3.6366    1.5073 C   0  0  2  0  0  0  0  0  0  0  0  0
   -2.1844   -5.0415    1.1387 C   0  0  1  0  0  0  0  0  0  0  0  0
   -1.1903   -4.9789    0.1220 O   0  0  0  0  0  0  0  0  0  0  0  0
   -1.5563   -5.5410    2.4557 C   0  0  2  0  0  0  0  0  0  0  0  0
   -5.6664   -1.6411   -1.5825 C   0  0  2  0  0  0  0  0  0  0  0  0
   -4.3106   -1.7285   -1.1181 O   0  0  0  0  0  0  0  0  0  0  0  0
   -4.1451   -2.7658   -0.1345 C   0  0  2  0  0  0  0  0  0  0  0  0
   -2.7873   -2.7882    0.3528 O   0  0  0  0  0  0  0  0  0  0  0  0
   -4.5246   -4.1361   -0.7215 C   0  0  2  0  0  0  0  0  0  0  0  0
   -3.4746   -4.6318   -1.5923 N   0  3  0  0  0  0  0  0  0  0  0  0
   -5.8699   -4.1218   -1.4567 C   0  0  1  0  0  0  0  0  0  0  0  0
   -6.9250   -4.1451   -0.5085 O   0  0  0  0  0  0  0  0  0  0  0  0
   -6.0221   -2.9015   -2.3606 C   0  0  2  0  0  0  0  0  0  0  0  0
   -5.1760   -3.0305   -3.4972 O   0  0  0  0  0  0  0  0  0  0  0  0
   -5.8604   -0.3972   -2.4449 C   0  0  0  0  0  0  0  0  0  0  0  0
   -5.3605    0.7787   -1.7577 N   0  3  0  0  0  0  0  0  0  0  0  0
   -3.7327   -9.5258   -1.3390 C   0  0  1  0  0  0  0  0  0  0  0  0
   -3.0718   -8.2936   -0.9827 O   0  0  0  0  0  0  0  0  0  0  0  0
   -3.7331   -7.5769    0.0852 C   0  0  2  0  0  0  0  0  0  0  0  0
   -3.6890   -8.3051    1.3372 O   0  0  0  0  0  0  0  0  0  0  0  0
   -5.1763   -7.2360   -0.3055 C   0  0  2  0  0  0  0  0  0  0  0  0
   -5.8893   -6.7092    0.8433 N   0  3  0  0  0  0  0  0  0  0  0  0
   -5.9197   -8.4546   -0.8410 C   0  0  1  0  0  0  0  0  0  0  0  0
   -7.1572   -8.0497   -1.4055 O   0  0  0  0  0  0  0  0  0  0  0  0
   -5.1246   -9.2356   -1.8761 C   0  0  2  0  0  0  0  0  0  0  0  0
   -5.7868  -10.4512   -2.1928 O   0  0  0  0  0  0  0  0  0  0  0  0
   -2.9512  -10.2386   -2.4389 C   0  0  0  0  0  0  0  0  0  0  0  0
   -3.7104  -11.3575   -2.9665 N   0  3  0  0  0  0  0  0  0  0  0  0
   -0.7793   -9.4714    4.2135 C   0  0  2  0  0  0  0  0  0  0  0  0
   -0.5979   -9.9451    2.7849 C   0  0  0  0  0  0  0  0  0  0  0  0
   -1.8912   -9.7921    2.0059 C   0  0  1  0  0  0  0  0  0  0  0  0
   -2.3607   -8.3391    1.9220 C   0  0  2  0  0  0  0  0  0  0  0  0
   -2.3845   -7.6835    3.3222 C   0  0  1  0  0  0  0  0  0  0  0  0
   -1.2042   -8.0095    4.2467 C   0  0  1  0  0  0  0  0  0  0  0  0
    0.4675   -9.6333    4.9368 N   0  3  0  0  0  0  0  0  0  0  0  0
   -1.7102  -10.3467    0.6785 N   0  3  0  0  0  0  0  0  0  0  0  0
   -2.5637   -6.2485    3.2342 O   0  0  0  0  0  0  0  0  0  0  0  0
   -1.5197   -7.6315    5.5827 O   0  0  0  0  0  0  0  0  0  0  0  0
  1  2  1  0  0  0  0
  3  2  1  1  0  0  0
  3  4  1  0  0  0  0
  3  5  1  0  0  0  0
  4  8  1  0  0  0  0
  5  6  1  0  0  0  0
  5 12  1  6  0  0  0
  6  7  1  6  0  0  0
  6  8  1  0  0  0  0
  8 41  1  1  0  0  0
  9 10  1  0  0  0  0
  9 17  1  0  0  0  0
  9 19  1  6  0  0  0
 10 11  1  0  0  0  0
 11 12  1  6  0  0  0
 11 13  1  0  0  0  0
 13 14  1  6  0  0  0
 13 15  1  0  0  0  0
 15 16  1  1  0  0  0
 15 17  1  0  0  0  0
 17 18  1  6  0  0  0
 19 20  1  0  0  0  0
 21 22  1  0  0  0  0
 21 29  1  0  0  0  0
 21 31  1  6  0  0  0
 22 23  1  0  0  0  0
 23 24  1  1  0  0  0
 23 25  1  0  0  0  0
 25 26  1  1  0  0  0
 25 27  1  0  0  0  0
 27 28  1  6  0  0  0
 27 29  1  0  0  0  0
 29 30  1  1  0  0  0
 31 32  1  0  0  0  0
 33 34  1  0  0  0  0
 33 38  1  0  0  0  0
 33 39  1  1  0  0  0
 34 35  1  0  0  0  0
 35 36  1  0  0  0  0
 35 40  1  6  0  0  0
 36 24  1  1  0  0  0
 36 37  1  0  0  0  0
 37 38  1  0  0  0  0
 37 41  1  6  0  0  0
 38 42  1  1  0  0  0
M  CHG  6  14   1  20   1  26   1  32   1  39   1  40   1
M  END
>  <CHROM.1>
-175.04984991,-166.19574966,-153.70557893,174.03031154,-133.88993102,-50.96361611
169.28962851,-60.51086744,74.54947634,-64.38895084,-173.86014002,-170.40877698
71.01854523,-117.91954152,118.76251756,-56.47035917,-173.26010777,107.27239667
-72.47834120,-93.94290570,-57.98736113,-67.63466964,-3.46584033,-6.03236364
0.46647954,-2.15851047,0.92550516,-3.04302917

>  <Name>


>  <RI>
0

>  <Rbt.Current_Directory>
/home/itssahil/PROJECTS/Mol_Feturizer/New_Systems/rnas/1qd3

>  <Rbt.Executable>
rbdock ($Id: //depot/dev/client3/rdock/2013.1/src/exe/rbdock.cxx#4 $)

>  <Rbt.Library>
libRbt.so (2013.1, Build901 2013/11/27)

>  <Rbt.Parameter_File>
/export/apps/rDock/src/rDock_2013.1_src/data/scripts/dock_solv.prm

>  <Rbt.Receptor>
prm/blind_docking_80.prm

>  <SCORE>
-44.5633

>  <SCORE.INTER>
-32.7546

>  <SCORE.INTER.CONST>
1

>  <SCORE.INTER.POLAR>
-3.87358

>  <SCORE.INTER.ROT>
9

>  <SCORE.INTER.SOLV>
22.0876

>  <SCORE.INTER.VDW>
-25.887

>  <SCORE.INTER.norm>
-0.779871

>  <SCORE.INTRA>
-16.4805

>  <SCORE.INTRA.DIHEDRAL>
-9.04881

>  <SCORE.INTRA.DIHEDRAL.0>
40.6252

>  <SCORE.INTRA.POLAR>
-1.15348

>  <SCORE.INTRA.POLAR.0>
-1.20161

>  <SCORE.INTRA.REPUL>
-0.115675

>  <SCORE.INTRA.REPUL.0>
0.115675

>  <SCORE.INTRA.SOLV>
2.14931

>  <SCORE.INTRA.SOLV.lig_0>
-154.895

>  <SCORE.INTRA.VDW>
-8.53052

>  <SCORE.INTRA.VDW.0>
2.2925

>  <SCORE.INTRA.norm>
-0.392392

>  <SCORE.RESTR>
4.67179

>  <SCORE.RESTR.CAVITY>
4.67179

>  <SCORE.RESTR.norm>
0.111233

>  <SCORE.SYSTEM>
0

>  <SCORE.SYSTEM.CONST>
0

>  <SCORE.SYSTEM.DIHEDRAL>
0

>  <SCORE.SYSTEM.SOLV>
0

>  <SCORE.SYSTEM.norm>
0

>  <SCORE.heavy>
42

>  <SCORE.norm>
-1.06103

>  <RMSD>
14.678

$$$$

 OpenBabel11021811413D
libRbt.so/2013.1/901 2013/11/27
 42 45  0  0  0  0  0  0  0  0999 V2000
   -3.5117   -1.6911   -1.8687 O   0  0  0  0  0  0  0  0  0  0  0  0
   -4.6777   -2.5016   -1.8343 C   0  0  0  0  0  0  0  0  0  0  0  0
   -4.2868   -3.9612   -1.5991 C   0  0  1  0  0  0  0  0  0  0  0  0
   -3.6097   -4.1260   -0.3342 O   0  0  0  0  0  0  0  0  0  0  0  0
   -5.4769   -4.9052   -1.5567 C   0  0  2  0  0  0  0  0  0  0  0  0
   -4.8616   -6.0946   -0.8386 C   0  0  1  0  0  0  0  0  0  0  0  0
   -4.0479   -6.8339   -1.7426 O   0  0  0  0  0  0  0  0  0  0  0  0
   -3.9771   -5.4126    0.2250 C   0  0  2  0  0  0  0  0  0  0  0  0
   -7.6511   -3.3058   -5.4639 C   0  0  2  0  0  0  0  0  0  0  0  0
   -6.8476   -4.3382   -4.8723 O   0  0  0  0  0  0  0  0  0  0  0  0
   -6.7961   -4.2242   -3.4387 C   0  0  2  0  0  0  0  0  0  0  0  0
   -5.9355   -5.2393   -2.8815 O   0  0  0  0  0  0  0  0  0  0  0  0
   -8.2070   -4.3297   -2.8347 C   0  0  2  0  0  0  0  0  0  0  0  0
   -8.6616   -5.7080   -2.8263 N   0  3  0  0  0  0  0  0  0  0  0  0
   -9.2299   -3.4310   -3.5396 C   0  0  1  0  0  0  0  0  0  0  0  0
   -9.0567   -2.0911   -3.1068 O   0  0  0  0  0  0  0  0  0  0  0  0
   -9.1073   -3.4970   -5.0595 C   0  0  2  0  0  0  0  0  0  0  0  0
   -9.5861   -4.7510   -5.5314 O   0  0  0  0  0  0  0  0  0  0  0  0
   -7.5036   -3.3135   -6.9828 C   0  0  0  0  0  0  0  0  0  0  0  0
   -7.2609   -1.9705   -7.4750 N   0  3  0  0  0  0  0  0  0  0  0  0
   -1.9650   -8.8157    3.2658 C   0  0  1  0  0  0  0  0  0  0  0  0
   -2.8394   -8.0652    2.3973 O   0  0  0  0  0  0  0  0  0  0  0  0
   -3.7690   -7.2192    3.1125 C   0  0  2  0  0  0  0  0  0  0  0  0
   -3.0943   -6.1597    3.8349 O   0  0  0  0  0  0  0  0  0  0  0  0
   -4.6485   -8.0549    4.0506 C   0  0  2  0  0  0  0  0  0  0  0  0
   -5.4247   -7.1814    4.9109 N   0  3  0  0  0  0  0  0  0  0  0  0
   -3.8174   -8.9982    4.9131 C   0  0  1  0  0  0  0  0  0  0  0  0
   -4.6728   -9.9091    5.5860 O   0  0  0  0  0  0  0  0  0  0  0  0
   -2.7763   -9.7747    4.1216 C   0  0  2  0  0  0  0  0  0  0  0  0
   -1.9181  -10.4869    5.0007 O   0  0  0  0  0  0  0  0  0  0  0  0
   -0.9913   -9.6467    2.4352 C   0  0  0  0  0  0  0  0  0  0  0  0
    0.0797  -10.1661    3.2658 N   0  3  0  0  0  0  0  0  0  0  0  0
   -3.2302   -2.0343    2.8041 C   0  0  2  0  0  0  0  0  0  0  0  0
   -1.8777   -2.6480    3.1081 C   0  0  0  0  0  0  0  0  0  0  0  0
   -2.0451   -3.9712    3.8320 C   0  0  1  0  0  0  0  0  0  0  0  0
   -2.8107   -5.0038    3.0036 C   0  0  2  0  0  0  0  0  0  0  0  0
   -4.1304   -4.4090    2.4601 C   0  0  1  0  0  0  0  0  0  0  0  0
   -4.0630   -2.9683    1.9365 C   0  0  1  0  0  0  0  0  0  0  0  0
   -3.0424   -0.7700    2.1183 N   0  3  0  0  0  0  0  0  0  0  0  0
   -0.7362   -4.4783    4.1955 N   0  3  0  0  0  0  0  0  0  0  0  0
   -4.7312   -5.2714    1.4630 O   0  0  0  0  0  0  0  0  0  0  0  0
   -5.3796   -2.4451    1.7945 O   0  0  0  0  0  0  0  0  0  0  0  0
  1  2  1  0  0  0  0
  3  2  1  1  0  0  0
  3  4  1  0  0  0  0
  3  5  1  0  0  0  0
  4  8  1  0  0  0  0
  5  6  1  0  0  0  0
  5 12  1  6  0  0  0
  6  7  1  6  0  0  0
  6  8  1  0  0  0  0
  8 41  1  1  0  0  0
  9 10  1  0  0  0  0
  9 17  1  0  0  0  0
  9 19  1  6  0  0  0
 10 11  1  0  0  0  0
 11 12  1  1  0  0  0
 11 13  1  0  0  0  0
 13 14  1  6  0  0  0
 13 15  1  0  0  0  0
 15 16  1  1  0  0  0
 15 17  1  0  0  0  0
 17 18  1  1  0  0  0
 19 20  1  0  0  0  0
 21 22  1  0  0  0  0
 21 29  1  0  0  0  0
 21 31  1  6  0  0  0
 22 23  1  0  0  0  0
 23 24  1  1  0  0  0
 23 25  1  0  0  0  0
 25 26  1  1  0  0  0
 25 27  1  0  0  0  0
 27 28  1  6  0  0  0
 27 29  1  0  0  0  0
 29 30  1  1  0  0  0
 31 32  1  0  0  0  0
 33 34  1  0  0  0  0
 33 38  1  0  0  0  0
 33 39  1  6  0  0  0
 34 35  1  0  0  0  0
 35 36  1  0  0  0  0
 35 40  1  6  0  0  0
 36 24  1  1  0  0  0
 36 37  1  0  0  0  0
 37 38  1  0  0  0  0
 37 41  1  6  0  0  0
 38 42  1  1  0  0  0
M  CHG  6  14   1  20   1  26   1  32   1  39   1  40   1
M  END
>  <CHROM.1>
60.14998493,61.25016661,-81.90851041,-50.74372786,-51.03030046,-132.17092556
159.67133641,-64.53337967,67.39497582,-166.30366557,167.75842436,167.08787999
84.05666923,-177.42780446,-36.32053705,174.31188521,73.93729672,-168.62968699
-73.30983453,60.13772310,-66.33338710,-66.71748113,-4.71422079,-5.24695396
0.23223933,-2.50885470,0.95456919,2.87799328

>  <Name>


>  <RI>
0

>  <Rbt.Current_Directory>
/home/itssahil/PROJECTS/Mol_Feturizer/New_Systems/rnas/1qd3

>  <Rbt.Executable>
rbdock ($Id: //depot/dev/client3/rdock/2013.1/src/exe/rbdock.cxx#4 $)

>  <Rbt.Library>
libRbt.so (2013.1, Build901 2013/11/27)

>  <Rbt.Parameter_File>
/export/apps/rDock/src/rDock_2013.1_src/data/scripts/dock_solv.prm

>  <Rbt.Receptor>
prm/blind_docking_80.prm

>  <SCORE>
-54.1085

>  <SCORE.INTER>
-31.8273

>  <SCORE.INTER.CONST>
1

>  <SCORE.INTER.POLAR>
-4.26137

>  <SCORE.INTER.ROT>
9

>  <SCORE.INTER.SOLV>
34.2644

>  <SCORE.INTER.VDW>
-28.0351

>  <SCORE.INTER.norm>
-0.757793

>  <SCORE.INTRA>
-22.6824

>  <SCORE.INTRA.DIHEDRAL>
-21.8962

>  <SCORE.INTRA.DIHEDRAL.0>
40.6252

>  <SCORE.INTRA.POLAR>
0.552114

>  <SCORE.INTRA.POLAR.0>
-1.20161

>  <SCORE.INTRA.REPUL>
-0.115675

>  <SCORE.INTRA.REPUL.0>
0.115675

>  <SCORE.INTRA.SOLV>
-13.36

>  <SCORE.INTRA.SOLV.lig_0>
-154.895

>  <SCORE.INTRA.VDW>
-6.35312

>  <SCORE.INTRA.VDW.0>
2.2925

>  <SCORE.INTRA.norm>
-0.540057

>  <SCORE.RESTR>
0.401181

>  <SCORE.RESTR.CAVITY>
0.401181

>  <SCORE.RESTR.norm>
0.00955192

>  <SCORE.SYSTEM>
0

>  <SCORE.SYSTEM.CONST>
0

>  <SCORE.SYSTEM.DIHEDRAL>
0

>  <SCORE.SYSTEM.SOLV>
0

>  <SCORE.SYSTEM.norm>
0

>  <SCORE.heavy>
42

>  <SCORE.norm>
-1.2883

>  <RMSD>
14.680

$$$$

 OpenBabel11021811413D
libRbt.so/2013.1/901 2013/11/27
 42 45  0  0  0  0  0  0  0  0999 V2000
   -5.2554   -3.8350   -2.8585 O   0  0  0  0  0  0  0  0  0  0  0  0
   -5.8714   -4.9223   -2.1831 C   0  0  0  0  0  0  0  0  0  0  0  0
   -4.8207   -5.7021   -1.3916 C   0  0  1  0  0  0  0  0  0  0  0  0
   -4.2344   -4.8878   -0.3530 O   0  0  0  0  0  0  0  0  0  0  0  0
   -5.3814   -6.9274   -0.6888 C   0  0  2  0  0  0  0  0  0  0  0  0
   -4.3025   -7.1664    0.3541 C   0  0  1  0  0  0  0  0  0  0  0  0
   -3.1725   -7.7810   -0.2551 O   0  0  0  0  0  0  0  0  0  0  0  0
   -3.9463   -5.7309    0.7911 C   0  0  2  0  0  0  0  0  0  0  0  0
   -8.3770   -8.2441   -3.8717 C   0  0  2  0  0  0  0  0  0  0  0  0
   -7.0163   -8.1068   -3.4345 O   0  0  0  0  0  0  0  0  0  0  0  0
   -6.8944   -8.2388   -2.0068 C   0  0  2  0  0  0  0  0  0  0  0  0
   -5.5261   -8.0382   -1.5955 O   0  0  0  0  0  0  0  0  0  0  0  0
   -7.3943   -9.6183   -1.5445 C   0  0  2  0  0  0  0  0  0  0  0  0
   -6.4143  -10.6469   -1.8412 N   0  3  0  0  0  0  0  0  0  0  0  0
   -8.7593   -9.9904   -2.1353 C   0  0  1  0  0  0  0  0  0  0  0  0
   -9.7801   -9.2961   -1.4362 O   0  0  0  0  0  0  0  0  0  0  0  0
   -8.8515   -9.6704   -3.6248 C   0  0  2  0  0  0  0  0  0  0  0  0
   -8.0567  -10.5867   -4.3684 O   0  0  0  0  0  0  0  0  0  0  0  0
   -8.5076   -7.8757   -5.3469 C   0  0  0  0  0  0  0  0  0  0  0  0
   -8.0322   -6.5242   -5.5756 N   0  3  0  0  0  0  0  0  0  0  0  0
   -1.8136   -8.1427    3.2909 C   0  0  1  0  0  0  0  0  0  0  0  0
   -3.0767   -7.5937    2.8605 O   0  0  0  0  0  0  0  0  0  0  0  0
   -3.8402   -7.0013    3.9364 C   0  0  2  0  0  0  0  0  0  0  0  0
   -3.1856   -5.8319    4.4875 O   0  0  0  0  0  0  0  0  0  0  0  0
   -4.1302   -8.0385    5.0280 C   0  0  2  0  0  0  0  0  0  0  0  0
   -4.7077   -7.3874    6.1892 N   0  3  0  0  0  0  0  0  0  0  0  0
   -2.8688   -8.7850    5.4478 C   0  0  1  0  0  0  0  0  0  0  0  0
   -3.2169   -9.8837    6.2759 O   0  0  0  0  0  0  0  0  0  0  0  0
   -2.0457   -9.2823    4.2695 C   0  0  2  0  0  0  0  0  0  0  0  0
   -0.8013   -9.7979    4.7193 O   0  0  0  0  0  0  0  0  0  0  0  0
   -1.0545   -8.7077    2.0937 C   0  0  0  0  0  0  0  0  0  0  0  0
   -1.8997   -9.6029    1.3250 N   0  3  0  0  0  0  0  0  0  0  0  0
   -3.2794   -1.9432    2.7645 C   0  0  2  0  0  0  0  0  0  0  0  0
   -1.9383   -2.4927    3.2093 C   0  0  0  0  0  0  0  0  0  0  0  0
   -2.1308   -3.6734    4.1429 C   0  0  1  0  0  0  0  0  0  0  0  0
   -2.8740   -4.8342    3.4801 C   0  0  2  0  0  0  0  0  0  0  0  0
   -4.1752   -4.3440    2.8038 C   0  0  1  0  0  0  0  0  0  0  0  0
   -4.0884   -3.0136    2.0443 C   0  0  1  0  0  0  0  0  0  0  0  0
   -3.0678   -0.8140    1.8791 N   0  3  0  0  0  0  0  0  0  0  0  0
   -0.8348   -4.1078    4.6266 N   0  3  0  0  0  0  0  0  0  0  0  0
   -4.7482   -5.3653    1.9508 O   0  0  0  0  0  0  0  0  0  0  0  0
   -5.3986   -2.5256    1.7758 O   0  0  0  0  0  0  0  0  0  0  0  0
  1  2  1  0  0  0  0
  3  2  1  1  0  0  0
  3  4  1  0  0  0  0
  3  5  1  0  0  0  0
  4  8  1  0  0  0  0
  5  6  1  0  0  0  0
  5 12  1  6  0  0  0
  6  7  1  6  0  0  0
  6  8  1  0  0  0  0
  8 41  1  1  0  0  0
  9 10  1  0  0  0  0
  9 17  1  0  0  0  0
  9 19  1  6  0  0  0
 10 11  1  0  0  0  0
 11 12  1  6  0  0  0
 11 13  1  0  0  0  0
 13 14  1  6  0  0  0
 13 15  1  0  0  0  0
 15 16  1  1  0  0  0
 15 17  1  0  0  0  0
 17 18  1  6  0  0  0
 19 20  1  0  0  0  0
 21 22  1  0  0  0  0
 21 29  1  0  0  0  0
 21 31  1  6  0  0  0
 22 23  1  0  0  0  0
 23 24  1  1  0  0  0
 23 25  1  0  0  0  0
 25 26  1  1  0  0  0
 25 27  1  0  0  0  0
 27 28  1  1  0  0  0
 27 29  1  0  0  0  0
 29 30  1  1  0  0  0
 31 32  1  0  0  0  0
 33 34  1  0  0  0  0
 33 38  1  0  0  0  0
 33 39  1  6  0  0  0
 34 35  1  0  0  0  0
 35 36  1  0  0  0  0
 35 40  1  6  0  0  0
 36 24  1  1  0  0  0
 36 37  1  0  0  0  0
 37 38  1  0  0  0  0
 37 41  1  6  0  0  0
 38 42  1  1  0  0  0
M  CHG  6  14   1  20   1  26   1  32   1  39   1  40   1
M  END
>  <CHROM.1>
-54.13081262,63.67072071,-102.76267104,63.24909011,-88.19836880,-57.22824940
119.65135539,-55.22348844,-67.37281585,-178.82373117,-56.63404997,-50.89453516
54.72973657,-177.38504647,-102.59866545,-55.28010961,173.98051697,174.29109530
177.41002172,-59.18116425,-65.27964299,-72.49853681,-4.65708437,-6.84583666
0.82501457,3.06918148,0.99308095,2.90776876

>  <Name>


>  <RI>
0

>  <Rbt.Current_Directory>
/home/itssahil/PROJECTS/Mol_Feturizer/New_Systems/rnas/1qd3

>  <Rbt.Executable>
rbdock ($Id: //depot/dev/client3/rdock/2013.1/src/exe/rbdock.cxx#4 $)

>  <Rbt.Library>
libRbt.so (2013.1, Build901 2013/11/27)

>  <Rbt.Parameter_File>
/export/apps/rDock/src/rDock_2013.1_src/data/scripts/dock_solv.prm

>  <Rbt.Receptor>
prm/blind_docking_60.prm

>  <SCORE>
-41.7904

>  <SCORE.INTER>
-23.7195

>  <SCORE.INTER.CONST>
1

>  <SCORE.INTER.POLAR>
-1.80644

>  <SCORE.INTER.ROT>
9

>  <SCORE.INTER.SOLV>
24.4223

>  <SCORE.INTER.VDW>
-27.5323

>  <SCORE.INTER.norm>
-0.564751

>  <SCORE.INTRA>
-19.7658

>  <SCORE.INTRA.DIHEDRAL>
-16.735

>  <SCORE.INTRA.DIHEDRAL.0>
40.6252

>  <SCORE.INTRA.POLAR>
0.483901

>  <SCORE.INTRA.POLAR.0>
-1.20161

>  <SCORE.INTRA.REPUL>
-0.115675

>  <SCORE.INTRA.REPUL.0>
0.115675

>  <SCORE.INTRA.SOLV>
-9.57762

>  <SCORE.INTRA.SOLV.lig_0>
-154.895

>  <SCORE.INTRA.VDW>
-7.67633

>  <SCORE.INTRA.VDW.0>
2.2925

>  <SCORE.INTRA.norm>
-0.470613

>  <SCORE.RESTR>
1.69491

>  <SCORE.RESTR.CAVITY>
1.69491

>  <SCORE.RESTR.norm>
0.0403551

>  <SCORE.SYSTEM>
0

>  <SCORE.SYSTEM.CONST>
0

>  <SCORE.SYSTEM.DIHEDRAL>
0

>  <SCORE.SYSTEM.SOLV>
0

>  <SCORE.SYSTEM.norm>
0

>  <SCORE.heavy>
42

>  <SCORE.norm>
-0.995009

>  <RMSD>
14.685

$$$$

 OpenBabel11021811413D
libRbt.so/2013.1/901 2013/11/27
 42 45  0  0  0  0  0  0  0  0999 V2000
   -1.8376   -4.7261   -0.8721 O   0  0  0  0  0  0  0  0  0  0  0  0
   -2.7700   -4.4241   -1.9003 C   0  0  0  0  0  0  0  0  0  0  0  0
   -4.0928   -5.1406   -1.6263 C   0  0  1  0  0  0  0  0  0  0  0  0
   -3.8902   -6.5550   -1.4162 O   0  0  0  0  0  0  0  0  0  0  0  0
   -4.8059   -4.6363   -0.3826 C   0  0  2  0  0  0  0  0  0  0  0  0
   -5.7377   -5.8040   -0.1048 C   0  0  1  0  0  0  0  0  0  0  0  0
   -6.8413   -5.7628   -1.0026 O   0  0  0  0  0  0  0  0  0  0  0  0
   -4.8444   -7.0191   -0.4278 C   0  0  2  0  0  0  0  0  0  0  0  0
   -4.7908    0.1344   -0.1484 C   0  0  2  0  0  0  0  0  0  0  0  0
   -5.5524   -1.0563   -0.4007 O   0  0  0  0  0  0  0  0  0  0  0  0
   -4.7385   -2.2408   -0.3264 C   0  0  2  0  0  0  0  0  0  0  0  0
   -5.5203   -3.4117   -0.6416 O   0  0  0  0  0  0  0  0  0  0  0  0
   -4.1078   -2.3795    1.0698 C   0  0  2  0  0  0  0  0  0  0  0  0
   -5.0868   -2.8496    2.0325 N   0  3  0  0  0  0  0  0  0  0  0  0
   -3.4493   -1.0852    1.5616 C   0  0  1  0  0  0  0  0  0  0  0  0
   -2.1937   -0.9229    0.9214 O   0  0  0  0  0  0  0  0  0  0  0  0
   -4.3187    0.1417    1.2999 C   0  0  2  0  0  0  0  0  0  0  0  0
   -5.4370    0.1410    2.1796 O   0  0  0  0  0  0  0  0  0  0  0  0
   -5.6197    1.3783   -0.4559 C   0  0  0  0  0  0  0  0  0  0  0  0
   -4.9514    2.5674    0.0383 N   0  3  0  0  0  0  0  0  0  0  0  0
   -2.6052   -8.0862    5.7065 C   0  0  1  0  0  0  0  0  0  0  0  0
   -3.5066   -7.6595    4.6637 O   0  0  0  0  0  0  0  0  0  0  0  0
   -2.8486   -7.4284    3.3968 C   0  0  2  0  0  0  0  0  0  0  0  0
   -2.3081   -8.6496    2.8345 O   0  0  0  0  0  0  0  0  0  0  0  0
   -1.7608   -6.3570    3.5403 C   0  0  2  0  0  0  0  0  0  0  0  0
   -0.9720   -6.2860    2.3244 N   0  3  0  0  0  0  0  0  0  0  0  0
   -0.8383   -6.6428    4.7201 C   0  0  1  0  0  0  0  0  0  0  0  0
   -0.0051   -5.5189    4.9585 O   0  0  0  0  0  0  0  0  0  0  0  0
   -1.5874   -6.9951    5.9960 C   0  0  2  0  0  0  0  0  0  0  0  0
   -0.6793   -7.4305    6.9972 O   0  0  0  0  0  0  0  0  0  0  0  0
   -3.3820   -8.3483    6.9935 C   0  0  0  0  0  0  0  0  0  0  0  0
   -4.1801   -7.1917    7.3568 N   0  3  0  0  0  0  0  0  0  0  0  0
   -3.6270  -11.0425   -0.4265 C   0  0  2  0  0  0  0  0  0  0  0  0
   -3.6655  -11.6485    0.9626 C   0  0  0  0  0  0  0  0  0  0  0  0
   -2.8072  -10.8411    1.9187 C   0  0  1  0  0  0  0  0  0  0  0  0
   -3.2869   -9.3964    2.0652 C   0  0  2  0  0  0  0  0  0  0  0  0
   -3.4845   -8.7359    0.6811 C   0  0  1  0  0  0  0  0  0  0  0  0
   -4.1339   -9.6068   -0.4024 C   0  0  1  0  0  0  0  0  0  0  0  0
   -4.4494  -11.8349   -1.3208 N   0  3  0  0  0  0  0  0  0  0  0  0
   -2.7863  -11.5044    3.2079 N   0  3  0  0  0  0  0  0  0  0  0  0
   -4.1874   -7.4737    0.7900 O   0  0  0  0  0  0  0  0  0  0  0  0
   -3.9427   -9.0087   -1.6802 O   0  0  0  0  0  0  0  0  0  0  0  0
  1  2  1  0  0  0  0
  3  2  1  1  0  0  0
  3  4  1  0  0  0  0
  3  5  1  0  0  0  0
  4  8  1  0  0  0  0
  5  6  1  0  0  0  0
  5 12  1  6  0  0  0
  6  7  1  6  0  0  0
  6  8  1  0  0  0  0
  8 41  1  1  0  0  0
  9 10  1  0  0  0  0
  9 17  1  0  0  0  0
  9 19  1  1  0  0  0
 10 11  1  0  0  0  0
 11 12  1  1  0  0  0
 11 13  1  0  0  0  0
 13 14  1  1  0  0  0
 13 15  1  0  0  0  0
 15 16  1  6  0  0  0
 15 17  1  0  0  0  0
 17 18  1  1  0  0  0
 19 20  1  0  0  0  0
 21 22  1  0  0  0  0
 21 29  1  0  0  0  0
 21 31  1  1  0  0  0
 22 23  1  0  0  0  0
 23 24  1  1  0  0  0
 23 25  1  0  0  0  0
 25 26  1  6  0  0  0
 25 27  1  0  0  0  0
 27 28  1  1  0  0  0
 27 29  1  0  0  0  0
 29 30  1  1  0  0  0
 31 32  1  0  0  0  0
 33 34  1  0  0  0  0
 33 38  1  0  0  0  0
 33 39  1  6  0  0  0
 34 35  1  0  0  0  0
 35 36  1  0  0  0  0
 35 40  1  1  0  0  0
 36 24  1  1  0  0  0
 36 37  1  0  0  0  0
 37 38  1  0  0  0  0
 37 41  1  1  0  0  0
 38 42  1  6  0  0  0
M  CHG  6  14   1  20   1  26   1  32   1  39   1  40   1
M  END
>  <CHROM.1>
-171.08391353,-52.90360735,-93.56962055,-176.57534238,-72.56480697,169.00894728
-171.09852633,-160.57721354,64.42920598,-27.69718635,132.50010308,-53.75223339
85.29459944,-161.00963388,-101.92434797,64.39036908,65.21944808,-55.95585967
-57.01298229,-63.54345734,-158.51841213,-56.53493790,-3.60524581,-5.71823421
1.55459520,2.13294216,-1.20312145,0.23617157

>  <Name>


>  <RI>
0

>  <Rbt.Current_Directory>
/home/itssahil/PROJECTS/Mol_Feturizer/New_Systems/rnas/1qd3

>  <Rbt.Executable>
rbdock ($Id: //depot/dev/client3/rdock/2013.1/src/exe/rbdock.cxx#4 $)

>  <Rbt.Library>
libRbt.so (2013.1, Build901 2013/11/27)

>  <Rbt.Parameter_File>
/export/apps/rDock/src/rDock_2013.1_src/data/scripts/dock_solv.prm

>  <Rbt.Receptor>
prm/blind_docking_80.prm

>  <SCORE>
-39.9638

>  <SCORE.INTER>
-34.3814

>  <SCORE.INTER.CONST>
1

>  <SCORE.INTER.POLAR>
-5.50529

>  <SCORE.INTER.ROT>
9

>  <SCORE.INTER.SOLV>
31.262

>  <SCORE.INTER.VDW>
-24.5906

>  <SCORE.INTER.norm>
-0.818604

>  <SCORE.INTRA>
-9.68276

>  <SCORE.INTRA.DIHEDRAL>
-15.4442

>  <SCORE.INTRA.DIHEDRAL.0>
40.6252

>  <SCORE.INTRA.POLAR>
1.20161

>  <SCORE.INTRA.POLAR.0>
-1.20161

>  <SCORE.INTRA.REPUL>
-0.115675

>  <SCORE.INTRA.REPUL.0>
0.115675

>  <SCORE.INTRA.SOLV>
-8.98671

>  <SCORE.INTRA.SOLV.lig_0>
-154.895

>  <SCORE.INTRA.VDW>
-0.97441

>  <SCORE.INTRA.VDW.0>
2.2925

>  <SCORE.INTRA.norm>
-0.230542

>  <SCORE.RESTR>
4.10029

>  <SCORE.RESTR.CAVITY>
4.10029

>  <SCORE.RESTR.norm>
0.0976259

>  <SCORE.SYSTEM>
0

>  <SCORE.SYSTEM.CONST>
0

>  <SCORE.SYSTEM.DIHEDRAL>
0

>  <SCORE.SYSTEM.SOLV>
0

>  <SCORE.SYSTEM.norm>
0

>  <SCORE.heavy>
42

>  <SCORE.norm>
-0.95152

>  <RMSD>
14.706

$$$$

 OpenBabel11021811413D
libRbt.so/2013.1/901 2013/11/27
 42 45  0  0  0  0  0  0  0  0999 V2000
   -1.1686   -2.7152    4.9160 O   0  0  0  0  0  0  0  0  0  0  0  0
   -1.1797   -4.1078    4.6363 C   0  0  0  0  0  0  0  0  0  0  0  0
   -1.0238   -4.3349    3.1321 C   0  0  1  0  0  0  0  0  0  0  0  0
   -0.9926   -5.7433    2.8142 O   0  0  0  0  0  0  0  0  0  0  0  0
   -2.1630   -3.7516    2.3126 C   0  0  2  0  0  0  0  0  0  0  0  0
   -2.0055   -4.5366    1.0211 C   0  0  1  0  0  0  0  0  0  0  0  0
   -0.9207   -4.0080    0.2663 O   0  0  0  0  0  0  0  0  0  0  0  0
   -1.6479   -5.9455    1.5365 C   0  0  2  0  0  0  0  0  0  0  0  0
   -4.4746    0.2371    1.3201 C   0  0  2  0  0  0  0  0  0  0  0  0
   -3.3122   -0.3716    1.9030 O   0  0  0  0  0  0  0  0  0  0  0  0
   -3.1439   -1.7334    1.4694 C   0  0  2  0  0  0  0  0  0  0  0  0
   -2.0025   -2.3327    2.1172 O   0  0  0  0  0  0  0  0  0  0  0  0
   -2.9867   -1.8008   -0.0594 C   0  0  2  0  0  0  0  0  0  0  0  0
   -1.6547   -1.3853   -0.4589 N   0  3  0  0  0  0  0  0  0  0  0  0
   -4.0499   -0.9884   -0.8080 C   0  0  1  0  0  0  0  0  0  0  0  0
   -5.2715   -1.7098   -0.8204 O   0  0  0  0  0  0  0  0  0  0  0  0
   -4.2742    0.3857   -0.1827 C   0  0  2  0  0  0  0  0  0  0  0  0
   -3.1581    1.2276   -0.4472 O   0  0  0  0  0  0  0  0  0  0  0  0
   -4.7547    1.5905    1.9673 C   0  0  0  0  0  0  0  0  0  0  0  0
   -5.7928    2.2952    1.2388 N   0  3  0  0  0  0  0  0  0  0  0  0
   -3.4755   -9.1576   -0.3600 C   0  0  1  0  0  0  0  0  0  0  0  0
   -3.7599   -9.4878    1.0155 O   0  0  0  0  0  0  0  0  0  0  0  0
   -2.6915  -10.2169    1.6623 C   0  0  2  0  0  0  0  0  0  0  0  0
   -1.4907   -9.4168    1.7958 O   0  0  0  0  0  0  0  0  0  0  0  0
   -2.4033  -11.5265    0.9183 C   0  0  2  0  0  0  0  0  0  0  0  0
   -1.1998  -12.1418    1.4463 N   0  3  0  0  0  0  0  0  0  0  0  0
   -2.2344  -11.2999   -0.5799 C   0  0  1  0  0  0  0  0  0  0  0  0
   -2.2067  -12.5495   -1.2522 O   0  0  0  0  0  0  0  0  0  0  0  0
   -3.3252  -10.4275   -1.1817 C   0  0  2  0  0  0  0  0  0  0  0  0
   -3.0102  -10.1014   -2.5274 O   0  0  0  0  0  0  0  0  0  0  0  0
   -4.6298   -8.3555   -0.9540 C   0  0  0  0  0  0  0  0  0  0  0  0
   -5.1579   -7.4168    0.0190 N   0  3  0  0  0  0  0  0  0  0  0  0
   -3.1590   -7.7431    5.3334 C   0  0  2  0  0  0  0  0  0  0  0  0
   -1.7593   -8.3201    5.4104 C   0  0  0  0  0  0  0  0  0  0  0  0
   -1.4859   -9.2130    4.2142 C   0  0  1  0  0  0  0  0  0  0  0  0
   -1.5697   -8.4607    2.8854 C   0  0  2  0  0  0  0  0  0  0  0  0
   -2.8869   -7.6569    2.7866 C   0  0  1  0  0  0  0  0  0  0  0  0
   -3.3367   -6.9279    4.0596 C   0  0  1  0  0  0  0  0  0  0  0  0
   -3.3966   -6.8994    6.4892 N   0  3  0  0  0  0  0  0  0  0  0  0
   -0.1812   -9.8256    4.3718 N   0  3  0  0  0  0  0  0  0  0  0  0
   -2.8646   -6.7352    1.6691 O   0  0  0  0  0  0  0  0  0  0  0  0
   -4.6972   -6.5285    3.9311 O   0  0  0  0  0  0  0  0  0  0  0  0
  1  2  1  0  0  0  0
  3  2  1  1  0  0  0
  3  4  1  0  0  0  0
  3  5  1  0  0  0  0
  4  8  1  0  0  0  0
  5  6  1  0  0  0  0
  5 12  1  6  0  0  0
  6  7  1  6  0  0  0
  6  8  1  0  0  0  0
  8 41  1  1  0  0  0
  9 10  1  0  0  0  0
  9 17  1  0  0  0  0
  9 19  1  1  0  0  0
 10 11  1  0  0  0  0
 11 12  1  1  0  0  0
 11 13  1  0  0  0  0
 13 14  1  1  0  0  0
 13 15  1  0  0  0  0
 15 16  1  1  0  0  0
 15 17  1  0  0  0  0
 17 18  1  1  0  0  0
 19 20  1  0  0  0  0
 21 22  1  0  0  0  0
 21 29  1  0  0  0  0
 21 31  1  6  0  0  0
 22 23  1  0  0  0  0
 23 24  1  6  0  0  0
 23 25  1  0  0  0  0
 25 26  1  1  0  0  0
 25 27  1  0  0  0  0
 27 28  1  6  0  0  0
 27 29  1  0  0  0  0
 29 30  1  6  0  0  0
 31 32  1  0  0  0  0
 33 34  1  0  0  0  0
 33 38  1  0  0  0  0
 33 39  1  1  0  0  0
 34 35  1  0  0  0  0
 35 36  1  0  0  0  0
 35 40  1  1  0  0  0
 36 24  1  6  0  0  0
 36 37  1  0  0  0  0
 37 38  1  0  0  0  0
 37 41  1  6  0  0  0
 38 42  1  6  0  0  0
M  CHG  6  14   1  20   1  26   1  32   1  39   1  40   1
M  END
>  <CHROM.1>
177.39417335,178.36420734,-173.62705322,178.05766970,-27.54117793,170.93690245
149.25803466,-170.63368013,65.90430526,-175.50896217,52.91750898,38.88163230
77.70608149,71.80076028,-54.69500706,72.87415390,-71.89055858,-64.72739590
178.75619003,-51.73223586,-46.29314639,-63.93735805,-2.78663209,-5.69304951
1.63222797,-2.02918115,1.26844079,-2.73761416

>  <Name>


>  <RI>
0

>  <Rbt.Current_Directory>
/home/itssahil/PROJECTS/Mol_Feturizer/New_Systems/rnas/1qd3

>  <Rbt.Executable>
rbdock ($Id: //depot/dev/client3/rdock/2013.1/src/exe/rbdock.cxx#4 $)

>  <Rbt.Library>
libRbt.so (2013.1, Build901 2013/11/27)

>  <Rbt.Parameter_File>
/export/apps/rDock/src/rDock_2013.1_src/data/scripts/dock_solv.prm

>  <Rbt.Receptor>
prm/blind_docking_80.prm

>  <SCORE>
-67.4303

>  <SCORE.INTER>
-47.0209

>  <SCORE.INTER.CONST>
1

>  <SCORE.INTER.POLAR>
-6.63689

>  <SCORE.INTER.ROT>
9

>  <SCORE.INTER.SOLV>
32.4449

>  <SCORE.INTER.VDW>
-29.6393

>  <SCORE.INTER.norm>
-1.11955

>  <SCORE.INTRA>
-23.4223

>  <SCORE.INTRA.DIHEDRAL>
-23.6228

>  <SCORE.INTRA.DIHEDRAL.0>
40.6252

>  <SCORE.INTRA.POLAR>
-0.607041

>  <SCORE.INTRA.POLAR.0>
-1.20161

>  <SCORE.INTRA.REPUL>
-0.115675

>  <SCORE.INTRA.REPUL.0>
0.115675

>  <SCORE.INTRA.SOLV>
-4.05744

>  <SCORE.INTRA.SOLV.lig_0>
-154.895

>  <SCORE.INTRA.VDW>
-6.9399

>  <SCORE.INTRA.VDW.0>
2.2925

>  <SCORE.INTRA.norm>
-0.557675

>  <SCORE.RESTR>
3.01294

>  <SCORE.RESTR.CAVITY>
3.01294

>  <SCORE.RESTR.norm>
0.0717367

>  <SCORE.SYSTEM>
0

>  <SCORE.SYSTEM.CONST>
0

>  <SCORE.SYSTEM.DIHEDRAL>
0

>  <SCORE.SYSTEM.SOLV>
0

>  <SCORE.SYSTEM.norm>
0

>  <SCORE.heavy>
42

>  <SCORE.norm>
-1.60548

>  <RMSD>
14.718

$$$$

 OpenBabel11021811413D
libRbt.so/2013.1/901 2013/11/27
 42 45  0  0  0  0  0  0  0  0999 V2000
   -9.1723   -5.0393   -3.0207 O   0  0  0  0  0  0  0  0  0  0  0  0
   -8.7613   -4.1799   -1.9671 C   0  0  0  0  0  0  0  0  0  0  0  0
   -7.2699   -3.8706   -2.1034 C   0  0  1  0  0  0  0  0  0  0  0  0
   -6.8809   -2.7736   -1.2484 O   0  0  0  0  0  0  0  0  0  0  0  0
   -6.3742   -5.0350   -1.7146 C   0  0  2  0  0  0  0  0  0  0  0  0
   -5.0642   -4.3061   -1.4667 C   0  0  1  0  0  0  0  0  0  0  0  0
   -4.4504   -3.9839   -2.7098 O   0  0  0  0  0  0  0  0  0  0  0  0
   -5.5354   -3.0161   -0.7650 C   0  0  2  0  0  0  0  0  0  0  0  0
   -7.7782   -9.2761   -3.3871 C   0  0  2  0  0  0  0  0  0  0  0  0
   -7.0386   -8.0715   -3.6389 O   0  0  0  0  0  0  0  0  0  0  0  0
   -6.9711   -7.2288   -2.4745 C   0  0  2  0  0  0  0  0  0  0  0  0
   -6.2728   -6.0031   -2.7774 O   0  0  0  0  0  0  0  0  0  0  0  0
   -6.2814   -7.9632   -1.3120 C   0  0  2  0  0  0  0  0  0  0  0  0
   -4.8442   -8.0049   -1.5098 N   0  3  0  0  0  0  0  0  0  0  0  0
   -6.8333   -9.3752   -1.0831 C   0  0  1  0  0  0  0  0  0  0  0  0
   -8.0743   -9.2908   -0.4005 O   0  0  0  0  0  0  0  0  0  0  0  0
   -7.0198  -10.1421   -2.3894 C   0  0  2  0  0  0  0  0  0  0  0  0
   -5.7525  -10.5082   -2.9227 O   0  0  0  0  0  0  0  0  0  0  0  0
   -8.0274  -10.0359   -4.6869 C   0  0  0  0  0  0  0  0  0  0  0  0
   -7.3000   -9.4203   -5.7810 N   0  3  0  0  0  0  0  0  0  0  0  0
   -2.7523   -7.6234    2.8861 C   0  0  1  0  0  0  0  0  0  0  0  0
   -2.8781   -7.1071    1.5446 O   0  0  0  0  0  0  0  0  0  0  0  0
   -3.8556   -6.0477    1.4278 C   0  0  2  0  0  0  0  0  0  0  0  0
   -3.4621   -4.8619    2.1618 O   0  0  0  0  0  0  0  0  0  0  0  0
   -5.2395   -6.5381    1.8704 C   0  0  2  0  0  0  0  0  0  0  0  0
   -6.1597   -5.4188    1.9498 N   0  3  0  0  0  0  0  0  0  0  0  0
   -5.1847   -7.2385    3.2235 C   0  0  1  0  0  0  0  0  0  0  0  0
   -6.4254   -7.8774    3.4817 O   0  0  0  0  0  0  0  0  0  0  0  0
   -4.0612   -8.2586    3.3262 C   0  0  2  0  0  0  0  0  0  0  0  0
   -3.9467   -8.7343    4.6593 O   0  0  0  0  0  0  0  0  0  0  0  0
   -1.6752   -8.7033    2.9313 C   0  0  0  0  0  0  0  0  0  0  0  0
   -0.5378   -8.3297    2.1107 N   0  3  0  0  0  0  0  0  0  0  0  0
   -2.6377   -0.7773    1.3041 C   0  0  2  0  0  0  0  0  0  0  0  0
   -1.5523   -1.7972    1.0215 C   0  0  0  0  0  0  0  0  0  0  0  0
   -1.8466   -3.1000    1.7418 C   0  0  1  0  0  0  0  0  0  0  0  0
   -3.1633   -3.7366    1.2947 C   0  0  2  0  0  0  0  0  0  0  0  0
   -4.3192   -2.7108    1.3455 C   0  0  1  0  0  0  0  0  0  0  0  0
   -3.9956   -1.2953    0.8496 C   0  0  1  0  0  0  0  0  0  0  0  0
   -2.3302    0.4586    0.6099 N   0  3  0  0  0  0  0  0  0  0  0  0
   -0.7412   -4.0146    1.5319 N   0  3  0  0  0  0  0  0  0  0  0  0
   -5.5037   -3.2113    0.6781 O   0  0  0  0  0  0  0  0  0  0  0  0
   -5.0167   -0.3941    1.2647 O   0  0  0  0  0  0  0  0  0  0  0  0
  1  2  1  0  0  0  0
  3  2  1  1  0  0  0
  3  4  1  0  0  0  0
  3  5  1  0  0  0  0
  4  8  1  0  0  0  0
  5  6  1  0  0  0  0
  5 12  1  6  0  0  0
  6  7  1  6  0  0  0
  6  8  1  0  0  0  0
  8 41  1  1  0  0  0
  9 10  1  0  0  0  0
  9 17  1  0  0  0  0
  9 19  1  6  0  0  0
 10 11  1  0  0  0  0
 11 12  1  6  0  0  0
 11 13  1  0  0  0  0
 13 14  1  6  0  0  0
 13 15  1  0  0  0  0
 15 16  1  6  0  0  0
 15 17  1  0  0  0  0
 17 18  1  6  0  0  0
 19 20  1  0  0  0  0
 21 22  1  0  0  0  0
 21 29  1  0  0  0  0
 21 31  1  6  0  0  0
 22 23  1  0  0  0  0
 23 24  1  1  0  0  0
 23 25  1  0  0  0  0
 25 26  1  1  0  0  0
 25 27  1  0  0  0  0
 27 28  1  6  0  0  0
 27 29  1  0  0  0  0
 29 30  1  1  0  0  0
 31 32  1  0  0  0  0
 33 34  1  0  0  0  0
 33 38  1  0  0  0  0
 33 39  1  6  0  0  0
 34 35  1  0  0  0  0
 35 36  1  0  0  0  0
 35 40  1  6  0  0  0
 36 24  1  1  0  0  0
 36 37  1  0  0  0  0
 37 38  1  0  0  0  0
 37 41  1  6  0  0  0
 38 42  1  1  0  0  0
M  CHG  6  14   1  20   1  26   1  32   1  39   1  40   1
M  END
>  <CHROM.1>
73.06118741,166.84586749,-108.94262542,179.57495818,-145.94694075,7.43983474
170.21845100,-33.79704088,-33.66669876,-179.80254775,-31.12836846,40.24348523
112.83483138,-133.17243475,145.81569467,30.14581335,-55.78960761,69.38485970
-131.20738868,57.33999310,-84.23764793,178.52188266,-5.06349024,-5.84581306
-0.11470280,2.52442611,0.89963354,2.98291017

>  <Name>


>  <RI>
0

>  <Rbt.Current_Directory>
/home/itssahil/PROJECTS/Mol_Feturizer/New_Systems/rnas/1qd3

>  <Rbt.Executable>
rbdock ($Id: //depot/dev/client3/rdock/2013.1/src/exe/rbdock.cxx#4 $)

>  <Rbt.Library>
libRbt.so (2013.1, Build901 2013/11/27)

>  <Rbt.Parameter_File>
/export/apps/rDock/src/rDock_2013.1_src/data/scripts/dock_solv.prm

>  <Rbt.Receptor>
prm/blind_docking_60.prm

>  <SCORE>
-56.1983

>  <SCORE.INTER>
-51.4469

>  <SCORE.INTER.CONST>
1

>  <SCORE.INTER.POLAR>
-7.76166

>  <SCORE.INTER.ROT>
9

>  <SCORE.INTER.SOLV>
42.2355

>  <SCORE.INTER.VDW>
-32.1043

>  <SCORE.INTER.norm>
-1.22493

>  <SCORE.INTRA>
-5.78576

>  <SCORE.INTRA.DIHEDRAL>
10.9128

>  <SCORE.INTRA.DIHEDRAL.0>
40.6252

>  <SCORE.INTRA.POLAR>
-0.193523

>  <SCORE.INTRA.POLAR.0>
-1.20161

>  <SCORE.INTRA.REPUL>
-0.115675

>  <SCORE.INTRA.REPUL.0>
0.115675

>  <SCORE.INTRA.SOLV>
-4.90311

>  <SCORE.INTRA.SOLV.lig_0>
-154.895

>  <SCORE.INTRA.VDW>
-7.55424

>  <SCORE.INTRA.VDW.0>
2.2925

>  <SCORE.INTRA.norm>
-0.137756

>  <SCORE.RESTR>
1.0344

>  <SCORE.RESTR.CAVITY>
1.0344

>  <SCORE.RESTR.norm>
0.0246286

>  <SCORE.SYSTEM>
0

>  <SCORE.SYSTEM.CONST>
0

>  <SCORE.SYSTEM.DIHEDRAL>
0

>  <SCORE.SYSTEM.SOLV>
0

>  <SCORE.SYSTEM.norm>
0

>  <SCORE.heavy>
42

>  <SCORE.norm>
-1.33805

>  <RMSD>
14.719

$$$$

 OpenBabel11021811413D
libRbt.so/2013.1/901 2013/11/27
 42 45  0  0  0  0  0  0  0  0999 V2000
   -2.7181  -11.3495    0.9946 O   0  0  0  0  0  0  0  0  0  0  0  0
   -3.6693  -10.8901    0.0449 C   0  0  0  0  0  0  0  0  0  0  0  0
   -3.2720   -9.5007   -0.4552 C   0  0  1  0  0  0  0  0  0  0  0  0
   -4.1476   -9.0532   -1.5129 O   0  0  0  0  0  0  0  0  0  0  0  0
   -3.3423   -8.4294    0.6203 C   0  0  2  0  0  0  0  0  0  0  0  0
   -3.4017   -7.1776   -0.2389 C   0  0  1  0  0  0  0  0  0  0  0  0
   -2.1042   -6.8768   -0.7408 O   0  0  0  0  0  0  0  0  0  0  0  0
   -4.3218   -7.6184   -1.3956 C   0  0  2  0  0  0  0  0  0  0  0  0
   -3.4701   -7.0269    4.5775 C   0  0  2  0  0  0  0  0  0  0  0  0
   -3.3020   -7.9575    3.4972 O   0  0  0  0  0  0  0  0  0  0  0  0
   -2.2832   -7.5317    2.5745 C   0  0  2  0  0  0  0  0  0  0  0  0
   -2.1804   -8.4573    1.4725 O   0  0  0  0  0  0  0  0  0  0  0  0
   -0.9267   -7.3975    3.2876 C   0  0  2  0  0  0  0  0  0  0  0  0
   -0.3360   -8.7026    3.5202 N   0  3  0  0  0  0  0  0  0  0  0  0
   -1.0138   -6.6060    4.5978 C   0  0  1  0  0  0  0  0  0  0  0  0
   -1.0895   -5.2196    4.3064 O   0  0  0  0  0  0  0  0  0  0  0  0
   -2.2165   -7.0169    5.4429 C   0  0  2  0  0  0  0  0  0  0  0  0
   -1.9981   -8.3063    6.0037 O   0  0  0  0  0  0  0  0  0  0  0  0
   -4.7004   -7.3828    5.4074 C   0  0  0  0  0  0  0  0  0  0  0  0
   -4.6957   -8.7949    5.7403 N   0  3  0  0  0  0  0  0  0  0  0  0
   -5.3990   -5.0669    2.0333 C   0  0  1  0  0  0  0  0  0  0  0  0
   -6.2354   -4.5851    0.9608 O   0  0  0  0  0  0  0  0  0  0  0  0
   -5.5265   -3.7597    0.0081 C   0  0  2  0  0  0  0  0  0  0  0  0
   -4.5218   -4.5095   -0.7188 O   0  0  0  0  0  0  0  0  0  0  0  0
   -4.9104   -2.5395    0.7032 C   0  0  2  0  0  0  0  0  0  0  0  0
   -4.0318   -1.8379   -0.2141 N   0  3  0  0  0  0  0  0  0  0  0  0
   -4.1228   -2.9357    1.9471 C   0  0  1  0  0  0  0  0  0  0  0  0
   -3.7744   -1.7730    2.6826 O   0  0  0  0  0  0  0  0  0  0  0  0
   -4.8753   -3.8986    2.8525 C   0  0  2  0  0  0  0  0  0  0  0  0
   -4.0239   -4.3722    3.8857 O   0  0  0  0  0  0  0  0  0  0  0  0
   -6.2102   -5.9606    2.9671 C   0  0  0  0  0  0  0  0  0  0  0  0
   -6.5013   -7.2344    2.3351 N   0  3  0  0  0  0  0  0  0  0  0  0
   -7.4494   -5.1611   -3.7361 C   0  0  2  0  0  0  0  0  0  0  0  0
   -6.2047   -4.3800   -4.1086 C   0  0  0  0  0  0  0  0  0  0  0  0
   -5.4849   -3.9006   -2.8617 C   0  0  1  0  0  0  0  0  0  0  0  0
   -5.0201   -5.0525   -1.9695 C   0  0  2  0  0  0  0  0  0  0  0  0
   -6.1778   -6.0390   -1.6915 C   0  0  1  0  0  0  0  0  0  0  0  0
   -7.0919   -6.3680   -2.8792 C   0  0  1  0  0  0  0  0  0  0  0  0
   -8.1208   -5.6024   -4.9437 N   0  3  0  0  0  0  0  0  0  0  0  0
   -4.3600   -3.0747   -3.2551 N   0  3  0  0  0  0  0  0  0  0  0  0
   -5.6987   -7.2623   -1.0809 O   0  0  0  0  0  0  0  0  0  0  0  0
   -8.2820   -6.9947   -2.4122 O   0  0  0  0  0  0  0  0  0  0  0  0
  1  2  1  0  0  0  0
  3  2  1  1  0  0  0
  3  4  1  0  0  0  0
  3  5  1  0  0  0  0
  4  8  1  0  0  0  0
  5  6  1  0  0  0  0
  5 12  1  1  0  0  0
  6  7  1  6  0  0  0
  6  8  1  0  0  0  0
  8 41  1  1  0  0  0
  9 10  1  0  0  0  0
  9 17  1  0  0  0  0
  9 19  1  1  0  0  0
 10 11  1  0  0  0  0
 11 12  1  6  0  0  0
 11 13  1  0  0  0  0
 13 14  1  1  0  0  0
 13 15  1  0  0  0  0
 15 16  1  6  0  0  0
 15 17  1  0  0  0  0
 17 18  1  6  0  0  0
 19 20  1  0  0  0  0
 21 22  1  0  0  0  0
 21 29  1  0  0  0  0
 21 31  1  1  0  0  0
 22 23  1  0  0  0  0
 23 24  1  1  0  0  0
 23 25  1  0  0  0  0
 25 26  1  6  0  0  0
 25 27  1  0  0  0  0
 27 28  1  1  0  0  0
 27 29  1  0  0  0  0
 29 30  1  1  0  0  0
 31 32  1  0  0  0  0
 33 34  1  0  0  0  0
 33 38  1  0  0  0  0
 33 39  1  6  0  0  0
 34 35  1  0  0  0  0
 35 36  1  0  0  0  0
 35 40  1  6  0  0  0
 36 24  1  1  0  0  0
 36 37  1  0  0  0  0
 37 38  1  0  0  0  0
 37 41  1  6  0  0  0
 38 42  1  1  0  0  0
M  CHG  6  14   1  20   1  26   1  32   1  39   1  40   1
M  END
>  <CHROM.1>
40.53024970,174.68260800,-174.62947320,179.52780803,-144.35934051,48.44759311
68.32892041,-178.65777927,-134.98442559,-176.99851457,166.49984208,72.23660354
92.71212932,60.15020103,59.06363988,-52.54139173,-178.00549243,-178.87567238
-57.57578133,-55.01159875,-27.21961057,-42.85171713,-4.24899854,-6.28967504
0.93631749,-0.03980519,1.10020565,-2.72945607

>  <Name>


>  <RI>
0

>  <Rbt.Current_Directory>
/home/itssahil/PROJECTS/Mol_Feturizer/New_Systems/rnas/1qd3

>  <Rbt.Executable>
rbdock ($Id: //depot/dev/client3/rdock/2013.1/src/exe/rbdock.cxx#4 $)

>  <Rbt.Library>
libRbt.so (2013.1, Build901 2013/11/27)

>  <Rbt.Parameter_File>
/export/apps/rDock/src/rDock_2013.1_src/data/scripts/dock_solv.prm

>  <Rbt.Receptor>
prm/blind_docking_60.prm

>  <SCORE>
-56.057

>  <SCORE.INTER>
-40.0447

>  <SCORE.INTER.CONST>
1

>  <SCORE.INTER.POLAR>
-4.43241

>  <SCORE.INTER.ROT>
9

>  <SCORE.INTER.SOLV>
32.5381

>  <SCORE.INTER.VDW>
-32.3678

>  <SCORE.INTER.norm>
-0.953445

>  <SCORE.INTRA>
-17.2542

>  <SCORE.INTRA.DIHEDRAL>
-14.5727

>  <SCORE.INTRA.DIHEDRAL.0>
40.6252

>  <SCORE.INTRA.POLAR>
0.189763

>  <SCORE.INTRA.POLAR.0>
-1.20161

>  <SCORE.INTRA.REPUL>
0.0598049

>  <SCORE.INTRA.REPUL.0>
0.115675

>  <SCORE.INTRA.SOLV>
-2.50666

>  <SCORE.INTRA.SOLV.lig_0>
-154.895

>  <SCORE.INTRA.VDW>
-9.65874

>  <SCORE.INTRA.VDW.0>
2.2925

>  <SCORE.INTRA.norm>
-0.410815

>  <SCORE.RESTR>
1.24187

>  <SCORE.RESTR.CAVITY>
1.24187

>  <SCORE.RESTR.norm>
0.0295682

>  <SCORE.SYSTEM>
0

>  <SCORE.SYSTEM.CONST>
0

>  <SCORE.SYSTEM.DIHEDRAL>
0

>  <SCORE.SYSTEM.SOLV>
0

>  <SCORE.SYSTEM.norm>
0

>  <SCORE.heavy>
42

>  <SCORE.norm>
-1.33469

>  <RMSD>
14.721

$$$$

 OpenBabel11021811413D
libRbt.so/2013.1/901 2013/11/27
 42 45  0  0  0  0  0  0  0  0999 V2000
   -8.8860   -5.3526   -3.0340 O   0  0  0  0  0  0  0  0  0  0  0  0
   -8.5646   -4.4736   -1.9655 C   0  0  0  0  0  0  0  0  0  0  0  0
   -7.0712   -4.1462   -1.9959 C   0  0  1  0  0  0  0  0  0  0  0  0
   -6.7720   -2.9842   -1.1922 O   0  0  0  0  0  0  0  0  0  0  0  0
   -6.1974   -5.2628   -1.4491 C   0  0  2  0  0  0  0  0  0  0  0  0
   -4.9233   -4.4932   -1.1435 C   0  0  1  0  0  0  0  0  0  0  0  0
   -4.2086   -4.2480   -2.3497 O   0  0  0  0  0  0  0  0  0  0  0  0
   -5.4703   -3.1661   -0.5795 C   0  0  2  0  0  0  0  0  0  0  0  0
   -8.3229   -8.6591   -3.9626 C   0  0  2  0  0  0  0  0  0  0  0  0
   -7.1835   -7.7965   -3.8239 O   0  0  0  0  0  0  0  0  0  0  0  0
   -7.1127   -7.2058   -2.5137 C   0  0  2  0  0  0  0  0  0  0  0  0
   -5.9918   -6.3015   -2.4268 O   0  0  0  0  0  0  0  0  0  0  0  0
   -7.0057   -8.2947   -1.4323 C   0  0  2  0  0  0  0  0  0  0  0  0
   -5.6630   -8.8438   -1.3858 N   0  3  0  0  0  0  0  0  0  0  0  0
   -8.0384   -9.4147   -1.6047 C   0  0  1  0  0  0  0  0  0  0  0  0
   -9.3021   -8.9653   -1.1422 O   0  0  0  0  0  0  0  0  0  0  0  0
   -8.1586   -9.8722   -3.0559 C   0  0  2  0  0  0  0  0  0  0  0  0
   -7.0010  -10.6100   -3.4299 O   0  0  0  0  0  0  0  0  0  0  0  0
   -8.4993   -9.0875   -5.4166 C   0  0  0  0  0  0  0  0  0  0  0  0
   -7.2444   -8.9701   -6.1352 N   0  3  0  0  0  0  0  0  0  0  0  0
   -4.8256   -6.4625    3.4706 C   0  0  1  0  0  0  0  0  0  0  0  0
   -4.4868   -5.0915    3.7665 O   0  0  0  0  0  0  0  0  0  0  0  0
   -3.1784   -4.7080    3.2844 C   0  0  2  0  0  0  0  0  0  0  0  0
   -3.1072   -4.7211    1.8371 O   0  0  0  0  0  0  0  0  0  0  0  0
   -2.0930   -5.5999    3.8993 C   0  0  2  0  0  0  0  0  0  0  0  0
   -0.8188   -5.3470    3.2526 N   0  3  0  0  0  0  0  0  0  0  0  0
   -2.4363   -7.0796    3.7685 C   0  0  1  0  0  0  0  0  0  0  0  0
   -1.5360   -7.8500    4.5496 O   0  0  0  0  0  0  0  0  0  0  0  0
   -3.8646   -7.4028    4.1795 C   0  0  2  0  0  0  0  0  0  0  0  0
   -4.1775   -8.7504    3.8587 O   0  0  0  0  0  0  0  0  0  0  0  0
   -6.2326   -6.7730    3.9733 C   0  0  0  0  0  0  0  0  0  0  0  0
   -6.9331   -7.6363    3.0402 N   0  3  0  0  0  0  0  0  0  0  0  0
   -3.2070   -0.4701    1.9741 C   0  0  2  0  0  0  0  0  0  0  0  0
   -1.9651   -1.1354    1.4144 C   0  0  0  0  0  0  0  0  0  0  0  0
   -1.9257   -2.6013    1.8047 C   0  0  1  0  0  0  0  0  0  0  0  0
   -3.1188   -3.3886    1.2611 C   0  0  2  0  0  0  0  0  0  0  0  0
   -4.4504   -2.6796    1.5999 C   0  0  1  0  0  0  0  0  0  0  0  0
   -4.4649   -1.1522    1.4536 C   0  0  1  0  0  0  0  0  0  0  0  0
   -3.2177    0.9292    1.5922 N   0  3  0  0  0  0  0  0  0  0  0  0
   -0.6795   -3.1792    1.3405 N   0  3  0  0  0  0  0  0  0  0  0  0
   -5.5610   -3.2580    0.8713 O   0  0  0  0  0  0  0  0  0  0  0  0
   -5.6087   -0.6160    2.1105 O   0  0  0  0  0  0  0  0  0  0  0  0
  1  2  1  0  0  0  0
  3  2  1  1  0  0  0
  3  4  1  0  0  0  0
  3  5  1  0  0  0  0
  4  8  1  0  0  0  0
  5  6  1  0  0  0  0
  5 12  1  6  0  0  0
  6  7  1  6  0  0  0
  6  8  1  0  0  0  0
  8 41  1  1  0  0  0
  9 10  1  0  0  0  0
  9 17  1  0  0  0  0
  9 19  1  6  0  0  0
 10 11  1  0  0  0  0
 11 12  1  6  0  0  0
 11 13  1  0  0  0  0
 13 14  1  6  0  0  0
 13 15  1  0  0  0  0
 15 16  1  6  0  0  0
 15 17  1  0  0  0  0
 17 18  1  6  0  0  0
 19 20  1  0  0  0  0
 21 22  1  0  0  0  0
 21 29  1  0  0  0  0
 21 31  1  1  0  0  0
 22 23  1  0  0  0  0
 23 24  1  6  0  0  0
 23 25  1  0  0  0  0
 25 26  1  6  0  0  0
 25 27  1  0  0  0  0
 27 28  1  1  0  0  0
 27 29  1  0  0  0  0
 29 30  1  6  0  0  0
 31 32  1  0  0  0  0
 33 34  1  0  0  0  0
 33 38  1  0  0  0  0
 33 39  1  6  0  0  0
 34 35  1  0  0  0  0
 35 36  1  0  0  0  0
 35 40  1  6  0  0  0
 36 24  1  1  0  0  0
 36 37  1  0  0  0  0
 37 38  1  0  0  0  0
 37 41  1  6  0  0  0
 38 42  1  1  0  0  0
M  CHG  6  14   1  20   1  26   1  32   1  39   1  40   1
M  END
>  <CHROM.1>
-53.92865773,163.46855450,-80.07365569,-54.04077238,-145.47755200,22.48698044
153.21276330,159.54674915,-67.67491655,61.69289505,169.53751484,141.65529441
105.13570141,59.11545161,-172.95403181,-60.23291253,54.79524681,-91.90528736
59.37903493,-32.94945909,-61.59120978,-169.79569987,-5.21573548,-5.58234690
0.17183630,2.81270175,0.97763583,2.83020265

>  <Name>


>  <RI>
0

>  <Rbt.Current_Directory>
/home/itssahil/PROJECTS/Mol_Feturizer/New_Systems/rnas/1qd3

>  <Rbt.Executable>
rbdock ($Id: //depot/dev/client3/rdock/2013.1/src/exe/rbdock.cxx#4 $)

>  <Rbt.Library>
libRbt.so (2013.1, Build901 2013/11/27)

>  <Rbt.Parameter_File>
/export/apps/rDock/src/rDock_2013.1_src/data/scripts/dock_solv.prm

>  <Rbt.Receptor>
prm/blind_docking_60.prm

>  <SCORE>
-47.7017

>  <SCORE.INTER>
-41.3752

>  <SCORE.INTER.CONST>
1

>  <SCORE.INTER.POLAR>
-7.49854

>  <SCORE.INTER.ROT>
9

>  <SCORE.INTER.SOLV>
44.2942

>  <SCORE.INTER.VDW>
-26.9531

>  <SCORE.INTER.norm>
-0.985125

>  <SCORE.INTRA>
-7.64881

>  <SCORE.INTRA.DIHEDRAL>
-8.96792

>  <SCORE.INTRA.DIHEDRAL.0>
40.6252

>  <SCORE.INTRA.POLAR>
1.17245

>  <SCORE.INTRA.POLAR.0>
-1.20161

>  <SCORE.INTRA.REPUL>
-0.115675

>  <SCORE.INTRA.REPUL.0>
0.115675

>  <SCORE.INTRA.SOLV>
-4.50331

>  <SCORE.INTRA.SOLV.lig_0>
-154.895

>  <SCORE.INTRA.VDW>
-4.32117

>  <SCORE.INTRA.VDW.0>
2.2925

>  <SCORE.INTRA.norm>
-0.182114

>  <SCORE.RESTR>
1.32233

>  <SCORE.RESTR.CAVITY>
1.32233

>  <SCORE.RESTR.norm>
0.0314841

>  <SCORE.SYSTEM>
0

>  <SCORE.SYSTEM.CONST>
0

>  <SCORE.SYSTEM.DIHEDRAL>
0

>  <SCORE.SYSTEM.SOLV>
0

>  <SCORE.SYSTEM.norm>
0

>  <SCORE.heavy>
42

>  <SCORE.norm>
-1.13575

>  <RMSD>
14.735

$$$$

 OpenBabel11021811413D
libRbt.so/2013.1/901 2013/11/27
 42 45  0  0  0  0  0  0  0  0999 V2000
   -4.7351  -11.3404   -2.4156 O   0  0  0  0  0  0  0  0  0  0  0  0
   -4.3800  -10.8270   -1.1396 C   0  0  0  0  0  0  0  0  0  0  0  0
   -3.9636   -9.3613   -1.2691 C   0  0  1  0  0  0  0  0  0  0  0  0
   -4.9027   -8.6179   -2.0760 O   0  0  0  0  0  0  0  0  0  0  0  0
   -3.8967   -8.6332    0.0631 C   0  0  2  0  0  0  0  0  0  0  0  0
   -3.9708   -7.1898   -0.4060 C   0  0  1  0  0  0  0  0  0  0  0  0
   -2.7070   -6.7863   -0.9217 O   0  0  0  0  0  0  0  0  0  0  0  0
   -5.0021   -7.2703   -1.5498 C   0  0  2  0  0  0  0  0  0  0  0  0
   -2.2658   -9.0822    4.3914 C   0  0  2  0  0  0  0  0  0  0  0  0
   -2.1997   -9.4850    3.0149 O   0  0  0  0  0  0  0  0  0  0  0  0
   -2.6968   -8.4636    2.1314 C   0  0  2  0  0  0  0  0  0  0  0  0
   -2.6707   -8.9219    0.7636 O   0  0  0  0  0  0  0  0  0  0  0  0
   -1.8743   -7.1719    2.2777 C   0  0  2  0  0  0  0  0  0  0  0  0
   -0.5950   -7.2971    1.6039 N   0  3  0  0  0  0  0  0  0  0  0  0
   -1.6732   -6.7512    3.7383 C   0  0  1  0  0  0  0  0  0  0  0  0
   -2.8616   -6.1456    4.2219 O   0  0  0  0  0  0  0  0  0  0  0  0
   -1.2995   -7.9297    4.6334 C   0  0  2  0  0  0  0  0  0  0  0  0
    0.0342   -8.3431    4.3603 O   0  0  0  0  0  0  0  0  0  0  0  0
   -1.9503  -10.2580    5.3116 C   0  0  0  0  0  0  0  0  0  0  0  0
   -2.3085  -11.5109    4.6737 N   0  3  0  0  0  0  0  0  0  0  0  0
   -4.3687   -1.8301   -0.5043 C   0  0  1  0  0  0  0  0  0  0  0  0
   -3.9511   -3.0920   -1.0659 O   0  0  0  0  0  0  0  0  0  0  0  0
   -4.8531   -4.1808   -0.7619 C   0  0  2  0  0  0  0  0  0  0  0  0
   -6.1508   -4.0003   -1.3808 O   0  0  0  0  0  0  0  0  0  0  0  0
   -4.9848   -4.3660    0.7547 C   0  0  2  0  0  0  0  0  0  0  0  0
   -6.0449   -5.3126    1.0480 N   0  3  0  0  0  0  0  0  0  0  0  0
   -5.2805   -3.0478    1.4614 C   0  0  1  0  0  0  0  0  0  0  0  0
   -5.1600   -3.2204    2.8650 O   0  0  0  0  0  0  0  0  0  0  0  0
   -4.3753   -1.9106    1.0135 C   0  0  2  0  0  0  0  0  0  0  0  0
   -4.8206   -0.6794    1.5637 O   0  0  0  0  0  0  0  0  0  0  0  0
   -3.3897   -0.7304   -0.9055 C   0  0  0  0  0  0  0  0  0  0  0  0
   -3.8969    0.5743   -0.5219 N   0  3  0  0  0  0  0  0  0  0  0  0
   -8.6153   -6.2822   -3.9920 C   0  0  2  0  0  0  0  0  0  0  0  0
   -7.6941   -5.2468   -4.6064 C   0  0  0  0  0  0  0  0  0  0  0  0
   -7.2076   -4.2737   -3.5485 C   0  0  1  0  0  0  0  0  0  0  0  0
   -6.4074   -4.9592   -2.4401 C   0  0  2  0  0  0  0  0  0  0  0  0
   -7.1756   -6.1761   -1.8745 C   0  0  1  0  0  0  0  0  0  0  0  0
   -7.8970   -7.0619   -2.8989 C   0  0  1  0  0  0  0  0  0  0  0  0
   -9.0701   -7.1951   -5.0234 N   0  3  0  0  0  0  0  0  0  0  0  0
   -6.4136   -3.2419   -4.1868 N   0  3  0  0  0  0  0  0  0  0  0  0
   -6.3309   -6.9893   -1.0236 O   0  0  0  0  0  0  0  0  0  0  0  0
   -8.8208   -7.9156   -2.2320 O   0  0  0  0  0  0  0  0  0  0  0  0
  1  2  1  0  0  0  0
  3  2  1  1  0  0  0
  3  4  1  0  0  0  0
  3  5  1  0  0  0  0
  4  8  1  0  0  0  0
  5  6  1  0  0  0  0
  5 12  1  6  0  0  0
  6  7  1  6  0  0  0
  6  8  1  0  0  0  0
  8 41  1  1  0  0  0
  9 10  1  0  0  0  0
  9 17  1  0  0  0  0
  9 19  1  1  0  0  0
 10 11  1  0  0  0  0
 11 12  1  6  0  0  0
 11 13  1  0  0  0  0
 13 14  1  1  0  0  0
 13 15  1  0  0  0  0
 15 16  1  1  0  0  0
 15 17  1  0  0  0  0
 17 18  1  6  0  0  0
 19 20  1  0  0  0  0
 21 22  1  0  0  0  0
 21 29  1  0  0  0  0
 21 31  1  1  0  0  0
 22 23  1  0  0  0  0
 23 24  1  1  0  0  0
 23 25  1  0  0  0  0
 25 26  1  6  0  0  0
 25 27  1  0  0  0  0
 27 28  1  1  0  0  0
 27 29  1  0  0  0  0
 29 30  1  1  0  0  0
 31 32  1  0  0  0  0
 33 34  1  0  0  0  0
 33 38  1  0  0  0  0
 33 39  1  6  0  0  0
 34 35  1  0  0  0  0
 35 36  1  0  0  0  0
 35 40  1  6  0  0  0
 36 24  1  1  0  0  0
 36 37  1  0  0  0  0
 37 38  1  0  0  0  0
 37 41  1  6  0  0  0
 38 42  1  1  0  0  0
M  CHG  6  14   1  20   1  26   1  32   1  39   1  40   1
M  END
>  <CHROM.1>
-62.51308193,46.67584641,-168.45245699,-31.10407635,-103.02001018,-27.82813701
133.94248373,-42.63619686,-176.21903479,-64.46861268,147.85537821,171.42376459
111.18243103,-144.30249417,-61.68013804,-53.26699184,70.47132162,-53.04241532
53.94979183,-72.08258700,-45.37127340,60.56250011,-4.48691495,-6.25803492
0.08545627,0.49442871,0.91995065,-3.07776888

>  <Name>


>  <RI>
0

>  <Rbt.Current_Directory>
/home/itssahil/PROJECTS/Mol_Feturizer/New_Systems/rnas/1qd3

>  <Rbt.Executable>
rbdock ($Id: //depot/dev/client3/rdock/2013.1/src/exe/rbdock.cxx#4 $)

>  <Rbt.Library>
libRbt.so (2013.1, Build901 2013/11/27)

>  <Rbt.Parameter_File>
/export/apps/rDock/src/rDock_2013.1_src/data/scripts/dock_solv.prm

>  <Rbt.Receptor>
prm/blind_docking_100.prm

>  <SCORE>
-40.7166

>  <SCORE.INTER>
-28.8709

>  <SCORE.INTER.CONST>
1

>  <SCORE.INTER.POLAR>
-3.68056

>  <SCORE.INTER.ROT>
9

>  <SCORE.INTER.SOLV>
24.2488

>  <SCORE.INTER.VDW>
-24.6616

>  <SCORE.INTER.norm>
-0.687402

>  <SCORE.INTRA>
-13.6703

>  <SCORE.INTRA.DIHEDRAL>
-3.3493

>  <SCORE.INTRA.DIHEDRAL.0>
40.6252

>  <SCORE.INTRA.POLAR>
-0.512052

>  <SCORE.INTRA.POLAR.0>
-1.20161

>  <SCORE.INTRA.REPUL>
-0.110851

>  <SCORE.INTRA.REPUL.0>
0.115675

>  <SCORE.INTRA.SOLV>
-4.44868

>  <SCORE.INTRA.SOLV.lig_0>
-154.895

>  <SCORE.INTRA.VDW>
-7.47609

>  <SCORE.INTRA.VDW.0>
2.2925

>  <SCORE.INTRA.norm>
-0.325484

>  <SCORE.RESTR>
1.82461

>  <SCORE.RESTR.CAVITY>
1.82461

>  <SCORE.RESTR.norm>
0.043443

>  <SCORE.SYSTEM>
0

>  <SCORE.SYSTEM.CONST>
0

>  <SCORE.SYSTEM.DIHEDRAL>
0

>  <SCORE.SYSTEM.SOLV>
0

>  <SCORE.SYSTEM.norm>
0

>  <SCORE.heavy>
42

>  <SCORE.norm>
-0.969442

>  <RMSD>
14.736

$$$$

 OpenBabel11021811413D
libRbt.so/2013.1/901 2013/11/27
 42 45  0  0  0  0  0  0  0  0999 V2000
   -4.8463   -2.3778   -0.9164 O   0  0  0  0  0  0  0  0  0  0  0  0
   -3.9133   -2.9636   -1.8130 C   0  0  0  0  0  0  0  0  0  0  0  0
   -3.7395   -4.4467   -1.4833 C   0  0  1  0  0  0  0  0  0  0  0  0
   -3.2357   -4.6310   -0.1425 O   0  0  0  0  0  0  0  0  0  0  0  0
   -5.0368   -5.2355   -1.5492 C   0  0  2  0  0  0  0  0  0  0  0  0
   -4.6621   -6.4545   -0.7231 C   0  0  1  0  0  0  0  0  0  0  0  0
   -3.8520   -7.3307   -1.4989 O   0  0  0  0  0  0  0  0  0  0  0  0
   -3.8239   -5.8343    0.4133 C   0  0  2  0  0  0  0  0  0  0  0  0
   -7.6943   -3.9694   -5.2353 C   0  0  2  0  0  0  0  0  0  0  0  0
   -6.5354   -4.6773   -4.7692 O   0  0  0  0  0  0  0  0  0  0  0  0
   -6.5852   -4.9154   -3.3509 C   0  0  2  0  0  0  0  0  0  0  0  0
   -5.3817   -5.5754   -2.9066 O   0  0  0  0  0  0  0  0  0  0  0  0
   -7.8212   -5.7547   -2.9844 C   0  0  2  0  0  0  0  0  0  0  0  0
   -7.6172   -7.1495   -3.3301 N   0  3  0  0  0  0  0  0  0  0  0  0
   -9.1137   -5.2276   -3.6186 C   0  0  1  0  0  0  0  0  0  0  0  0
   -9.5666   -4.0957   -2.8931 O   0  0  0  0  0  0  0  0  0  0  0  0
   -8.9266   -4.8525   -5.0862 C   0  0  2  0  0  0  0  0  0  0  0  0
   -8.7843   -6.0290   -5.8738 O   0  0  0  0  0  0  0  0  0  0  0  0
   -7.5108   -3.5333   -6.6862 C   0  0  0  0  0  0  0  0  0  0  0  0
   -8.7803   -3.5606   -7.3879 N   0  3  0  0  0  0  0  0  0  0  0  0
   -2.6712   -8.8267    2.5930 C   0  0  1  0  0  0  0  0  0  0  0  0
   -3.7165   -7.8648    2.3396 O   0  0  0  0  0  0  0  0  0  0  0  0
   -4.0740   -7.0870    3.5053 C   0  0  2  0  0  0  0  0  0  0  0  0
   -2.9888   -6.2316    3.9416 O   0  0  0  0  0  0  0  0  0  0  0  0
   -4.5476   -8.0021    4.6411 C   0  0  2  0  0  0  0  0  0  0  0  0
   -4.7003   -7.2357    5.8638 N   0  3  0  0  0  0  0  0  0  0  0  0
   -3.5729   -9.1485    4.8868 C   0  0  1  0  0  0  0  0  0  0  0  0
   -4.1580  -10.0921    5.7709 O   0  0  0  0  0  0  0  0  0  0  0  0
   -3.1416   -9.8536    3.6100 C   0  0  2  0  0  0  0  0  0  0  0  0
   -2.0996  -10.7785    3.8848 O   0  0  0  0  0  0  0  0  0  0  0  0
   -2.3252   -9.5727    1.3075 C   0  0  0  0  0  0  0  0  0  0  0  0
   -3.3670  -10.5253    0.9697 N   0  3  0  0  0  0  0  0  0  0  0  0
   -3.4212   -2.1631    2.7756 C   0  0  2  0  0  0  0  0  0  0  0  0
   -2.0278   -2.6681    3.0944 C   0  0  0  0  0  0  0  0  0  0  0  0
   -2.0989   -3.9751    3.8622 C   0  0  1  0  0  0  0  0  0  0  0  0
   -2.7899   -5.0868    3.0714 C   0  0  2  0  0  0  0  0  0  0  0  0
   -4.1497   -4.6062    2.5138 C   0  0  1  0  0  0  0  0  0  0  0  0
   -4.1865   -3.1826    1.9426 C   0  0  1  0  0  0  0  0  0  0  0  0
   -3.3255   -0.9121    2.0477 N   0  3  0  0  0  0  0  0  0  0  0  0
   -0.7565   -4.3750    4.2371 N   0  3  0  0  0  0  0  0  0  0  0  0
   -4.6889   -5.5420    1.5482 O   0  0  0  0  0  0  0  0  0  0  0  0
   -5.5373   -2.7598    1.7887 O   0  0  0  0  0  0  0  0  0  0  0  0
  1  2  1  0  0  0  0
  3  2  1  1  0  0  0
  3  4  1  0  0  0  0
  3  5  1  0  0  0  0
  4  8  1  0  0  0  0
  5  6  1  0  0  0  0
  5 12  1  6  0  0  0
  6  7  1  6  0  0  0
  6  8  1  0  0  0  0
  8 41  1  1  0  0  0
  9 10  1  0  0  0  0
  9 17  1  0  0  0  0
  9 19  1  6  0  0  0
 10 11  1  0  0  0  0
 11 12  1  6  0  0  0
 11 13  1  0  0  0  0
 13 14  1  6  0  0  0
 13 15  1  0  0  0  0
 15 16  1  1  0  0  0
 15 17  1  0  0  0  0
 17 18  1  6  0  0  0
 19 20  1  0  0  0  0
 21 22  1  0  0  0  0
 21 29  1  0  0  0  0
 21 31  1  6  0  0  0
 22 23  1  0  0  0  0
 23 24  1  1  0  0  0
 23 25  1  0  0  0  0
 25 26  1  1  0  0  0
 25 27  1  0  0  0  0
 27 28  1  1  0  0  0
 27 29  1  0  0  0  0
 29 30  1  1  0  0  0
 31 32  1  0  0  0  0
 33 34  1  0  0  0  0
 33 38  1  0  0  0  0
 33 39  1  6  0  0  0
 34 35  1  0  0  0  0
 35 36  1  0  0  0  0
 35 40  1  6  0  0  0
 36 24  1  1  0  0  0
 36 37  1  0  0  0  0
 37 38  1  0  0  0  0
 37 41  1  6  0  0  0
 38 42  1  1  0  0  0
M  CHG  6  14   1  20   1  26   1  32   1  39   1  40   1
M  END
>  <CHROM.1>
-70.03776109,-60.81651352,-113.86003907,-49.42014081,-45.18333623,146.46624854
149.67924622,-91.63299052,-179.33942291,-171.51711196,151.75668880,-73.83925489
73.80826943,156.13319760,147.84903840,174.39044420,-49.20288777,57.64703157
63.79746566,56.56649115,-56.77491569,83.07462179,-4.82414261,-5.71087604
0.17948862,-2.68952588,1.03548514,2.94329184

>  <Name>


>  <RI>
0

>  <Rbt.Current_Directory>
/home/itssahil/PROJECTS/Mol_Feturizer/New_Systems/rnas/1qd3

>  <Rbt.Executable>
rbdock ($Id: //depot/dev/client3/rdock/2013.1/src/exe/rbdock.cxx#4 $)

>  <Rbt.Library>
libRbt.so (2013.1, Build901 2013/11/27)

>  <Rbt.Parameter_File>
/export/apps/rDock/src/rDock_2013.1_src/data/scripts/dock_solv.prm

>  <Rbt.Receptor>
prm/blind_docking_100.prm

>  <SCORE>
-54.844

>  <SCORE.INTER>
-44.0366

>  <SCORE.INTER.CONST>
1

>  <SCORE.INTER.POLAR>
-6.27433

>  <SCORE.INTER.ROT>
9

>  <SCORE.INTER.SOLV>
31.0237

>  <SCORE.INTER.VDW>
-28.3845

>  <SCORE.INTER.norm>
-1.04849

>  <SCORE.INTRA>
-10.8074

>  <SCORE.INTRA.DIHEDRAL>
-9.81373

>  <SCORE.INTRA.DIHEDRAL.0>
40.6252

>  <SCORE.INTRA.POLAR>
0.350092

>  <SCORE.INTRA.POLAR.0>
-1.20161

>  <SCORE.INTRA.REPUL>
-0.115675

>  <SCORE.INTRA.REPUL.0>
0.115675

>  <SCORE.INTRA.SOLV>
-6.99289

>  <SCORE.INTRA.SOLV.lig_0>
-154.895

>  <SCORE.INTRA.VDW>
-3.01603

>  <SCORE.INTRA.VDW.0>
2.2925

>  <SCORE.INTRA.norm>
-0.257319

>  <SCORE.RESTR>
0

>  <SCORE.RESTR.CAVITY>
0

>  <SCORE.RESTR.norm>
0

>  <SCORE.SYSTEM>
0

>  <SCORE.SYSTEM.CONST>
0

>  <SCORE.SYSTEM.DIHEDRAL>
0

>  <SCORE.SYSTEM.SOLV>
0

>  <SCORE.SYSTEM.norm>
0

>  <SCORE.heavy>
42

>  <SCORE.norm>
-1.30581

>  <RMSD>
14.736

$$$$

 OpenBabel11021811413D
libRbt.so/2013.1/901 2013/11/27
 42 45  0  0  0  0  0  0  0  0999 V2000
   -1.9355   -3.5354    6.5711 O   0  0  0  0  0  0  0  0  0  0  0  0
   -0.8894   -3.0384    5.7487 C   0  0  0  0  0  0  0  0  0  0  0  0
   -1.0474   -3.5791    4.3270 C   0  0  1  0  0  0  0  0  0  0  0  0
   -1.2086   -5.0143    4.3260 O   0  0  0  0  0  0  0  0  0  0  0  0
   -2.2638   -3.0263    3.6029 C   0  0  2  0  0  0  0  0  0  0  0  0
   -2.4310   -4.0666    2.5081 C   0  0  1  0  0  0  0  0  0  0  0  0
   -1.4673   -3.8461    1.4840 O   0  0  0  0  0  0  0  0  0  0  0  0
   -2.1132   -5.3792    3.2529 C   0  0  2  0  0  0  0  0  0  0  0  0
   -4.3884    0.7432    1.7732 C   0  0  2  0  0  0  0  0  0  0  0  0
   -3.2573    0.2173    2.4841 O   0  0  0  0  0  0  0  0  0  0  0  0
   -3.1222   -1.2039    2.3035 C   0  0  2  0  0  0  0  0  0  0  0  0
   -2.0131   -1.7084    3.0763 O   0  0  0  0  0  0  0  0  0  0  0  0
   -2.9363   -1.5469    0.8155 C   0  0  2  0  0  0  0  0  0  0  0  0
   -1.5843   -1.2448    0.3825 N   0  3  0  0  0  0  0  0  0  0  0  0
   -3.9586   -0.8528   -0.0921 C   0  0  1  0  0  0  0  0  0  0  0  0
   -5.2013   -1.5321   -0.0072 O   0  0  0  0  0  0  0  0  0  0  0  0
   -4.1533    0.6162    0.2735 C   0  0  2  0  0  0  0  0  0  0  0  0
   -3.0067    1.3675   -0.1079 O   0  0  0  0  0  0  0  0  0  0  0  0
   -4.6398    2.1972    2.1625 C   0  0  0  0  0  0  0  0  0  0  0  0
   -3.4508    2.9960    1.9327 N   0  3  0  0  0  0  0  0  0  0  0  0
   -4.5623   -6.6842    0.7842 C   0  0  1  0  0  0  0  0  0  0  0  0
   -4.6729   -7.7315    1.7707 O   0  0  0  0  0  0  0  0  0  0  0  0
   -3.6246   -8.7229    1.6734 C   0  0  2  0  0  0  0  0  0  0  0  0
   -2.3217   -8.1682    1.9807 O   0  0  0  0  0  0  0  0  0  0  0  0
   -3.6319   -9.3833    0.2894 C   0  0  2  0  0  0  0  0  0  0  0  0
   -2.4545  -10.2167    0.1318 N   0  3  0  0  0  0  0  0  0  0  0  0
   -3.6671   -8.3488   -0.8301 C   0  0  1  0  0  0  0  0  0  0  0  0
   -3.9104   -8.9946   -2.0702 O   0  0  0  0  0  0  0  0  0  0  0  0
   -4.7113   -7.2645   -0.6127 C   0  0  2  0  0  0  0  0  0  0  0  0
   -4.5666   -6.2383   -1.5835 O   0  0  0  0  0  0  0  0  0  0  0  0
   -5.6768   -5.6607    0.9818 C   0  0  0  0  0  0  0  0  0  0  0  0
   -5.7753   -5.2707    2.3764 N   0  3  0  0  0  0  0  0  0  0  0  0
   -3.0911   -8.9660    6.0881 C   0  0  2  0  0  0  0  0  0  0  0  0
   -1.7843   -9.4598    5.4996 C   0  0  0  0  0  0  0  0  0  0  0  0
   -1.8485   -9.4548    3.9835 C   0  0  1  0  0  0  0  0  0  0  0  0
   -2.0796   -8.0569    3.4077 C   0  0  2  0  0  0  0  0  0  0  0  0
   -3.2817   -7.3676    4.0939 C   0  0  1  0  0  0  0  0  0  0  0  0
   -3.3959   -7.5518    5.6129 C   0  0  1  0  0  0  0  0  0  0  0  0
   -3.0057   -8.9860    7.5359 N   0  3  0  0  0  0  0  0  0  0  0  0
   -0.6239  -10.0263    3.4580 N   0  3  0  0  0  0  0  0  0  0  0  0
   -3.3495   -5.9598    3.7586 O   0  0  0  0  0  0  0  0  0  0  0  0
   -4.6962   -7.1688    6.0484 O   0  0  0  0  0  0  0  0  0  0  0  0
  1  2  1  0  0  0  0
  3  2  1  1  0  0  0
  3  4  1  0  0  0  0
  3  5  1  0  0  0  0
  4  8  1  0  0  0  0
  5  6  1  0  0  0  0
  5 12  1  6  0  0  0
  6  7  1  6  0  0  0
  6  8  1  0  0  0  0
  8 41  1  1  0  0  0
  9 10  1  0  0  0  0
  9 17  1  0  0  0  0
  9 19  1  6  0  0  0
 10 11  1  0  0  0  0
 11 12  1  1  0  0  0
 11 13  1  0  0  0  0
 13 14  1  6  0  0  0
 13 15  1  0  0  0  0
 15 16  1  1  0  0  0
 15 17  1  0  0  0  0
 17 18  1  1  0  0  0
 19 20  1  0  0  0  0
 21 22  1  0  0  0  0
 21 29  1  0  0  0  0
 21 31  1  1  0  0  0
 22 23  1  0  0  0  0
 23 24  1  6  0  0  0
 23 25  1  0  0  0  0
 25 26  1  6  0  0  0
 25 27  1  0  0  0  0
 27 28  1  6  0  0  0
 27 29  1  0  0  0  0
 29 30  1  6  0  0  0
 31 32  1  0  0  0  0
 33 34  1  0  0  0  0
 33 38  1  0  0  0  0
 33 39  1  1  0  0  0
 34 35  1  0  0  0  0
 35 36  1  0  0  0  0
 35 40  1  6  0  0  0
 36 24  1  6  0  0  0
 36 37  1  0  0  0  0
 37 38  1  0  0  0  0
 37 41  1  1  0  0  0
 38 42  1  6  0  0  0
M  CHG  6  14   1  20   1  26   1  32   1  39   1  40   1
M  END
>  <CHROM.1>
-177.24000219,-50.92813551,175.87169051,178.34145253,-82.08214156,56.13954415
144.77743462,-170.77349889,178.85792077,172.52490457,42.35077402,47.97515009
80.35614575,72.62660846,50.74265110,56.44402114,-64.01492862,-68.54285361
-75.65004616,-51.13986539,-19.34934525,-44.99353912,-3.13189725,-4.91278259
2.39786273,-1.75516613,1.27709983,3.13487332

>  <Name>


>  <RI>
0

>  <Rbt.Current_Directory>
/home/itssahil/PROJECTS/Mol_Feturizer/New_Systems/rnas/1qd3

>  <Rbt.Executable>
rbdock ($Id: //depot/dev/client3/rdock/2013.1/src/exe/rbdock.cxx#4 $)

>  <Rbt.Library>
libRbt.so (2013.1, Build901 2013/11/27)

>  <Rbt.Parameter_File>
/export/apps/rDock/src/rDock_2013.1_src/data/scripts/dock_solv.prm

>  <Rbt.Receptor>
prm/blind_docking_40.prm

>  <SCORE>
-58.1537

>  <SCORE.INTER>
-44.6344

>  <SCORE.INTER.CONST>
1

>  <SCORE.INTER.POLAR>
-5.50171

>  <SCORE.INTER.ROT>
9

>  <SCORE.INTER.SOLV>
33.3967

>  <SCORE.INTER.VDW>
-32.1495

>  <SCORE.INTER.norm>
-1.06272

>  <SCORE.INTRA>
-21.6539

>  <SCORE.INTRA.DIHEDRAL>
-20.3158

>  <SCORE.INTRA.DIHEDRAL.0>
40.6252

>  <SCORE.INTRA.POLAR>
-1.06361

>  <SCORE.INTRA.POLAR.0>
-1.20161

>  <SCORE.INTRA.REPUL>
-0.115675

>  <SCORE.INTRA.REPUL.0>
0.115675

>  <SCORE.INTRA.SOLV>
-2.67136

>  <SCORE.INTRA.SOLV.lig_0>
-154.895

>  <SCORE.INTRA.VDW>
-5.96572

>  <SCORE.INTRA.VDW.0>
2.2925

>  <SCORE.INTRA.norm>
-0.51557

>  <SCORE.RESTR>
8.13465

>  <SCORE.RESTR.CAVITY>
8.13465

>  <SCORE.RESTR.norm>
0.193682

>  <SCORE.SYSTEM>
0

>  <SCORE.SYSTEM.CONST>
0

>  <SCORE.SYSTEM.DIHEDRAL>
0

>  <SCORE.SYSTEM.SOLV>
0

>  <SCORE.SYSTEM.norm>
0

>  <SCORE.heavy>
42

>  <SCORE.norm>
-1.38461

>  <RMSD>
14.745

$$$$

 OpenBabel11021811413D
libRbt.so/2013.1/901 2013/11/27
 42 45  0  0  0  0  0  0  0  0999 V2000
   -3.6484    0.4443    2.7519 O   0  0  0  0  0  0  0  0  0  0  0  0
   -3.7636   -0.0593    1.4287 C   0  0  0  0  0  0  0  0  0  0  0  0
   -4.6460   -1.3082    1.4252 C   0  0  1  0  0  0  0  0  0  0  0  0
   -5.2140   -1.5461    0.1189 O   0  0  0  0  0  0  0  0  0  0  0  0
   -3.8948   -2.5788    1.7867 C   0  0  2  0  0  0  0  0  0  0  0  0
   -4.8385   -3.6283    1.2237 C   0  0  1  0  0  0  0  0  0  0  0  0
   -5.9499   -3.7938    2.0974 O   0  0  0  0  0  0  0  0  0  0  0  0
   -5.3015   -2.9776   -0.0957 C   0  0  2  0  0  0  0  0  0  0  0  0
   -0.9515   -3.7617    5.3486 C   0  0  2  0  0  0  0  0  0  0  0  0
   -2.2232   -3.2094    4.9755 O   0  0  0  0  0  0  0  0  0  0  0  0
   -2.4626   -3.3189    3.5607 C   0  0  2  0  0  0  0  0  0  0  0  0
   -3.7201   -2.7036    3.2118 O   0  0  0  0  0  0  0  0  0  0  0  0
   -2.4487   -4.7927    3.1203 C   0  0  2  0  0  0  0  0  0  0  0  0
   -3.6832   -5.4551    3.4995 N   0  3  0  0  0  0  0  0  0  0  0  0
   -1.2378   -5.5669    3.6543 C   0  0  1  0  0  0  0  0  0  0  0  0
   -0.0929   -5.2410    2.8825 O   0  0  0  0  0  0  0  0  0  0  0  0
   -0.9639   -5.2687    5.1259 C   0  0  2  0  0  0  0  0  0  0  0  0
   -1.9619   -5.8757    5.9383 O   0  0  0  0  0  0  0  0  0  0  0  0
   -0.6268   -3.4300    6.8024 C   0  0  0  0  0  0  0  0  0  0  0  0
    0.8014   -3.5292    7.0377 N   0  3  0  0  0  0  0  0  0  0  0  0
   -3.1434   -6.0681    0.0250 C   0  0  1  0  0  0  0  0  0  0  0  0
   -3.4917   -6.0076   -1.3740 O   0  0  0  0  0  0  0  0  0  0  0  0
   -4.7225   -6.6987   -1.6882 C   0  0  2  0  0  0  0  0  0  0  0  0
   -5.8726   -6.0675   -1.0729 O   0  0  0  0  0  0  0  0  0  0  0  0
   -4.6274   -8.1779   -1.2948 C   0  0  2  0  0  0  0  0  0  0  0  0
   -5.9288   -8.8079   -1.4177 N   0  3  0  0  0  0  0  0  0  0  0  0
   -4.1195   -8.3515    0.1322 C   0  0  1  0  0  0  0  0  0  0  0  0
   -3.8237   -9.7189    0.3713 O   0  0  0  0  0  0  0  0  0  0  0  0
   -2.8910   -7.5087    0.4387 C   0  0  2  0  0  0  0  0  0  0  0  0
   -2.5834   -7.5701    1.8237 O   0  0  0  0  0  0  0  0  0  0  0  0
   -1.8603   -5.2819    0.2783 C   0  0  0  0  0  0  0  0  0  0  0  0
   -0.8902   -5.5288   -0.7727 N   0  3  0  0  0  0  0  0  0  0  0  0
   -6.2928   -3.5908   -4.5065 C   0  0  2  0  0  0  0  0  0  0  0  0
   -7.5464   -4.2003   -3.9106 C   0  0  0  0  0  0  0  0  0  0  0  0
   -7.1902   -5.3434   -2.9782 C   0  0  1  0  0  0  0  0  0  0  0  0
   -6.3263   -4.8948   -1.7987 C   0  0  2  0  0  0  0  0  0  0  0  0
   -5.1102   -4.0727   -2.2845 C   0  0  1  0  0  0  0  0  0  0  0  0
   -5.3759   -3.0647   -3.4105 C   0  0  1  0  0  0  0  0  0  0  0  0
   -6.6605   -2.5062   -5.3967 N   0  3  0  0  0  0  0  0  0  0  0  0
   -8.4122   -5.9657   -2.5073 N   0  3  0  0  0  0  0  0  0  0  0  0
   -4.4365   -3.4179   -1.1817 O   0  0  0  0  0  0  0  0  0  0  0  0
   -4.1413   -2.6414   -3.9795 O   0  0  0  0  0  0  0  0  0  0  0  0
  1  2  1  0  0  0  0
  3  2  1  6  0  0  0
  3  4  1  0  0  0  0
  3  5  1  0  0  0  0
  4  8  1  0  0  0  0
  5  6  1  0  0  0  0
  5 12  1  1  0  0  0
  6  7  1  1  0  0  0
  6  8  1  0  0  0  0
  8 41  1  6  0  0  0
  9 10  1  0  0  0  0
  9 17  1  0  0  0  0
  9 19  1  1  0  0  0
 10 11  1  0  0  0  0
 11 12  1  1  0  0  0
 11 13  1  0  0  0  0
 13 14  1  1  0  0  0
 13 15  1  0  0  0  0
 15 16  1  6  0  0  0
 15 17  1  0  0  0  0
 17 18  1  1  0  0  0
 19 20  1  0  0  0  0
 21 22  1  0  0  0  0
 21 29  1  0  0  0  0
 21 31  1  6  0  0  0
 22 23  1  0  0  0  0
 23 24  1  1  0  0  0
 23 25  1  0  0  0  0
 25 26  1  1  0  0  0
 25 27  1  0  0  0  0
 27 28  1  6  0  0  0
 27 29  1  0  0  0  0
 29 30  1  1  0  0  0
 31 32  1  0  0  0  0
 33 34  1  0  0  0  0
 33 38  1  0  0  0  0
 33 39  1  6  0  0  0
 34 35  1  0  0  0  0
 35 36  1  0  0  0  0
 35 40  1  1  0  0  0
 36 24  1  6  0  0  0
 36 37  1  0  0  0  0
 37 38  1  0  0  0  0
 37 41  1  1  0  0  0
 38 42  1  6  0  0  0
M  CHG  6  14   1  20   1  26   1  32   1  39   1  40   1
M  END
>  <CHROM.1>
-62.79167673,157.49637099,-145.06056644,78.42720871,-120.62965753,-158.74332126
169.79660137,73.17046249,-178.08340953,54.04983246,-79.12592340,-41.81790575
79.42801070,81.22604509,69.39974901,-76.95016004,-72.73551424,-52.32472781
-176.79824952,70.51183168,-33.92379111,-60.11859627,-3.85283140,-4.61065743
0.72313939,0.26984402,-1.00656675,0.23178569

>  <Name>


>  <RI>
0

>  <Rbt.Current_Directory>
/home/itssahil/PROJECTS/Mol_Feturizer/New_Systems/rnas/1qd3

>  <Rbt.Executable>
rbdock ($Id: //depot/dev/client3/rdock/2013.1/src/exe/rbdock.cxx#4 $)

>  <Rbt.Library>
libRbt.so (2013.1, Build901 2013/11/27)

>  <Rbt.Parameter_File>
/export/apps/rDock/src/rDock_2013.1_src/data/scripts/dock_solv.prm

>  <Rbt.Receptor>
prm/blind_docking_40.prm

>  <SCORE>
-52.429

>  <SCORE.INTER>
-39.0577

>  <SCORE.INTER.CONST>
1

>  <SCORE.INTER.POLAR>
-4.45117

>  <SCORE.INTER.ROT>
9

>  <SCORE.INTER.SOLV>
34.5083

>  <SCORE.INTER.VDW>
-32.304

>  <SCORE.INTER.norm>
-0.929944

>  <SCORE.INTRA>
-14.4853

>  <SCORE.INTRA.DIHEDRAL>
-11.5244

>  <SCORE.INTRA.DIHEDRAL.0>
40.6252

>  <SCORE.INTRA.POLAR>
-0.129677

>  <SCORE.INTRA.POLAR.0>
-1.20161

>  <SCORE.INTRA.REPUL>
-0.0428705

>  <SCORE.INTRA.REPUL.0>
0.115675

>  <SCORE.INTRA.SOLV>
-3.64478

>  <SCORE.INTRA.SOLV.lig_0>
-154.895

>  <SCORE.INTRA.VDW>
-6.24545

>  <SCORE.INTRA.VDW.0>
2.2925

>  <SCORE.INTRA.norm>
-0.344888

>  <SCORE.RESTR>
1.11399

>  <SCORE.RESTR.CAVITY>
1.11399

>  <SCORE.RESTR.norm>
0.0265236

>  <SCORE.SYSTEM>
0

>  <SCORE.SYSTEM.CONST>
0

>  <SCORE.SYSTEM.DIHEDRAL>
0

>  <SCORE.SYSTEM.SOLV>
0

>  <SCORE.SYSTEM.norm>
0

>  <SCORE.heavy>
42

>  <SCORE.norm>
-1.24831

>  <RMSD>
14.746

$$$$

 OpenBabel11021811413D
libRbt.so/2013.1/901 2013/11/27
 42 45  0  0  0  0  0  0  0  0999 V2000
   -3.2590   -3.1011   -1.8226 O   0  0  0  0  0  0  0  0  0  0  0  0
   -4.4885   -3.7897   -2.0010 C   0  0  0  0  0  0  0  0  0  0  0  0
   -4.3940   -5.1859   -1.3844 C   0  0  1  0  0  0  0  0  0  0  0  0
   -3.7429   -5.1478   -0.0958 O   0  0  0  0  0  0  0  0  0  0  0  0
   -5.7481   -5.8323   -1.1440 C   0  0  2  0  0  0  0  0  0  0  0  0
   -5.3718   -6.8923   -0.1224 C   0  0  1  0  0  0  0  0  0  0  0  0
   -4.7376   -7.9862   -0.7758 O   0  0  0  0  0  0  0  0  0  0  0  0
   -4.3513   -6.1467    0.7615 C   0  0  2  0  0  0  0  0  0  0  0  0
   -8.0190   -5.0095   -5.2545 C   0  0  2  0  0  0  0  0  0  0  0  0
   -7.5963   -5.9757   -4.2802 O   0  0  0  0  0  0  0  0  0  0  0  0
   -6.7387   -5.3931   -3.2823 C   0  0  2  0  0  0  0  0  0  0  0  0
   -6.2860   -6.4008   -2.3542 O   0  0  0  0  0  0  0  0  0  0  0  0
   -7.4671   -4.2648   -2.5322 C   0  0  2  0  0  0  0  0  0  0  0  0
   -8.4101   -4.8094   -1.5727 N   0  3  0  0  0  0  0  0  0  0  0  0
   -8.1672   -3.2751   -3.4709 C   0  0  1  0  0  0  0  0  0  0  0  0
   -7.2053   -2.3938   -4.0284 O   0  0  0  0  0  0  0  0  0  0  0  0
   -8.9255   -3.9796   -4.5927 C   0  0  2  0  0  0  0  0  0  0  0  0
  -10.0872   -4.6134   -4.0700 O   0  0  0  0  0  0  0  0  0  0  0  0
   -8.7325   -5.6943   -6.4167 C   0  0  0  0  0  0  0  0  0  0  0  0
   -8.2827   -7.0673   -6.5491 N   0  3  0  0  0  0  0  0  0  0  0  0
   -1.7388   -9.0127    3.6058 C   0  0  1  0  0  0  0  0  0  0  0  0
   -2.6600   -8.3923    2.6847 O   0  0  0  0  0  0  0  0  0  0  0  0
   -3.6046   -7.5066    3.3287 C   0  0  2  0  0  0  0  0  0  0  0  0
   -2.9544   -6.3517    3.9145 O   0  0  0  0  0  0  0  0  0  0  0  0
   -4.4308   -8.2655    4.3742 C   0  0  2  0  0  0  0  0  0  0  0  0
   -5.2200   -7.3313    5.1554 N   0  3  0  0  0  0  0  0  0  0  0  0
   -3.5458   -9.0797    5.3114 C   0  0  1  0  0  0  0  0  0  0  0  0
   -4.3510   -9.9414    6.1008 O   0  0  0  0  0  0  0  0  0  0  0  0
   -2.4941   -9.9008    4.5812 C   0  0  2  0  0  0  0  0  0  0  0  0
   -1.5902  -10.4825    5.5091 O   0  0  0  0  0  0  0  0  0  0  0  0
   -0.7533   -9.8945    2.8444 C   0  0  0  0  0  0  0  0  0  0  0  0
   -1.3175  -10.3201    1.5766 N   0  3  0  0  0  0  0  0  0  0  0  0
   -3.2707   -2.2753    2.7387 C   0  0  2  0  0  0  0  0  0  0  0  0
   -1.8892   -2.8978    2.7851 C   0  0  0  0  0  0  0  0  0  0  0  0
   -1.9124   -4.1839    3.5901 C   0  0  1  0  0  0  0  0  0  0  0  0
   -2.8410   -5.2396    2.9884 C   0  0  2  0  0  0  0  0  0  0  0  0
   -4.2403   -4.6473    2.7022 C   0  0  1  0  0  0  0  0  0  0  0  0
   -4.2725   -3.2331    2.1079 C   0  0  1  0  0  0  0  0  0  0  0  0
   -3.2201   -1.0466    1.9695 N   0  3  0  0  0  0  0  0  0  0  0  0
   -0.5604   -4.6965    3.6985 N   0  3  0  0  0  0  0  0  0  0  0  0
   -5.0415   -5.5433    1.8934 O   0  0  0  0  0  0  0  0  0  0  0  0
   -5.5859   -2.6943    2.2168 O   0  0  0  0  0  0  0  0  0  0  0  0
  1  2  1  0  0  0  0
  3  2  1  1  0  0  0
  3  4  1  0  0  0  0
  3  5  1  0  0  0  0
  4  8  1  0  0  0  0
  5  6  1  0  0  0  0
  5 12  1  6  0  0  0
  6  7  1  6  0  0  0
  6  8  1  0  0  0  0
  8 41  1  1  0  0  0
  9 10  1  0  0  0  0
  9 17  1  0  0  0  0
  9 19  1  6  0  0  0
 10 11  1  0  0  0  0
 11 12  1  1  0  0  0
 11 13  1  0  0  0  0
 13 14  1  1  0  0  0
 13 15  1  0  0  0  0
 15 16  1  6  0  0  0
 15 17  1  0  0  0  0
 17 18  1  1  0  0  0
 19 20  1  0  0  0  0
 21 22  1  0  0  0  0
 21 29  1  0  0  0  0
 21 31  1  6  0  0  0
 22 23  1  0  0  0  0
 23 24  1  1  0  0  0
 23 25  1  0  0  0  0
 25 26  1  1  0  0  0
 25 27  1  0  0  0  0
 27 28  1  6  0  0  0
 27 29  1  0  0  0  0
 29 30  1  1  0  0  0
 31 32  1  0  0  0  0
 33 34  1  0  0  0  0
 33 38  1  0  0  0  0
 33 39  1  6  0  0  0
 34 35  1  0  0  0  0
 35 36  1  0  0  0  0
 35 40  1  6  0  0  0
 36 24  1  1  0  0  0
 36 37  1  0  0  0  0
 37 38  1  0  0  0  0
 37 41  1  6  0  0  0
 38 42  1  1  0  0  0
M  CHG  6  14   1  20   1  26   1  32   1  39   1  40   1
M  END
>  <CHROM.1>
-55.62800062,43.28768722,-72.42746159,-61.61016480,-54.45358931,-25.83847662
-163.65534174,78.59073052,59.45074995,52.90378975,30.11448247,-24.28699282
89.23811078,-168.98165738,-50.56206312,64.60661056,58.65544517,-162.57316764
175.58635356,-154.57935365,-44.39767514,72.50446392,-4.75656380,-5.87123333
0.48568277,-2.74544611,0.98684858,3.03834387

>  <Name>


>  <RI>
0

>  <Rbt.Current_Directory>
/home/itssahil/PROJECTS/Mol_Feturizer/New_Systems/rnas/1qd3

>  <Rbt.Executable>
rbdock ($Id: //depot/dev/client3/rdock/2013.1/src/exe/rbdock.cxx#4 $)

>  <Rbt.Library>
libRbt.so (2013.1, Build901 2013/11/27)

>  <Rbt.Parameter_File>
/export/apps/rDock/src/rDock_2013.1_src/data/scripts/dock_solv.prm

>  <Rbt.Receptor>
prm/blind_docking_80.prm

>  <SCORE>
-47.9278

>  <SCORE.INTER>
-32.0504

>  <SCORE.INTER.CONST>
1

>  <SCORE.INTER.POLAR>
-4.32967

>  <SCORE.INTER.ROT>
9

>  <SCORE.INTER.SOLV>
32.5656

>  <SCORE.INTER.VDW>
-27.3899

>  <SCORE.INTER.norm>
-0.763105

>  <SCORE.INTRA>
-16.4758

>  <SCORE.INTRA.DIHEDRAL>
-20.0004

>  <SCORE.INTRA.DIHEDRAL.0>
40.6252

>  <SCORE.INTRA.POLAR>
0.748716

>  <SCORE.INTRA.POLAR.0>
-1.20161

>  <SCORE.INTRA.REPUL>
-0.115675

>  <SCORE.INTRA.REPUL.0>
0.115675

>  <SCORE.INTRA.SOLV>
-9.59064

>  <SCORE.INTRA.SOLV.lig_0>
-154.895

>  <SCORE.INTRA.VDW>
-3.6475

>  <SCORE.INTRA.VDW.0>
2.2925

>  <SCORE.INTRA.norm>
-0.39228

>  <SCORE.RESTR>
0.598408

>  <SCORE.RESTR.CAVITY>
0.598408

>  <SCORE.RESTR.norm>
0.0142478

>  <SCORE.SYSTEM>
0

>  <SCORE.SYSTEM.CONST>
0

>  <SCORE.SYSTEM.DIHEDRAL>
0

>  <SCORE.SYSTEM.SOLV>
0

>  <SCORE.SYSTEM.norm>
0

>  <SCORE.heavy>
42

>  <SCORE.norm>
-1.14114

>  <RMSD>
14.754

$$$$

 OpenBabel11021811413D
libRbt.so/2013.1/901 2013/11/27
 42 45  0  0  0  0  0  0  0  0999 V2000
   -5.3034   -2.8844   -0.9029 O   0  0  0  0  0  0  0  0  0  0  0  0
   -4.5502   -3.6151   -1.8602 C   0  0  0  0  0  0  0  0  0  0  0  0
   -4.1188   -4.9561   -1.2653 C   0  0  1  0  0  0  0  0  0  0  0  0
   -3.4873   -4.7807    0.0216 O   0  0  0  0  0  0  0  0  0  0  0  0
   -5.2762   -5.9125   -1.0306 C   0  0  2  0  0  0  0  0  0  0  0  0
   -4.6493   -6.8651   -0.0264 C   0  0  1  0  0  0  0  0  0  0  0  0
   -3.7751   -7.7652   -0.6984 O   0  0  0  0  0  0  0  0  0  0  0  0
   -3.8320   -5.9085    0.8655 C   0  0  2  0  0  0  0  0  0  0  0  0
   -8.8605   -8.0955   -3.1766 C   0  0  2  0  0  0  0  0  0  0  0  0
   -7.6232   -7.3808   -3.3174 O   0  0  0  0  0  0  0  0  0  0  0  0
   -6.8770   -7.3501   -2.0874 C   0  0  2  0  0  0  0  0  0  0  0  0
   -5.6698   -6.5765   -2.2476 O   0  0  0  0  0  0  0  0  0  0  0  0
   -6.5393   -8.7768   -1.6216 C   0  0  2  0  0  0  0  0  0  0  0  0
   -5.4502   -9.3300   -2.4054 N   0  3  0  0  0  0  0  0  0  0  0  0
   -7.7497   -9.7176   -1.6449 C   0  0  1  0  0  0  0  0  0  0  0  0
   -8.5706   -9.4568   -0.5176 O   0  0  0  0  0  0  0  0  0  0  0  0
   -8.5728   -9.5696   -2.9217 C   0  0  2  0  0  0  0  0  0  0  0  0
   -7.8657  -10.1282   -4.0228 O   0  0  0  0  0  0  0  0  0  0  0  0
   -9.7284   -7.9183   -4.4192 C   0  0  0  0  0  0  0  0  0  0  0  0
   -8.9417   -8.1262   -5.6204 N   0  3  0  0  0  0  0  0  0  0  0  0
   -2.3957   -8.7765    3.1212 C   0  0  1  0  0  0  0  0  0  0  0  0
   -3.4828   -7.8850    2.7965 O   0  0  0  0  0  0  0  0  0  0  0  0
   -3.9504   -7.1158    3.9284 C   0  0  2  0  0  0  0  0  0  0  0  0
   -2.9452   -6.1888    4.4079 O   0  0  0  0  0  0  0  0  0  0  0  0
   -4.4278   -8.0436    5.0522 C   0  0  2  0  0  0  0  0  0  0  0  0
   -4.6937   -7.2722    6.2522 N   0  3  0  0  0  0  0  0  0  0  0  0
   -3.3993   -9.1237    5.3685 C   0  0  1  0  0  0  0  0  0  0  0  0
   -3.9724  -10.0902    6.2355 O   0  0  0  0  0  0  0  0  0  0  0  0
   -2.8567   -9.8173    4.1284 C   0  0  2  0  0  0  0  0  0  0  0  0
   -1.7762  -10.6717    4.4738 O   0  0  0  0  0  0  0  0  0  0  0  0
   -1.9350   -9.5164    1.8686 C   0  0  0  0  0  0  0  0  0  0  0  0
   -3.0705   -9.8889    1.0448 N   0  3  0  0  0  0  0  0  0  0  0  0
   -3.0930   -2.1703    3.0187 C   0  0  2  0  0  0  0  0  0  0  0  0
   -1.7354   -2.7624    3.3418 C   0  0  0  0  0  0  0  0  0  0  0  0
   -1.8887   -4.0152    4.1843 C   0  0  1  0  0  0  0  0  0  0  0  0
   -2.6789   -5.1128    3.4704 C   0  0  2  0  0  0  0  0  0  0  0  0
   -4.0101   -4.5609    2.9098 C   0  0  1  0  0  0  0  0  0  0  0  0
   -3.9512   -3.1727    2.2588 C   0  0  1  0  0  0  0  0  0  0  0  0
   -2.9185   -0.9729    2.2190 N   0  3  0  0  0  0  0  0  0  0  0  0
   -0.5728   -4.4957    4.5582 N   0  3  0  0  0  0  0  0  0  0  0  0
   -4.6393   -5.5048    2.0086 O   0  0  0  0  0  0  0  0  0  0  0  0
   -5.2691   -2.6566    2.1042 O   0  0  0  0  0  0  0  0  0  0  0  0
  1  2  1  0  0  0  0
  3  2  1  1  0  0  0
  3  4  1  0  0  0  0
  3  5  1  0  0  0  0
  4  8  1  0  0  0  0
  5  6  1  0  0  0  0
  5 12  1  6  0  0  0
  6  7  1  6  0  0  0
  6  8  1  0  0  0  0
  8 41  1  1  0  0  0
  9 10  1  0  0  0  0
  9 17  1  0  0  0  0
  9 19  1  6  0  0  0
 10 11  1  0  0  0  0
 11 12  1  6  0  0  0
 11 13  1  0  0  0  0
 13 14  1  6  0  0  0
 13 15  1  0  0  0  0
 15 16  1  1  0  0  0
 15 17  1  0  0  0  0
 17 18  1  6  0  0  0
 19 20  1  0  0  0  0
 21 22  1  0  0  0  0
 21 29  1  0  0  0  0
 21 31  1  6  0  0  0
 22 23  1  0  0  0  0
 23 24  1  1  0  0  0
 23 25  1  0  0  0  0
 25 26  1  1  0  0  0
 25 27  1  0  0  0  0
 27 28  1  1  0  0  0
 27 29  1  0  0  0  0
 29 30  1  1  0  0  0
 31 32  1  0  0  0  0
 33 34  1  0  0  0  0
 33 38  1  0  0  0  0
 33 39  1  6  0  0  0
 34 35  1  0  0  0  0
 35 36  1  0  0  0  0
 35 40  1  6  0  0  0
 36 24  1  1  0  0  0
 36 37  1  0  0  0  0
 37 38  1  0  0  0  0
 37 41  1  6  0  0  0
 38 42  1  1  0  0  0
M  CHG  6  14   1  20   1  26   1  32   1  39   1  40   1
M  END
>  <CHROM.1>
-56.49142157,-50.77841129,-172.19093474,66.14476289,-60.92328008,46.80842790
148.67868888,-171.09036753,42.53620300,-174.54568718,-67.18675488,-39.31652350
68.30128214,166.05461703,-101.89198017,-178.93441820,-172.99252233,1.26811416
-145.20535825,-168.51585733,-57.75318790,-176.77429131,-4.69554164,-6.80574357
0.93222337,-3.13345947,1.00086957,2.81907921

>  <Name>


>  <RI>
0

>  <Rbt.Current_Directory>
/home/itssahil/PROJECTS/Mol_Feturizer/New_Systems/rnas/1qd3

>  <Rbt.Executable>
rbdock ($Id: //depot/dev/client3/rdock/2013.1/src/exe/rbdock.cxx#4 $)

>  <Rbt.Library>
libRbt.so (2013.1, Build901 2013/11/27)

>  <Rbt.Parameter_File>
/export/apps/rDock/src/rDock_2013.1_src/data/scripts/dock_solv.prm

>  <Rbt.Receptor>
prm/blind_docking_60.prm

>  <SCORE>
-44.3692

>  <SCORE.INTER>
-24.2552

>  <SCORE.INTER.CONST>
1

>  <SCORE.INTER.POLAR>
-2.41615

>  <SCORE.INTER.ROT>
9

>  <SCORE.INTER.SOLV>
27.1599

>  <SCORE.INTER.VDW>
-26.7696

>  <SCORE.INTER.norm>
-0.577506

>  <SCORE.INTRA>
-21.4843

>  <SCORE.INTRA.DIHEDRAL>
-19.8229

>  <SCORE.INTRA.DIHEDRAL.0>
40.6252

>  <SCORE.INTRA.POLAR>
-1.20321

>  <SCORE.INTRA.POLAR.0>
-1.20161

>  <SCORE.INTRA.REPUL>
-0.115675

>  <SCORE.INTRA.REPUL.0>
0.115675

>  <SCORE.INTRA.SOLV>
-2.21698

>  <SCORE.INTRA.SOLV.lig_0>
-154.895

>  <SCORE.INTRA.VDW>
-5.79512

>  <SCORE.INTRA.VDW.0>
2.2925

>  <SCORE.INTRA.norm>
-0.511532

>  <SCORE.RESTR>
1.37035

>  <SCORE.RESTR.CAVITY>
1.37035

>  <SCORE.RESTR.norm>
0.0326275

>  <SCORE.SYSTEM>
0

>  <SCORE.SYSTEM.CONST>
0

>  <SCORE.SYSTEM.DIHEDRAL>
0

>  <SCORE.SYSTEM.SOLV>
0

>  <SCORE.SYSTEM.norm>
0

>  <SCORE.heavy>
42

>  <SCORE.norm>
-1.05641

>  <RMSD>
14.782

$$$$

 OpenBabel11021811413D
libRbt.so/2013.1/901 2013/11/27
 42 45  0  0  0  0  0  0  0  0999 V2000
   -1.0190   -4.5179   -0.3193 O   0  0  0  0  0  0  0  0  0  0  0  0
   -1.7814   -4.1045    0.8056 C   0  0  0  0  0  0  0  0  0  0  0  0
   -3.2486   -3.9436    0.4057 C   0  0  1  0  0  0  0  0  0  0  0  0
   -3.6838   -5.0287   -0.4420 O   0  0  0  0  0  0  0  0  0  0  0  0
   -4.1998   -3.9381    1.5908 C   0  0  2  0  0  0  0  0  0  0  0  0
   -5.5095   -4.2720    0.8964 C   0  0  1  0  0  0  0  0  0  0  0  0
   -6.0085   -3.1176    0.2300 O   0  0  0  0  0  0  0  0  0  0  0  0
   -5.0705   -5.3266   -0.1398 C   0  0  2  0  0  0  0  0  0  0  0  0
   -4.6350    0.6978    0.8318 C   0  0  2  0  0  0  0  0  0  0  0  0
   -4.7478   -0.3886    1.7638 O   0  0  0  0  0  0  0  0  0  0  0  0
   -4.0510   -1.5623    1.3082 C   0  0  2  0  0  0  0  0  0  0  0  0
   -4.2326   -2.6507    2.2378 O   0  0  0  0  0  0  0  0  0  0  0  0
   -2.5534   -1.2656    1.1192 C   0  0  2  0  0  0  0  0  0  0  0  0
   -1.8729   -1.2153    2.4001 N   0  3  0  0  0  0  0  0  0  0  0  0
   -2.2923    0.0175    0.3215 C   0  0  1  0  0  0  0  0  0  0  0  0
   -2.4994   -0.2359   -1.0590 O   0  0  0  0  0  0  0  0  0  0  0  0
   -3.1879    1.1694    0.7696 C   0  0  2  0  0  0  0  0  0  0  0  0
   -2.7710    1.6405    2.0458 O   0  0  0  0  0  0  0  0  0  0  0  0
   -5.5633    1.8431    1.2259 C   0  0  0  0  0  0  0  0  0  0  0  0
   -5.9941    2.5740    0.0490 N   0  3  0  0  0  0  0  0  0  0  0  0
   -3.8728   -7.9354    3.5124 C   0  0  1  0  0  0  0  0  0  0  0  0
   -3.9815   -6.9428    2.4707 O   0  0  0  0  0  0  0  0  0  0  0  0
   -2.8052   -6.8600    1.6335 C   0  0  2  0  0  0  0  0  0  0  0  0
   -2.5997   -8.0704    0.8638 O   0  0  0  0  0  0  0  0  0  0  0  0
   -1.5671   -6.5217    2.4728 C   0  0  2  0  0  0  0  0  0  0  0  0
   -0.3697   -6.6489    1.6631 N   0  3  0  0  0  0  0  0  0  0  0  0
   -1.4461   -7.4287    3.6923 C   0  0  1  0  0  0  0  0  0  0  0  0
   -0.4352   -6.9345    4.5572 O   0  0  0  0  0  0  0  0  0  0  0  0
   -2.7475   -7.5702    4.4666 C   0  0  2  0  0  0  0  0  0  0  0  0
   -2.6188   -8.5664    5.4705 O   0  0  0  0  0  0  0  0  0  0  0  0
   -5.1663   -7.9884    4.3203 C   0  0  0  0  0  0  0  0  0  0  0  0
   -5.0428   -8.9180    5.4281 N   0  3  0  0  0  0  0  0  0  0  0  0
   -5.4113   -9.6719   -1.8983 C   0  0  2  0  0  0  0  0  0  0  0  0
   -4.7613  -10.6224   -0.9124 C   0  0  0  0  0  0  0  0  0  0  0  0
   -3.5266   -9.9889   -0.2984 C   0  0  1  0  0  0  0  0  0  0  0  0
   -3.8444   -8.7114    0.4799 C   0  0  2  0  0  0  0  0  0  0  0  0
   -4.6955   -7.7416   -0.3722 C   0  0  1  0  0  0  0  0  0  0  0  0
   -5.8139   -8.3743   -1.2107 C   0  0  1  0  0  0  0  0  0  0  0  0
   -6.5837  -10.3026   -2.4743 N   0  3  0  0  0  0  0  0  0  0  0  0
   -2.8760  -10.9599    0.5597 N   0  3  0  0  0  0  0  0  0  0  0  0
   -5.2285   -6.6583    0.4286 O   0  0  0  0  0  0  0  0  0  0  0  0
   -6.2762   -7.4403   -2.1807 O   0  0  0  0  0  0  0  0  0  0  0  0
  1  2  1  0  0  0  0
  3  2  1  1  0  0  0
  3  4  1  0  0  0  0
  3  5  1  0  0  0  0
  4  8  1  0  0  0  0
  5  6  1  0  0  0  0
  5 12  1  6  0  0  0
  6  7  1  6  0  0  0
  6  8  1  0  0  0  0
  8 41  1  1  0  0  0
  9 10  1  0  0  0  0
  9 17  1  0  0  0  0
  9 19  1  1  0  0  0
 10 11  1  0  0  0  0
 11 12  1  1  0  0  0
 11 13  1  0  0  0  0
 13 14  1  1  0  0  0
 13 15  1  0  0  0  0
 15 16  1  6  0  0  0
 15 17  1  0  0  0  0
 17 18  1  1  0  0  0
 19 20  1  0  0  0  0
 21 22  1  0  0  0  0
 21 29  1  0  0  0  0
 21 31  1  1  0  0  0
 22 23  1  0  0  0  0
 23 24  1  1  0  0  0
 23 25  1  0  0  0  0
 25 26  1  6  0  0  0
 25 27  1  0  0  0  0
 27 28  1  1  0  0  0
 27 29  1  0  0  0  0
 29 30  1  1  0  0  0
 31 32  1  0  0  0  0
 33 34  1  0  0  0  0
 33 38  1  0  0  0  0
 33 39  1  1  0  0  0
 34 35  1  0  0  0  0
 35 36  1  0  0  0  0
 35 40  1  1  0  0  0
 36 24  1  6  0  0  0
 36 37  1  0  0  0  0
 37 38  1  0  0  0  0
 37 41  1  1  0  0  0
 38 42  1  6  0  0  0
M  CHG  6  14   1  20   1  26   1  32   1  39   1  40   1
M  END
>  <CHROM.1>
72.14411515,42.63631309,33.25154178,-167.49553016,-55.66237990,-150.25081540
149.77839263,53.32956791,64.09112146,-69.63708844,71.80058700,-176.18509116
33.21210243,-178.79844145,85.55633737,-59.51285082,-173.00849492,-79.37691067
-170.68440630,-64.75034283,132.84415734,179.28192443,-3.71687698,-5.09178205
1.17128647,-1.54808853,0.97928922,3.09683031

>  <Name>


>  <RI>
0

>  <Rbt.Current_Directory>
/home/itssahil/PROJECTS/Mol_Feturizer/New_Systems/rnas/1qd3

>  <Rbt.Executable>
rbdock ($Id: //depot/dev/client3/rdock/2013.1/src/exe/rbdock.cxx#4 $)

>  <Rbt.Library>
libRbt.so (2013.1, Build901 2013/11/27)

>  <Rbt.Parameter_File>
/export/apps/rDock/src/rDock_2013.1_src/data/scripts/dock_solv.prm

>  <Rbt.Receptor>
prm/blind_docking_100.prm

>  <SCORE>
-64.754

>  <SCORE.INTER>
-53.4695

>  <SCORE.INTER.CONST>
1

>  <SCORE.INTER.POLAR>
-7.3802

>  <SCORE.INTER.ROT>
9

>  <SCORE.INTER.SOLV>
35.0806

>  <SCORE.INTER.VDW>
-32.3392

>  <SCORE.INTER.norm>
-1.27308

>  <SCORE.INTRA>
-12.3009

>  <SCORE.INTRA.DIHEDRAL>
-13.3796

>  <SCORE.INTRA.DIHEDRAL.0>
40.6252

>  <SCORE.INTRA.POLAR>
-0.48209

>  <SCORE.INTRA.POLAR.0>
-1.20161

>  <SCORE.INTRA.REPUL>
-0.098354

>  <SCORE.INTRA.REPUL.0>
0.115675

>  <SCORE.INTRA.SOLV>
-6.46395

>  <SCORE.INTRA.SOLV.lig_0>
-154.895

>  <SCORE.INTRA.VDW>
-0.248267

>  <SCORE.INTRA.VDW.0>
2.2925

>  <SCORE.INTRA.norm>
-0.29288

>  <SCORE.RESTR>
1.01647

>  <SCORE.RESTR.CAVITY>
1.01647

>  <SCORE.RESTR.norm>
0.0242016

>  <SCORE.SYSTEM>
0

>  <SCORE.SYSTEM.CONST>
0

>  <SCORE.SYSTEM.DIHEDRAL>
0

>  <SCORE.SYSTEM.SOLV>
0

>  <SCORE.SYSTEM.norm>
0

>  <SCORE.heavy>
42

>  <SCORE.norm>
-1.54176

>  <RMSD>
14.787

$$$$

 OpenBabel11021811413D
libRbt.so/2013.1/901 2013/11/27
 42 45  0  0  0  0  0  0  0  0999 V2000
   -3.2622  -11.2011    0.9599 O   0  0  0  0  0  0  0  0  0  0  0  0
   -4.1090  -10.8408   -0.1221 C   0  0  0  0  0  0  0  0  0  0  0  0
   -3.7636   -9.4307   -0.6025 C   0  0  1  0  0  0  0  0  0  0  0  0
   -4.7007   -8.9719   -1.6009 O   0  0  0  0  0  0  0  0  0  0  0  0
   -3.7978   -8.3907    0.5051 C   0  0  2  0  0  0  0  0  0  0  0  0
   -3.9244   -7.1174   -0.3143 C   0  0  1  0  0  0  0  0  0  0  0  0
   -2.6603   -6.7775   -0.8732 O   0  0  0  0  0  0  0  0  0  0  0  0
   -4.8948   -7.5445   -1.4344 C   0  0  2  0  0  0  0  0  0  0  0  0
   -3.5556   -6.8380    4.4460 C   0  0  2  0  0  0  0  0  0  0  0  0
   -3.4814   -7.8293    3.4099 O   0  0  0  0  0  0  0  0  0  0  0  0
   -2.5998   -7.4291    2.3453 C   0  0  2  0  0  0  0  0  0  0  0  0
   -2.5931   -8.4190    1.2956 O   0  0  0  0  0  0  0  0  0  0  0  0
   -1.1738   -7.2046    2.8768 C   0  0  2  0  0  0  0  0  0  0  0  0
   -0.5063   -8.4718    3.1114 N   0  3  0  0  0  0  0  0  0  0  0  0
   -1.1341   -6.3348    4.1388 C   0  0  1  0  0  0  0  0  0  0  0  0
   -1.3012   -4.9730    3.7776 O   0  0  0  0  0  0  0  0  0  0  0  0
   -2.2081   -6.7312    5.1483 C   0  0  2  0  0  0  0  0  0  0  0  0
   -1.8710   -7.9742    5.7530 O   0  0  0  0  0  0  0  0  0  0  0  0
   -4.6609   -7.1814    5.4406 C   0  0  0  0  0  0  0  0  0  0  0  0
   -4.8024   -8.6200    5.5640 N   0  3  0  0  0  0  0  0  0  0  0  0
   -4.2460   -2.1128   -0.1358 C   0  0  1  0  0  0  0  0  0  0  0  0
   -3.8050   -3.3791   -0.6690 O   0  0  0  0  0  0  0  0  0  0  0  0
   -4.7598   -4.4472   -0.4720 C   0  0  2  0  0  0  0  0  0  0  0  0
   -5.9834   -4.2265   -1.2163 O   0  0  0  0  0  0  0  0  0  0  0  0
   -5.0489   -4.6451    1.0210 C   0  0  2  0  0  0  0  0  0  0  0  0
   -6.1563   -5.5669    1.1932 N   0  3  0  0  0  0  0  0  0  0  0  0
   -5.3819   -3.3273    1.7116 C   0  0  1  0  0  0  0  0  0  0  0  0
   -5.4084   -3.5179    3.1177 O   0  0  0  0  0  0  0  0  0  0  0  0
   -4.4082   -2.2092    1.3724 C   0  0  2  0  0  0  0  0  0  0  0  0
   -4.8763   -0.9728    1.8910 O   0  0  0  0  0  0  0  0  0  0  0  0
   -3.2045   -1.0346   -0.4216 C   0  0  0  0  0  0  0  0  0  0  0  0
   -3.6017    0.2321    0.1651 N   0  3  0  0  0  0  0  0  0  0  0  0
   -8.1460   -6.3165   -4.2254 C   0  0  2  0  0  0  0  0  0  0  0  0
   -7.1374   -5.2746   -4.6674 C   0  0  0  0  0  0  0  0  0  0  0  0
   -6.7683   -4.3670   -3.5086 C   0  0  1  0  0  0  0  0  0  0  0  0
   -6.1239   -5.1256   -2.3475 C   0  0  2  0  0  0  0  0  0  0  0  0
   -6.9780   -6.3499   -1.9445 C   0  0  1  0  0  0  0  0  0  0  0  0
   -7.5827   -7.1663   -3.0944 C   0  0  1  0  0  0  0  0  0  0  0  0
   -8.4858   -7.1661   -5.3508 N   0  3  0  0  0  0  0  0  0  0  0  0
   -5.8830   -3.3245   -3.9901 N   0  3  0  0  0  0  0  0  0  0  0  0
   -6.2599   -7.2244   -1.0398 O   0  0  0  0  0  0  0  0  0  0  0  0
   -8.5971   -8.0293   -2.5912 O   0  0  0  0  0  0  0  0  0  0  0  0
  1  2  1  0  0  0  0
  3  2  1  1  0  0  0
  3  4  1  0  0  0  0
  3  5  1  0  0  0  0
  4  8  1  0  0  0  0
  5  6  1  0  0  0  0
  5 12  1  6  0  0  0
  6  7  1  6  0  0  0
  6  8  1  0  0  0  0
  8 41  1  1  0  0  0
  9 10  1  0  0  0  0
  9 17  1  0  0  0  0
  9 19  1  1  0  0  0
 10 11  1  0  0  0  0
 11 12  1  6  0  0  0
 11 13  1  0  0  0  0
 13 14  1  1  0  0  0
 13 15  1  0  0  0  0
 15 16  1  6  0  0  0
 15 17  1  0  0  0  0
 17 18  1  6  0  0  0
 19 20  1  0  0  0  0
 21 22  1  0  0  0  0
 21 29  1  0  0  0  0
 21 31  1  1  0  0  0
 22 23  1  0  0  0  0
 23 24  1  6  0  0  0
 23 25  1  0  0  0  0
 25 26  1  6  0  0  0
 25 27  1  0  0  0  0
 27 28  1  1  0  0  0
 27 29  1  0  0  0  0
 29 30  1  6  0  0  0
 31 32  1  0  0  0  0
 33 34  1  0  0  0  0
 33 38  1  0  0  0  0
 33 39  1  6  0  0  0
 34 35  1  0  0  0  0
 35 36  1  0  0  0  0
 35 40  1  6  0  0  0
 36 24  1  1  0  0  0
 36 37  1  0  0  0  0
 37 38  1  0  0  0  0
 37 41  1  6  0  0  0
 38 42  1  1  0  0  0
M  CHG  6  14   1  20   1  26   1  32   1  39   1  40   1
M  END
>  <CHROM.1>
-170.91357026,-173.54250606,179.41576975,26.82324348,-120.78024965,32.30362456
74.27752879,178.84856623,60.55845482,-77.30599838,47.78850142,-177.20798279
108.40350054,-142.89366597,-169.48576659,67.73339977,72.99450244,-145.59455169
-56.36147682,-59.62550312,-47.20050815,-60.81877771,-4.51399836,-6.05233949
0.47414625,0.23002665,1.03280957,-3.11284806

>  <Name>


>  <RI>
0

>  <Rbt.Current_Directory>
/home/itssahil/PROJECTS/Mol_Feturizer/New_Systems/rnas/1qd3

>  <Rbt.Executable>
rbdock ($Id: //depot/dev/client3/rdock/2013.1/src/exe/rbdock.cxx#4 $)

>  <Rbt.Library>
libRbt.so (2013.1, Build901 2013/11/27)

>  <Rbt.Parameter_File>
/export/apps/rDock/src/rDock_2013.1_src/data/scripts/dock_solv.prm

>  <Rbt.Receptor>
prm/blind_docking_60.prm

>  <SCORE>
-45.212

>  <SCORE.INTER>
-35.3785

>  <SCORE.INTER.CONST>
1

>  <SCORE.INTER.POLAR>
-3.90335

>  <SCORE.INTER.ROT>
9

>  <SCORE.INTER.SOLV>
25.0242

>  <SCORE.INTER.VDW>
-28.5159

>  <SCORE.INTER.norm>
-0.842345

>  <SCORE.INTRA>
-10.6778

>  <SCORE.INTRA.DIHEDRAL>
-6.88398

>  <SCORE.INTRA.DIHEDRAL.0>
40.6252

>  <SCORE.INTRA.POLAR>
0.603035

>  <SCORE.INTRA.POLAR.0>
-1.20161

>  <SCORE.INTRA.REPUL>
-0.00928462

>  <SCORE.INTRA.REPUL.0>
0.115675

>  <SCORE.INTRA.SOLV>
-4.32013

>  <SCORE.INTRA.SOLV.lig_0>
-154.895

>  <SCORE.INTRA.VDW>
-7.07961

>  <SCORE.INTRA.VDW.0>
2.2925

>  <SCORE.INTRA.norm>
-0.254232

>  <SCORE.RESTR>
0.844283

>  <SCORE.RESTR.CAVITY>
0.844283

>  <SCORE.RESTR.norm>
0.020102

>  <SCORE.SYSTEM>
0

>  <SCORE.SYSTEM.CONST>
0

>  <SCORE.SYSTEM.DIHEDRAL>
0

>  <SCORE.SYSTEM.SOLV>
0

>  <SCORE.SYSTEM.norm>
0

>  <SCORE.heavy>
42

>  <SCORE.norm>
-1.07648

>  <RMSD>
14.787

$$$$

 OpenBabel11021811413D
libRbt.so/2013.1/901 2013/11/27
 42 45  0  0  0  0  0  0  0  0999 V2000
   -4.3407   -3.9086   -2.4888 O   0  0  0  0  0  0  0  0  0  0  0  0
   -5.3089   -4.8012   -1.9562 C   0  0  0  0  0  0  0  0  0  0  0  0
   -4.6153   -5.8819   -1.1259 C   0  0  1  0  0  0  0  0  0  0  0  0
   -3.9747   -5.3183    0.0393 O   0  0  0  0  0  0  0  0  0  0  0  0
   -5.5676   -6.9434   -0.6009 C   0  0  2  0  0  0  0  0  0  0  0  0
   -4.7365   -7.5266    0.5296 C   0  0  1  0  0  0  0  0  0  0  0  0
   -3.7404   -8.3927   -0.0031 O   0  0  0  0  0  0  0  0  0  0  0  0
   -4.0724   -6.2703    1.1289 C   0  0  2  0  0  0  0  0  0  0  0  0
   -8.6886   -6.4549   -3.4375 C   0  0  2  0  0  0  0  0  0  0  0  0
   -7.3429   -6.6485   -2.9757 O   0  0  0  0  0  0  0  0  0  0  0  0
   -7.2324   -7.7885   -2.1044 C   0  0  2  0  0  0  0  0  0  0  0  0
   -5.8823   -7.9199   -1.6130 O   0  0  0  0  0  0  0  0  0  0  0  0
   -7.6629   -9.0728   -2.8335 C   0  0  2  0  0  0  0  0  0  0  0  0
   -6.6251   -9.5204   -3.7441 N   0  3  0  0  0  0  0  0  0  0  0  0
   -8.9982   -8.9242   -3.5722 C   0  0  1  0  0  0  0  0  0  0  0  0
  -10.0638   -9.0001   -2.6386 O   0  0  0  0  0  0  0  0  0  0  0  0
   -9.0886   -7.6111   -4.3451 C   0  0  2  0  0  0  0  0  0  0  0  0
   -8.2360   -7.6580   -5.4833 O   0  0  0  0  0  0  0  0  0  0  0  0
   -8.8201   -5.1210   -4.1670 C   0  0  0  0  0  0  0  0  0  0  0  0
   -7.8218   -5.0158   -5.2145 N   0  3  0  0  0  0  0  0  0  0  0  0
   -1.6871   -8.5094    3.4185 C   0  0  1  0  0  0  0  0  0  0  0  0
   -2.9727   -8.0019    3.0040 O   0  0  0  0  0  0  0  0  0  0  0  0
   -3.7301   -7.4096    4.0843 C   0  0  2  0  0  0  0  0  0  0  0  0
   -3.0959   -6.2134    4.6006 O   0  0  0  0  0  0  0  0  0  0  0  0
   -3.9706   -8.4335    5.2004 C   0  0  2  0  0  0  0  0  0  0  0  0
   -4.5419   -7.7761    6.3611 N   0  3  0  0  0  0  0  0  0  0  0  0
   -2.6816   -9.1386    5.6078 C   0  0  1  0  0  0  0  0  0  0  0  0
   -2.9837  -10.2304    6.4628 O   0  0  0  0  0  0  0  0  0  0  0  0
   -1.8692   -9.6362    4.4222 C   0  0  2  0  0  0  0  0  0  0  0  0
   -0.6029  -10.1104    4.8559 O   0  0  0  0  0  0  0  0  0  0  0  0
   -0.9373   -9.0766    2.2165 C   0  0  0  0  0  0  0  0  0  0  0  0
   -1.8494   -9.7585    1.3167 N   0  3  0  0  0  0  0  0  0  0  0  0
   -3.4586   -2.3084    2.9516 C   0  0  2  0  0  0  0  0  0  0  0  0
   -2.0674   -2.8218    3.2666 C   0  0  0  0  0  0  0  0  0  0  0  0
   -2.1405   -4.0193    4.1958 C   0  0  1  0  0  0  0  0  0  0  0  0
   -2.9055   -5.1941    3.5846 C   0  0  2  0  0  0  0  0  0  0  0  0
   -4.2760   -4.7359    3.0345 C   0  0  1  0  0  0  0  0  0  0  0  0
   -4.2969   -3.3942    2.2904 C   0  0  1  0  0  0  0  0  0  0  0  0
   -3.3607   -1.1623    2.0679 N   0  3  0  0  0  0  0  0  0  0  0  0
   -0.7941   -4.4196    4.5554 N   0  3  0  0  0  0  0  0  0  0  0  0
   -4.8927   -5.7638    2.2207 O   0  0  0  0  0  0  0  0  0  0  0  0
   -5.6398   -2.9434    2.1472 O   0  0  0  0  0  0  0  0  0  0  0  0
  1  2  1  0  0  0  0
  3  2  1  1  0  0  0
  3  4  1  0  0  0  0
  3  5  1  0  0  0  0
  4  8  1  0  0  0  0
  5  6  1  0  0  0  0
  5 12  1  6  0  0  0
  6  7  1  6  0  0  0
  6  8  1  0  0  0  0
  8 41  1  1  0  0  0
  9 10  1  0  0  0  0
  9 17  1  0  0  0  0
  9 19  1  6  0  0  0
 10 11  1  0  0  0  0
 11 12  1  6  0  0  0
 11 13  1  0  0  0  0
 13 14  1  6  0  0  0
 13 15  1  0  0  0  0
 15 16  1  1  0  0  0
 15 17  1  0  0  0  0
 17 18  1  6  0  0  0
 19 20  1  0  0  0  0
 21 22  1  0  0  0  0
 21 29  1  0  0  0  0
 21 31  1  6  0  0  0
 22 23  1  0  0  0  0
 23 24  1  1  0  0  0
 23 25  1  0  0  0  0
 25 26  1  1  0  0  0
 25 27  1  0  0  0  0
 27 28  1  1  0  0  0
 27 29  1  0  0  0  0
 29 30  1  1  0  0  0
 31 32  1  0  0  0  0
 33 34  1  0  0  0  0
 33 38  1  0  0  0  0
 33 39  1  6  0  0  0
 34 35  1  0  0  0  0
 35 36  1  0  0  0  0
 35 40  1  6  0  0  0
 36 24  1  1  0  0  0
 36 37  1  0  0  0  0
 37 38  1  0  0  0  0
 37 41  1  6  0  0  0
 38 42  1  1  0  0  0
M  CHG  6  14   1  20   1  26   1  32   1  39   1  40   1
M  END
>  <CHROM.1>
67.85216727,65.16890687,-107.93919299,63.65612096,-73.94320934,53.14839367
74.69453805,173.78891156,-169.73647304,-170.96721501,165.55941248,-37.84068312
58.27058948,-175.82649308,-136.31231055,-172.79282482,-171.13810739,54.24741090
-54.79213412,-159.81425393,-54.13406816,-66.24886675,-4.69467193,-6.69861160
0.81230621,-3.06843723,0.98084219,3.03990586

>  <Name>


>  <RI>
0

>  <Rbt.Current_Directory>
/home/itssahil/PROJECTS/Mol_Feturizer/New_Systems/rnas/1qd3

>  <Rbt.Executable>
rbdock ($Id: //depot/dev/client3/rdock/2013.1/src/exe/rbdock.cxx#4 $)

>  <Rbt.Library>
libRbt.so (2013.1, Build901 2013/11/27)

>  <Rbt.Parameter_File>
/export/apps/rDock/src/rDock_2013.1_src/data/scripts/dock_solv.prm

>  <Rbt.Receptor>
prm/blind_docking_60.prm

>  <SCORE>
-48.8799

>  <SCORE.INTER>
-26.8851

>  <SCORE.INTER.CONST>
1

>  <SCORE.INTER.POLAR>
-2.74013

>  <SCORE.INTER.ROT>
9

>  <SCORE.INTER.SOLV>
25.1986

>  <SCORE.INTER.VDW>
-26.7892

>  <SCORE.INTER.norm>
-0.640123

>  <SCORE.INTRA>
-24.3362

>  <SCORE.INTRA.DIHEDRAL>
-22.1587

>  <SCORE.INTRA.DIHEDRAL.0>
40.6252

>  <SCORE.INTRA.POLAR>
-0.430604

>  <SCORE.INTRA.POLAR.0>
-1.20161

>  <SCORE.INTRA.REPUL>
-0.115675

>  <SCORE.INTRA.REPUL.0>
0.115675

>  <SCORE.INTRA.SOLV>
-6.99114

>  <SCORE.INTRA.SOLV.lig_0>
-154.895

>  <SCORE.INTRA.VDW>
-7.71889

>  <SCORE.INTRA.VDW.0>
2.2925

>  <SCORE.INTRA.norm>
-0.579434

>  <SCORE.RESTR>
2.3415

>  <SCORE.RESTR.CAVITY>
2.3415

>  <SCORE.RESTR.norm>
0.0557499

>  <SCORE.SYSTEM>
0

>  <SCORE.SYSTEM.CONST>
0

>  <SCORE.SYSTEM.DIHEDRAL>
0

>  <SCORE.SYSTEM.SOLV>
0

>  <SCORE.SYSTEM.norm>
0

>  <SCORE.heavy>
42

>  <SCORE.norm>
-1.16381

>  <RMSD>
14.792

$$$$

 OpenBabel11021811413D
libRbt.so/2013.1/901 2013/11/27
 42 45  0  0  0  0  0  0  0  0999 V2000
   -1.1945   -2.5110    4.7491 O   0  0  0  0  0  0  0  0  0  0  0  0
   -1.2688   -3.9294    4.7620 C   0  0  0  0  0  0  0  0  0  0  0  0
   -1.2333   -4.4627    3.3292 C   0  0  1  0  0  0  0  0  0  0  0  0
   -1.4200   -5.8944    3.2971 O   0  0  0  0  0  0  0  0  0  0  0  0
   -2.3236   -3.8839    2.4428 C   0  0  2  0  0  0  0  0  0  0  0  0
   -2.3532   -4.9174    1.3294 C   0  0  1  0  0  0  0  0  0  0  0  0
   -1.2497   -4.7129    0.4539 O   0  0  0  0  0  0  0  0  0  0  0  0
   -2.1696   -6.2382    2.1043 C   0  0  2  0  0  0  0  0  0  0  0  0
   -4.3695    0.1352    1.4139 C   0  0  2  0  0  0  0  0  0  0  0  0
   -3.2244   -0.5581    1.9332 O   0  0  0  0  0  0  0  0  0  0  0  0
   -3.1000   -1.8806    1.3797 C   0  0  2  0  0  0  0  0  0  0  0  0
   -1.9755   -2.5697    1.9647 O   0  0  0  0  0  0  0  0  0  0  0  0
   -2.9506   -1.8170   -0.1500 C   0  0  2  0  0  0  0  0  0  0  0  0
   -1.6078   -1.4087   -0.5196 N   0  3  0  0  0  0  0  0  0  0  0  0
   -3.9908   -0.9093   -0.8170 C   0  0  1  0  0  0  0  0  0  0  0  0
   -5.2342   -1.5891   -0.8854 O   0  0  0  0  0  0  0  0  0  0  0  0
   -4.1701    0.4102   -0.0711 C   0  0  2  0  0  0  0  0  0  0  0  0
   -3.0294    1.2377   -0.2671 O   0  0  0  0  0  0  0  0  0  0  0  0
   -4.6051    1.4337    2.1801 C   0  0  0  0  0  0  0  0  0  0  0  0
   -5.5702    2.2643    1.4846 N   0  3  0  0  0  0  0  0  0  0  0  0
   -5.1043   -5.1989   -0.1472 C   0  0  1  0  0  0  0  0  0  0  0  0
   -5.3184   -6.2603    0.8066 O   0  0  0  0  0  0  0  0  0  0  0  0
   -5.3059   -7.5776    0.2099 C   0  0  2  0  0  0  0  0  0  0  0  0
   -4.0026   -7.9209   -0.3222 O   0  0  0  0  0  0  0  0  0  0  0  0
   -6.3910   -7.6931   -0.8676 C   0  0  2  0  0  0  0  0  0  0  0  0
   -6.2320   -8.9360   -1.5996 N   0  3  0  0  0  0  0  0  0  0  0  0
   -6.3417   -6.5253   -1.8466 C   0  0  1  0  0  0  0  0  0  0  0  0
   -7.4950   -6.5457   -2.6734 O   0  0  0  0  0  0  0  0  0  0  0  0
   -6.2364   -5.1716   -1.1611 C   0  0  2  0  0  0  0  0  0  0  0  0
   -6.0059   -4.1496   -2.1198 O   0  0  0  0  0  0  0  0  0  0  0  0
   -5.0895   -3.8503    0.5668 C   0  0  0  0  0  0  0  0  0  0  0  0
   -5.9818   -3.8649    1.7115 N   0  3  0  0  0  0  0  0  0  0  0  0
   -3.0315  -10.5551    2.8743 C   0  0  2  0  0  0  0  0  0  0  0  0
   -2.3185  -10.7487    1.5506 C   0  0  0  0  0  0  0  0  0  0  0  0
   -3.0523  -10.0201    0.4400 C   0  0  1  0  0  0  0  0  0  0  0  0
   -3.1257   -8.5104    0.6733 C   0  0  2  0  0  0  0  0  0  0  0  0
   -3.6523   -8.1948    2.0925 C   0  0  1  0  0  0  0  0  0  0  0  0
   -3.1180   -9.0767    3.2287 C   0  0  1  0  0  0  0  0  0  0  0  0
   -2.3144  -11.2650    3.9163 N   0  3  0  0  0  0  0  0  0  0  0  0
   -2.4022  -10.3095   -0.8233 N   0  3  0  0  0  0  0  0  0  0  0  0
   -3.4762   -6.7959    2.4258 O   0  0  0  0  0  0  0  0  0  0  0  0
   -3.9244   -8.9077    4.3899 O   0  0  0  0  0  0  0  0  0  0  0  0
  1  2  1  0  0  0  0
  3  2  1  1  0  0  0
  3  4  1  0  0  0  0
  3  5  1  0  0  0  0
  4  8  1  0  0  0  0
  5  6  1  0  0  0  0
  5 12  1  6  0  0  0
  6  7  1  6  0  0  0
  6  8  1  0  0  0  0
  8 41  1  1  0  0  0
  9 10  1  0  0  0  0
  9 17  1  0  0  0  0
  9 19  1  1  0  0  0
 10 11  1  0  0  0  0
 11 12  1  1  0  0  0
 11 13  1  0  0  0  0
 13 14  1  1  0  0  0
 13 15  1  0  0  0  0
 15 16  1  1  0  0  0
 15 17  1  0  0  0  0
 17 18  1  1  0  0  0
 19 20  1  0  0  0  0
 21 22  1  0  0  0  0
 21 29  1  0  0  0  0
 21 31  1  1  0  0  0
 22 23  1  0  0  0  0
 23 24  1  6  0  0  0
 23 25  1  0  0  0  0
 25 26  1  6  0  0  0
 25 27  1  0  0  0  0
 27 28  1  1  0  0  0
 27 29  1  0  0  0  0
 29 30  1  6  0  0  0
 31 32  1  0  0  0  0
 33 34  1  0  0  0  0
 33 38  1  0  0  0  0
 33 39  1  1  0  0  0
 34 35  1  0  0  0  0
 35 36  1  0  0  0  0
 35 40  1  6  0  0  0
 36 24  1  6  0  0  0
 36 37  1  0  0  0  0
 37 38  1  0  0  0  0
 37 41  1  1  0  0  0
 38 42  1  1  0  0  0
M  CHG  6  14   1  20   1  26   1  32   1  39   1  40   1
M  END
>  <CHROM.1>
-42.79629858,-175.16429091,-166.92285284,-173.13262477,-112.54062722,167.83571472
129.94626018,-176.93785343,175.62063549,36.17806181,174.38192308,-32.49961391
86.42730186,103.73899947,-150.30444690,58.35311613,-63.11392882,0.88976660
79.58683218,-64.00373843,-45.72275047,-51.79872422,-3.74333134,-4.96521591
1.02265190,-1.61180651,0.86036652,3.11802021

>  <Name>


>  <RI>
0

>  <Rbt.Current_Directory>
/home/itssahil/PROJECTS/Mol_Feturizer/New_Systems/rnas/1qd3

>  <Rbt.Executable>
rbdock ($Id: //depot/dev/client3/rdock/2013.1/src/exe/rbdock.cxx#4 $)

>  <Rbt.Library>
libRbt.so (2013.1, Build901 2013/11/27)

>  <Rbt.Parameter_File>
/export/apps/rDock/src/rDock_2013.1_src/data/scripts/dock_solv.prm

>  <Rbt.Receptor>
prm/blind_docking_60.prm

>  <SCORE>
-67.2447

>  <SCORE.INTER>
-62.9275

>  <SCORE.INTER.CONST>
1

>  <SCORE.INTER.POLAR>
-9.33163

>  <SCORE.INTER.ROT>
9

>  <SCORE.INTER.SOLV>
38.5934

>  <SCORE.INTER.VDW>
-33.3107

>  <SCORE.INTER.norm>
-1.49827

>  <SCORE.INTRA>
-6.4543

>  <SCORE.INTRA.DIHEDRAL>
-1.01899

>  <SCORE.INTRA.DIHEDRAL.0>
40.6252

>  <SCORE.INTRA.POLAR>
-0.117092

>  <SCORE.INTRA.POLAR.0>
-1.20161

>  <SCORE.INTRA.REPUL>
-0.10688

>  <SCORE.INTRA.REPUL.0>
0.115675

>  <SCORE.INTRA.SOLV>
-6.52315

>  <SCORE.INTRA.SOLV.lig_0>
-154.895

>  <SCORE.INTRA.VDW>
-1.75072

>  <SCORE.INTRA.VDW.0>
2.2925

>  <SCORE.INTRA.norm>
-0.153674

>  <SCORE.RESTR>
2.13705

>  <SCORE.RESTR.CAVITY>
2.13705

>  <SCORE.RESTR.norm>
0.0508821

>  <SCORE.SYSTEM>
0

>  <SCORE.SYSTEM.CONST>
0

>  <SCORE.SYSTEM.DIHEDRAL>
0

>  <SCORE.SYSTEM.SOLV>
0

>  <SCORE.SYSTEM.norm>
0

>  <SCORE.heavy>
42

>  <SCORE.norm>
-1.60106

>  <RMSD>
14.798

$$$$

 OpenBabel11021811413D
libRbt.so/2013.1/901 2013/11/27
 42 45  0  0  0  0  0  0  0  0999 V2000
   -4.7288   -1.5378   -0.8001 O   0  0  0  0  0  0  0  0  0  0  0  0
   -5.2144   -2.2192   -1.9480 C   0  0  0  0  0  0  0  0  0  0  0  0
   -5.4453   -3.6938   -1.6157 C   0  0  1  0  0  0  0  0  0  0  0  0
   -4.4347   -4.1930   -0.7128 O   0  0  0  0  0  0  0  0  0  0  0  0
   -6.7766   -3.9570   -0.9316 C   0  0  2  0  0  0  0  0  0  0  0  0
   -6.5022   -5.3132   -0.3038 C   0  0  1  0  0  0  0  0  0  0  0  0
   -6.5807   -6.3283   -1.2985 O   0  0  0  0  0  0  0  0  0  0  0  0
   -5.0446   -5.1622    0.1769 C   0  0  2  0  0  0  0  0  0  0  0  0
   -7.3653   -6.3027   -4.6730 C   0  0  2  0  0  0  0  0  0  0  0  0
   -7.8254   -5.8103   -3.4052 O   0  0  0  0  0  0  0  0  0  0  0  0
   -7.4336   -4.4433   -3.1851 C   0  0  2  0  0  0  0  0  0  0  0  0
   -7.8605   -3.9989   -1.8805 O   0  0  0  0  0  0  0  0  0  0  0  0
   -8.0149   -3.5293   -4.2774 C   0  0  2  0  0  0  0  0  0  0  0  0
   -9.4268   -3.2850   -4.0466 N   0  3  0  0  0  0  0  0  0  0  0  0
   -7.7878   -4.0690   -5.6944 C   0  0  1  0  0  0  0  0  0  0  0  0
   -6.4470   -3.8184   -6.0845 O   0  0  0  0  0  0  0  0  0  0  0  0
   -8.0792   -5.5637   -5.7976 C   0  0  2  0  0  0  0  0  0  0  0  0
   -9.4815   -5.7915   -5.7206 O   0  0  0  0  0  0  0  0  0  0  0  0
   -7.5942   -7.8076   -4.7807 C   0  0  0  0  0  0  0  0  0  0  0  0
   -8.9940   -8.1237   -4.5673 N   0  3  0  0  0  0  0  0  0  0  0  0
   -2.8240   -8.7237    1.5229 C   0  0  1  0  0  0  0  0  0  0  0  0
   -3.8481   -7.7074    1.4993 O   0  0  0  0  0  0  0  0  0  0  0  0
   -3.8663   -6.8849    2.6886 C   0  0  2  0  0  0  0  0  0  0  0  0
   -2.6642   -6.0858    2.8152 O   0  0  0  0  0  0  0  0  0  0  0  0
   -4.0921   -7.7456    3.9376 C   0  0  2  0  0  0  0  0  0  0  0  0
   -3.8987   -6.9452    5.1324 N   0  3  0  0  0  0  0  0  0  0  0  0
   -3.1479   -8.9419    3.9776 C   0  0  1  0  0  0  0  0  0  0  0  0
   -3.5450   -9.8299    5.0110 O   0  0  0  0  0  0  0  0  0  0  0  0
   -3.0818   -9.6988    2.6600 C   0  0  2  0  0  0  0  0  0  0  0  0
   -2.0537  -10.6773    2.7039 O   0  0  0  0  0  0  0  0  0  0  0  0
   -2.8448   -9.5165    0.2192 C   0  0  0  0  0  0  0  0  0  0  0  0
   -4.1940   -9.6022   -0.3089 N   0  3  0  0  0  0  0  0  0  0  0  0
   -2.3198   -2.0352    1.5609 C   0  0  2  0  0  0  0  0  0  0  0  0
   -1.2091   -2.9947    1.1817 C   0  0  0  0  0  0  0  0  0  0  0  0
   -1.2822   -4.2530    2.0268 C   0  0  1  0  0  0  0  0  0  0  0  0
   -2.5943   -5.0155    1.8369 C   0  0  2  0  0  0  0  0  0  0  0  0
   -3.8100   -4.0738    1.9984 C   0  0  1  0  0  0  0  0  0  0  0  0
   -3.6833   -2.6833    1.3620 C   0  0  1  0  0  0  0  0  0  0  0  0
   -2.2242   -0.8404    0.7439 N   0  3  0  0  0  0  0  0  0  0  0  0
   -0.1496   -5.1006    1.7089 N   0  3  0  0  0  0  0  0  0  0  0  0
   -5.0363   -4.7092    1.5612 O   0  0  0  0  0  0  0  0  0  0  0  0
   -4.7008   -1.8265    1.8697 O   0  0  0  0  0  0  0  0  0  0  0  0
  1  2  1  0  0  0  0
  3  2  1  1  0  0  0
  3  4  1  0  0  0  0
  3  5  1  0  0  0  0
  4  8  1  0  0  0  0
  5  6  1  0  0  0  0
  5 12  1  6  0  0  0
  6  7  1  6  0  0  0
  6  8  1  0  0  0  0
  8 41  1  1  0  0  0
  9 10  1  0  0  0  0
  9 17  1  0  0  0  0
  9 19  1  1  0  0  0
 10 11  1  0  0  0  0
 11 12  1  1  0  0  0
 11 13  1  0  0  0  0
 13 14  1  1  0  0  0
 13 15  1  0  0  0  0
 15 16  1  1  0  0  0
 15 17  1  0  0  0  0
 17 18  1  1  0  0  0
 19 20  1  0  0  0  0
 21 22  1  0  0  0  0
 21 29  1  0  0  0  0
 21 31  1  6  0  0  0
 22 23  1  0  0  0  0
 23 24  1  1  0  0  0
 23 25  1  0  0  0  0
 25 26  1  1  0  0  0
 25 27  1  0  0  0  0
 27 28  1  1  0  0  0
 27 29  1  0  0  0  0
 29 30  1  1  0  0  0
 31 32  1  0  0  0  0
 33 34  1  0  0  0  0
 33 38  1  0  0  0  0
 33 39  1  6  0  0  0
 34 35  1  0  0  0  0
 35 36  1  0  0  0  0
 35 40  1  6  0  0  0
 36 24  1  1  0  0  0
 36 37  1  0  0  0  0
 37 38  1  0  0  0  0
 37 41  1  6  0  0  0
 38 42  1  1  0  0  0
M  CHG  6  14   1  20   1  26   1  32   1  39   1  40   1
M  END
>  <CHROM.1>
-169.04542837,-36.82005254,28.80978119,-56.33234924,-41.95346595,56.23104821
103.31395191,75.51148298,-59.80253416,-173.73785982,-72.82111481,-31.97270517
70.81311720,-178.64678742,179.63408696,-57.70385089,-65.79460599,80.96806729
-158.51268860,50.76067509,-58.34836440,74.40076453,-4.97835843,-5.50194864
-0.33754881,-2.71774941,0.90659250,2.91384892

>  <Name>


>  <RI>
0

>  <Rbt.Current_Directory>
/home/itssahil/PROJECTS/Mol_Feturizer/New_Systems/rnas/1qd3

>  <Rbt.Executable>
rbdock ($Id: //depot/dev/client3/rdock/2013.1/src/exe/rbdock.cxx#4 $)

>  <Rbt.Library>
libRbt.so (2013.1, Build901 2013/11/27)

>  <Rbt.Parameter_File>
/export/apps/rDock/src/rDock_2013.1_src/data/scripts/dock_solv.prm

>  <Rbt.Receptor>
prm/blind_docking_100.prm

>  <SCORE>
-43.8579

>  <SCORE.INTER>
-25.4346

>  <SCORE.INTER.CONST>
1

>  <SCORE.INTER.POLAR>
-2.60634

>  <SCORE.INTER.ROT>
9

>  <SCORE.INTER.SOLV>
23.127

>  <SCORE.INTER.VDW>
-25.5776

>  <SCORE.INTER.norm>
-0.605585

>  <SCORE.INTRA>
-18.8656

>  <SCORE.INTRA.DIHEDRAL>
-18.1044

>  <SCORE.INTRA.DIHEDRAL.0>
40.6252

>  <SCORE.INTRA.POLAR>
-0.901834

>  <SCORE.INTRA.POLAR.0>
-1.20161

>  <SCORE.INTRA.REPUL>
-0.115675

>  <SCORE.INTRA.REPUL.0>
0.115675

>  <SCORE.INTRA.SOLV>
-5.6633

>  <SCORE.INTRA.SOLV.lig_0>
-154.895

>  <SCORE.INTRA.VDW>
-3.33713

>  <SCORE.INTRA.VDW.0>
2.2925

>  <SCORE.INTRA.norm>
-0.449181

>  <SCORE.RESTR>
0.442245

>  <SCORE.RESTR.CAVITY>
0.442245

>  <SCORE.RESTR.norm>
0.0105296

>  <SCORE.SYSTEM>
0

>  <SCORE.SYSTEM.CONST>
0

>  <SCORE.SYSTEM.DIHEDRAL>
0

>  <SCORE.SYSTEM.SOLV>
0

>  <SCORE.SYSTEM.norm>
0

>  <SCORE.heavy>
42

>  <SCORE.norm>
-1.04424

>  <RMSD>
14.806

$$$$

 OpenBabel11021811413D
libRbt.so/2013.1/901 2013/11/27
 42 45  0  0  0  0  0  0  0  0999 V2000
   -6.2983   -2.8814    2.7578 O   0  0  0  0  0  0  0  0  0  0  0  0
   -5.3096   -3.8143    2.3456 C   0  0  0  0  0  0  0  0  0  0  0  0
   -4.2715   -3.9922    3.4543 C   0  0  1  0  0  0  0  0  0  0  0  0
   -4.1160   -5.3833    3.8098 O   0  0  0  0  0  0  0  0  0  0  0  0
   -2.8845   -3.5077    3.0656 C   0  0  2  0  0  0  0  0  0  0  0  0
   -2.0367   -4.2450    4.0885 C   0  0  1  0  0  0  0  0  0  0  0  0
   -2.1326   -3.5947    5.3510 O   0  0  0  0  0  0  0  0  0  0  0  0
   -2.7279   -5.6221    4.1545 C   0  0  2  0  0  0  0  0  0  0  0  0
   -4.5843    0.7281    1.7031 C   0  0  2  0  0  0  0  0  0  0  0  0
   -3.7153    0.0134    2.5949 O   0  0  0  0  0  0  0  0  0  0  0  0
   -3.6027   -1.3759    2.2374 C   0  0  2  0  0  0  0  0  0  0  0  0
   -2.7706   -2.0760    3.1856 O   0  0  0  0  0  0  0  0  0  0  0  0
   -3.0351   -1.5263    0.8155 C   0  0  2  0  0  0  0  0  0  0  0  0
   -1.6038   -1.2863    0.8045 N   0  3  0  0  0  0  0  0  0  0  0  0
   -3.7383   -0.6281   -0.2090 C   0  0  1  0  0  0  0  0  0  0  0  0
   -4.9875   -1.2021   -0.5595 O   0  0  0  0  0  0  0  0  0  0  0  0
   -3.9561    0.7881    0.3166 C   0  0  2  0  0  0  0  0  0  0  0  0
   -2.7152    1.4822    0.3707 O   0  0  0  0  0  0  0  0  0  0  0  0
   -4.8639    2.1312    2.2340 C   0  0  0  0  0  0  0  0  0  0  0  0
   -3.7407    3.0086    1.9630 N   0  3  0  0  0  0  0  0  0  0  0  0
   -5.0614   -6.0363   -1.4261 C   0  0  1  0  0  0  0  0  0  0  0  0
   -4.2192   -7.1988   -1.5724 O   0  0  0  0  0  0  0  0  0  0  0  0
   -3.1194   -7.2312   -0.6339 C   0  0  2  0  0  0  0  0  0  0  0  0
   -3.5763   -7.3713    0.7341 O   0  0  0  0  0  0  0  0  0  0  0  0
   -2.2335   -5.9901   -0.7965 C   0  0  2  0  0  0  0  0  0  0  0  0
   -1.2642   -5.9287    0.2817 N   0  3  0  0  0  0  0  0  0  0  0  0
   -3.0556   -4.7061   -0.8049 C   0  0  1  0  0  0  0  0  0  0  0  0
   -2.2341   -3.6151   -1.1909 O   0  0  0  0  0  0  0  0  0  0  0  0
   -4.2667   -4.7750   -1.7224 C   0  0  2  0  0  0  0  0  0  0  0  0
   -5.0873   -3.6299   -1.5433 O   0  0  0  0  0  0  0  0  0  0  0  0
   -6.2170   -6.0999   -2.4206 C   0  0  0  0  0  0  0  0  0  0  0  0
   -7.0855   -7.2255   -2.1283 N   0  3  0  0  0  0  0  0  0  0  0  0
   -2.7462  -10.2464    3.7580 C   0  0  2  0  0  0  0  0  0  0  0  0
   -2.4674  -10.6276    2.3175 C   0  0  0  0  0  0  0  0  0  0  0  0
   -3.1786   -9.6796    1.3696 C   0  0  1  0  0  0  0  0  0  0  0  0
   -2.7175   -8.2302    1.5291 C   0  0  2  0  0  0  0  0  0  0  0  0
   -2.7639   -7.7947    3.0120 C   0  0  1  0  0  0  0  0  0  0  0  0
   -2.2779   -8.8252    4.0398 C   0  0  1  0  0  0  0  0  0  0  0  0
   -2.0608  -11.1698    4.6420 N   0  3  0  0  0  0  0  0  0  0  0  0
   -2.9733  -10.1329    0.0077 N   0  3  0  0  0  0  0  0  0  0  0  0
   -2.0841   -6.5318    3.2166 O   0  0  0  0  0  0  0  0  0  0  0  0
   -2.6891   -8.4342    5.3456 O   0  0  0  0  0  0  0  0  0  0  0  0
  1  2  1  0  0  0  0
  3  2  1  6  0  0  0
  3  4  1  0  0  0  0
  3  5  1  0  0  0  0
  4  8  1  0  0  0  0
  5  6  1  0  0  0  0
  5 12  1  1  0  0  0
  6  7  1  1  0  0  0
  6  8  1  0  0  0  0
  8 41  1  6  0  0  0
  9 10  1  0  0  0  0
  9 17  1  0  0  0  0
  9 19  1  1  0  0  0
 10 11  1  0  0  0  0
 11 12  1  1  0  0  0
 11 13  1  0  0  0  0
 13 14  1  1  0  0  0
 13 15  1  0  0  0  0
 15 16  1  1  0  0  0
 15 17  1  0  0  0  0
 17 18  1  1  0  0  0
 19 20  1  0  0  0  0
 21 22  1  0  0  0  0
 21 29  1  0  0  0  0
 21 31  1  6  0  0  0
 22 23  1  0  0  0  0
 23 24  1  1  0  0  0
 23 25  1  0  0  0  0
 25 26  1  1  0  0  0
 25 27  1  0  0  0  0
 27 28  1  6  0  0  0
 27 29  1  0  0  0  0
 29 30  1  1  0  0  0
 31 32  1  0  0  0  0
 33 34  1  0  0  0  0
 33 38  1  0  0  0  0
 33 39  1  1  0  0  0
 34 35  1  0  0  0  0
 35 36  1  0  0  0  0
 35 40  1  6  0  0  0
 36 24  1  6  0  0  0
 36 37  1  0  0  0  0
 37 38  1  0  0  0  0
 37 41  1  6  0  0  0
 38 42  1  1  0  0  0
M  CHG  6  14   1  20   1  26   1  32   1  39   1  40   1
M  END
>  <CHROM.1>
168.54095177,125.82274879,-66.42176960,-8.18114235,-53.50810237,78.51413440
165.96800345,167.90007784,63.98015950,42.94732848,154.29848095,64.63723002
141.98103943,-87.51376162,64.92048566,-70.29004353,-177.38327853,175.04403780
146.25416757,-74.79332700,140.60207151,172.95465228,-3.48387229,-4.59487688
1.43922589,-1.86385119,1.23586115,-2.96123369

>  <Name>


>  <RI>
0

>  <Rbt.Current_Directory>
/home/itssahil/PROJECTS/Mol_Feturizer/New_Systems/rnas/1qd3

>  <Rbt.Executable>
rbdock ($Id: //depot/dev/client3/rdock/2013.1/src/exe/rbdock.cxx#4 $)

>  <Rbt.Library>
libRbt.so (2013.1, Build901 2013/11/27)

>  <Rbt.Parameter_File>
/export/apps/rDock/src/rDock_2013.1_src/data/scripts/dock_solv.prm

>  <Rbt.Receptor>
prm/blind_docking_60.prm

>  <SCORE>
-82.5007

>  <SCORE.INTER>
-69.7675

>  <SCORE.INTER.CONST>
1

>  <SCORE.INTER.POLAR>
-9.40441

>  <SCORE.INTER.ROT>
9

>  <SCORE.INTER.SOLV>
34.6988

>  <SCORE.INTER.VDW>
-36.3299

>  <SCORE.INTER.norm>
-1.66113

>  <SCORE.INTRA>
-14.2424

>  <SCORE.INTRA.DIHEDRAL>
-4.52171

>  <SCORE.INTRA.DIHEDRAL.0>
40.6252

>  <SCORE.INTRA.POLAR>
-0.636702

>  <SCORE.INTRA.POLAR.0>
-1.20161

>  <SCORE.INTRA.REPUL>
-0.115675

>  <SCORE.INTRA.REPUL.0>
0.115675

>  <SCORE.INTRA.SOLV>
-2.20336

>  <SCORE.INTRA.SOLV.lig_0>
-154.895

>  <SCORE.INTRA.VDW>
-8.13671

>  <SCORE.INTRA.VDW.0>
2.2925

>  <SCORE.INTRA.norm>
-0.339105

>  <SCORE.RESTR>
1.50916

>  <SCORE.RESTR.CAVITY>
1.50916

>  <SCORE.RESTR.norm>
0.0359324

>  <SCORE.SYSTEM>
0

>  <SCORE.SYSTEM.CONST>
0

>  <SCORE.SYSTEM.DIHEDRAL>
0

>  <SCORE.SYSTEM.SOLV>
0

>  <SCORE.SYSTEM.norm>
0

>  <SCORE.heavy>
42

>  <SCORE.norm>
-1.9643

>  <RMSD>
14.823

$$$$

 OpenBabel11021811413D
libRbt.so/2013.1/901 2013/11/27
 42 45  0  0  0  0  0  0  0  0999 V2000
   -1.4144   -5.1835    4.3507 O   0  0  0  0  0  0  0  0  0  0  0  0
   -0.2032   -5.1722    3.6085 C   0  0  0  0  0  0  0  0  0  0  0  0
   -0.5108   -5.2783    2.1143 C   0  0  1  0  0  0  0  0  0  0  0  0
   -1.1666   -6.5262    1.8005 O   0  0  0  0  0  0  0  0  0  0  0  0
   -1.4389   -4.1857    1.6102 C   0  0  2  0  0  0  0  0  0  0  0  0
   -1.9379   -4.8185    0.3220 C   0  0  1  0  0  0  0  0  0  0  0  0
   -0.9366   -4.7146   -0.6841 O   0  0  0  0  0  0  0  0  0  0  0  0
   -2.1185   -6.2945    0.7314 C   0  0  2  0  0  0  0  0  0  0  0  0
   -3.5823   -1.0620    0.1002 C   0  0  2  0  0  0  0  0  0  0  0  0
   -2.7088   -2.1766    0.3368 O   0  0  0  0  0  0  0  0  0  0  0  0
   -1.6181   -1.8292    1.2088 C   0  0  2  0  0  0  0  0  0  0  0  0
   -0.7292   -2.9529    1.3789 O   0  0  0  0  0  0  0  0  0  0  0  0
   -2.1446   -1.3533    2.5737 C   0  0  2  0  0  0  0  0  0  0  0  0
   -2.5829   -2.4794    3.3775 N   0  3  0  0  0  0  0  0  0  0  0  0
   -3.2624   -0.3107    2.4549 C   0  0  1  0  0  0  0  0  0  0  0  0
   -2.6971    0.9522    2.1415 O   0  0  0  0  0  0  0  0  0  0  0  0
   -4.2934   -0.6865    1.3940 C   0  0  2  0  0  0  0  0  0  0  0  0
   -5.0858   -1.7761    1.8514 O   0  0  0  0  0  0  0  0  0  0  0  0
   -4.5898   -1.3918   -0.9975 C   0  0  0  0  0  0  0  0  0  0  0  0
   -3.9391   -2.0929   -2.0884 N   0  3  0  0  0  0  0  0  0  0  0  0
   -6.7561   -5.7991   -3.1926 C   0  0  1  0  0  0  0  0  0  0  0  0
   -5.3808   -5.6969   -2.7681 O   0  0  0  0  0  0  0  0  0  0  0  0
   -5.2058   -5.8783   -1.3441 C   0  0  2  0  0  0  0  0  0  0  0  0
   -5.5430   -7.2230   -0.9221 O   0  0  0  0  0  0  0  0  0  0  0  0
   -6.0137   -4.8349   -0.5630 C   0  0  2  0  0  0  0  0  0  0  0  0
   -5.9998   -5.1553    0.8522 N   0  3  0  0  0  0  0  0  0  0  0  0
   -7.4580   -4.7612   -1.0459 C   0  0  1  0  0  0  0  0  0  0  0  0
   -8.0982   -3.6339   -0.4683 O   0  0  0  0  0  0  0  0  0  0  0  0
   -7.5817   -4.6906   -2.5602 C   0  0  2  0  0  0  0  0  0  0  0  0
   -8.9414   -4.8140   -2.9506 O   0  0  0  0  0  0  0  0  0  0  0  0
   -6.8485   -5.6387   -4.7073 C   0  0  0  0  0  0  0  0  0  0  0  0
   -8.2011   -5.8909   -5.1694 N   0  3  0  0  0  0  0  0  0  0  0  0
   -3.4499  -10.3216    1.1069 C   0  0  2  0  0  0  0  0  0  0  0  0
   -3.5761  -10.4166   -0.4008 C   0  0  0  0  0  0  0  0  0  0  0  0
   -4.6635   -9.4850   -0.9030 C   0  0  1  0  0  0  0  0  0  0  0  0
   -4.3750   -8.0169   -0.5862 C   0  0  2  0  0  0  0  0  0  0  0  0
   -4.0242   -7.8319    0.9083 C   0  0  1  0  0  0  0  0  0  0  0  0
   -3.1134   -8.8983    1.5310 C   0  0  1  0  0  0  0  0  0  0  0  0
   -2.4096  -11.2245    1.5613 N   0  3  0  0  0  0  0  0  0  0  0  0
   -4.8252   -9.6759   -2.3312 N   0  3  0  0  0  0  0  0  0  0  0  0
   -3.4907   -6.5105    1.1695 O   0  0  0  0  0  0  0  0  0  0  0  0
   -3.1545   -8.7980    2.9506 O   0  0  0  0  0  0  0  0  0  0  0  0
  1  2  1  0  0  0  0
  3  2  1  1  0  0  0
  3  4  1  0  0  0  0
  3  5  1  0  0  0  0
  4  8  1  0  0  0  0
  5  6  1  0  0  0  0
  5 12  1  6  0  0  0
  6  7  1  6  0  0  0
  6  8  1  0  0  0  0
  8 41  1  1  0  0  0
  9 10  1  0  0  0  0
  9 17  1  0  0  0  0
  9 19  1  6  0  0  0
 10 11  1  0  0  0  0
 11 12  1  1  0  0  0
 11 13  1  0  0  0  0
 13 14  1  6  0  0  0
 13 15  1  0  0  0  0
 15 16  1  6  0  0  0
 15 17  1  0  0  0  0
 17 18  1  1  0  0  0
 19 20  1  0  0  0  0
 21 22  1  0  0  0  0
 21 29  1  0  0  0  0
 21 31  1  6  0  0  0
 22 23  1  0  0  0  0
 23 24  1  1  0  0  0
 23 25  1  0  0  0  0
 25 26  1  1  0  0  0
 25 27  1  0  0  0  0
 27 28  1  1  0  0  0
 27 29  1  0  0  0  0
 29 30  1  1  0  0  0
 31 32  1  0  0  0  0
 33 34  1  0  0  0  0
 33 38  1  0  0  0  0
 33 39  1  6  0  0  0
 34 35  1  0  0  0  0
 35 36  1  0  0  0  0
 35 40  1  6  0  0  0
 36 24  1  1  0  0  0
 36 37  1  0  0  0  0
 37 38  1  0  0  0  0
 37 41  1  6  0  0  0
 38 42  1  1  0  0  0
M  CHG  6  14   1  20   1  26   1  32   1  39   1  40   1
M  END
>  <CHROM.1>
-179.24769347,-62.58639245,-166.27328637,-53.87651384,-94.73865807,-42.44340476
-44.61368622,-178.00808473,66.75131782,-66.14767485,-139.46296808,173.45360123
106.90341318,-149.13742480,-76.02228534,50.39175988,73.36897402,-178.93220575
-60.85675306,-139.11399777,-75.09432060,-65.25221929,-3.97729715,-5.10516271
0.18373000,-0.86394443,0.75615463,-3.06149651

>  <Name>


>  <RI>
0

>  <Rbt.Current_Directory>
/home/itssahil/PROJECTS/Mol_Feturizer/New_Systems/rnas/1qd3

>  <Rbt.Executable>
rbdock ($Id: //depot/dev/client3/rdock/2013.1/src/exe/rbdock.cxx#4 $)

>  <Rbt.Library>
libRbt.so (2013.1, Build901 2013/11/27)

>  <Rbt.Parameter_File>
/export/apps/rDock/src/rDock_2013.1_src/data/scripts/dock_solv.prm

>  <Rbt.Receptor>
prm/blind_docking_40.prm

>  <SCORE>
-64.0896

>  <SCORE.INTER>
-46.9906

>  <SCORE.INTER.CONST>
1

>  <SCORE.INTER.POLAR>
-6.64749

>  <SCORE.INTER.ROT>
9

>  <SCORE.INTER.SOLV>
29.4293

>  <SCORE.INTER.VDW>
-28.5785

>  <SCORE.INTER.norm>
-1.11882

>  <SCORE.INTRA>
-19.1086

>  <SCORE.INTRA.DIHEDRAL>
-11.7872

>  <SCORE.INTRA.DIHEDRAL.0>
40.6252

>  <SCORE.INTRA.POLAR>
-1.08817

>  <SCORE.INTRA.POLAR.0>
-1.20161

>  <SCORE.INTRA.REPUL>
-0.11324

>  <SCORE.INTRA.REPUL.0>
0.115675

>  <SCORE.INTRA.SOLV>
-1.8337

>  <SCORE.INTRA.SOLV.lig_0>
-154.895

>  <SCORE.INTRA.VDW>
-8.03218

>  <SCORE.INTRA.VDW.0>
2.2925

>  <SCORE.INTRA.norm>
-0.454967

>  <SCORE.RESTR>
2.00966

>  <SCORE.RESTR.CAVITY>
2.00966

>  <SCORE.RESTR.norm>
0.0478491

>  <SCORE.SYSTEM>
0

>  <SCORE.SYSTEM.CONST>
0

>  <SCORE.SYSTEM.DIHEDRAL>
0

>  <SCORE.SYSTEM.SOLV>
0

>  <SCORE.SYSTEM.norm>
0

>  <SCORE.heavy>
42

>  <SCORE.norm>
-1.52594

>  <RMSD>
14.826

$$$$

 OpenBabel11021811413D
libRbt.so/2013.1/901 2013/11/27
 42 45  0  0  0  0  0  0  0  0999 V2000
   -8.7663   -4.1346   -1.6358 O   0  0  0  0  0  0  0  0  0  0  0  0
   -7.9670   -4.6095   -2.7097 C   0  0  0  0  0  0  0  0  0  0  0  0
   -6.4909   -4.5736   -2.3117 C   0  0  1  0  0  0  0  0  0  0  0  0
   -6.1249   -3.2866   -1.7683 O   0  0  0  0  0  0  0  0  0  0  0  0
   -6.1293   -5.5913   -1.2427 C   0  0  2  0  0  0  0  0  0  0  0  0
   -4.8303   -4.9981   -0.7235 C   0  0  1  0  0  0  0  0  0  0  0  0
   -3.7749   -5.2786   -1.6364 O   0  0  0  0  0  0  0  0  0  0  0  0
   -5.1372   -3.4867   -0.7256 C   0  0  2  0  0  0  0  0  0  0  0  0
   -8.5194   -8.1242   -4.0962 C   0  0  2  0  0  0  0  0  0  0  0  0
   -7.2659   -7.5845   -3.6502 O   0  0  0  0  0  0  0  0  0  0  0  0
   -7.1945   -7.5060   -2.2151 C   0  0  2  0  0  0  0  0  0  0  0  0
   -5.9484   -6.9067   -1.8031 O   0  0  0  0  0  0  0  0  0  0  0  0
   -7.3496   -8.9015   -1.5867 C   0  0  2  0  0  0  0  0  0  0  0  0
   -6.1239   -9.6667   -1.7232 N   0  3  0  0  0  0  0  0  0  0  0  0
   -8.5385   -9.6859   -2.1540 C   0  0  1  0  0  0  0  0  0  0  0  0
   -9.7405   -9.2027   -1.5756 O   0  0  0  0  0  0  0  0  0  0  0  0
   -8.6261   -9.5841   -3.6744 C   0  0  2  0  0  0  0  0  0  0  0  0
   -7.5827  -10.3443   -4.2728 O   0  0  0  0  0  0  0  0  0  0  0  0
   -8.6573   -7.9844   -5.6096 C   0  0  0  0  0  0  0  0  0  0  0  0
   -8.4142   -6.6130   -6.0159 N   0  3  0  0  0  0  0  0  0  0  0  0
   -2.5391   -7.0839    3.1926 C   0  0  1  0  0  0  0  0  0  0  0  0
   -3.0053   -6.6463    1.8991 O   0  0  0  0  0  0  0  0  0  0  0  0
   -4.2486   -5.9099    1.9574 C   0  0  2  0  0  0  0  0  0  0  0  0
   -4.1015   -4.6496    2.6571 O   0  0  0  0  0  0  0  0  0  0  0  0
   -5.3546   -6.7658    2.5866 C   0  0  2  0  0  0  0  0  0  0  0  0
   -6.5312   -5.9527    2.8319 N   0  3  0  0  0  0  0  0  0  0  0  0
   -4.9018   -7.4000    3.8970 C   0  0  1  0  0  0  0  0  0  0  0  0
   -5.8577   -8.3605    4.3186 O   0  0  0  0  0  0  0  0  0  0  0  0
   -3.5334   -8.0574    3.8042 C   0  0  2  0  0  0  0  0  0  0  0  0
   -3.0907   -8.4595    5.0922 O   0  0  0  0  0  0  0  0  0  0  0  0
   -1.2062   -7.8129    3.0483 C   0  0  0  0  0  0  0  0  0  0  0  0
   -0.5028   -7.3675    1.8594 N   0  3  0  0  0  0  0  0  0  0  0  0
   -2.9520   -0.6560    1.7462 C   0  0  2  0  0  0  0  0  0  0  0  0
   -1.8645   -1.7091    1.8266 C   0  0  0  0  0  0  0  0  0  0  0  0
   -2.3753   -2.9475    2.5396 C   0  0  1  0  0  0  0  0  0  0  0  0
   -3.5546   -3.5998    1.8166 C   0  0  2  0  0  0  0  0  0  0  0  0
   -4.6509   -2.5581    1.4943 C   0  0  1  0  0  0  0  0  0  0  0  0
   -4.1652   -1.1902    0.9970 C   0  0  1  0  0  0  0  0  0  0  0  0
   -2.4371    0.5174    1.0666 N   0  3  0  0  0  0  0  0  0  0  0  0
   -1.2837   -3.8901    2.6875 N   0  3  0  0  0  0  0  0  0  0  0  0
   -5.6417   -3.0938    0.5831 O   0  0  0  0  0  0  0  0  0  0  0  0
   -5.2283   -0.2459    1.0693 O   0  0  0  0  0  0  0  0  0  0  0  0
  1  2  1  0  0  0  0
  3  2  1  1  0  0  0
  3  4  1  0  0  0  0
  3  5  1  0  0  0  0
  4  8  1  0  0  0  0
  5  6  1  0  0  0  0
  5 12  1  6  0  0  0
  6  7  1  6  0  0  0
  6  8  1  0  0  0  0
  8 41  1  1  0  0  0
  9 10  1  0  0  0  0
  9 17  1  0  0  0  0
  9 19  1  6  0  0  0
 10 11  1  0  0  0  0
 11 12  1  6  0  0  0
 11 13  1  0  0  0  0
 13 14  1  6  0  0  0
 13 15  1  0  0  0  0
 15 16  1  1  0  0  0
 15 17  1  0  0  0  0
 17 18  1  6  0  0  0
 19 20  1  0  0  0  0
 21 22  1  0  0  0  0
 21 29  1  0  0  0  0
 21 31  1  6  0  0  0
 22 23  1  0  0  0  0
 23 24  1  1  0  0  0
 23 25  1  0  0  0  0
 25 26  1  1  0  0  0
 25 27  1  0  0  0  0
 27 28  1  6  0  0  0
 27 29  1  0  0  0  0
 29 30  1  1  0  0  0
 31 32  1  0  0  0  0
 33 34  1  0  0  0  0
 33 38  1  0  0  0  0
 33 39  1  6  0  0  0
 34 35  1  0  0  0  0
 35 36  1  0  0  0  0
 35 40  1  6  0  0  0
 36 24  1  1  0  0  0
 36 37  1  0  0  0  0
 37 38  1  0  0  0  0
 37 41  1  6  0  0  0
 38 42  1  1  0  0  0
M  CHG  6  14   1  20   1  26   1  32   1  39   1  40   1
M  END
>  <CHROM.1>
66.81810038,-50.05053329,-71.79453087,-173.18031681,-147.52294007,-52.18304205
110.11078318,-173.83685725,59.02942719,-179.02878517,176.07540438,25.66008128
81.63362663,-129.24618095,100.25918768,-168.57379669,-170.63508279,-102.40229659
-96.92108469,49.37204594,-61.81925542,-166.83797542,-5.29052735,-5.77110023
0.03538009,2.86077205,0.92958292,2.85501228

>  <Name>


>  <RI>
0

>  <Rbt.Current_Directory>
/home/itssahil/PROJECTS/Mol_Feturizer/New_Systems/rnas/1qd3

>  <Rbt.Executable>
rbdock ($Id: //depot/dev/client3/rdock/2013.1/src/exe/rbdock.cxx#4 $)

>  <Rbt.Library>
libRbt.so (2013.1, Build901 2013/11/27)

>  <Rbt.Parameter_File>
/export/apps/rDock/src/rDock_2013.1_src/data/scripts/dock_solv.prm

>  <Rbt.Receptor>
prm/blind_docking_60.prm

>  <SCORE>
-61.7295

>  <SCORE.INTER>
-49.7973

>  <SCORE.INTER.CONST>
1

>  <SCORE.INTER.POLAR>
-6.88531

>  <SCORE.INTER.ROT>
9

>  <SCORE.INTER.SOLV>
39.1298

>  <SCORE.INTER.VDW>
-32.8904

>  <SCORE.INTER.norm>
-1.18565

>  <SCORE.INTRA>
-12.8958

>  <SCORE.INTRA.DIHEDRAL>
-4.60651

>  <SCORE.INTRA.DIHEDRAL.0>
40.6252

>  <SCORE.INTRA.POLAR>
1.073

>  <SCORE.INTRA.POLAR.0>
-1.20161

>  <SCORE.INTRA.REPUL>
-0.104265

>  <SCORE.INTRA.REPUL.0>
0.115675

>  <SCORE.INTRA.SOLV>
-9.15548

>  <SCORE.INTRA.SOLV.lig_0>
-154.895

>  <SCORE.INTRA.VDW>
-9.14168

>  <SCORE.INTRA.VDW.0>
2.2925

>  <SCORE.INTRA.norm>
-0.307043

>  <SCORE.RESTR>
0.963629

>  <SCORE.RESTR.CAVITY>
0.963629

>  <SCORE.RESTR.norm>
0.0229436

>  <SCORE.SYSTEM>
0

>  <SCORE.SYSTEM.CONST>
0

>  <SCORE.SYSTEM.DIHEDRAL>
0

>  <SCORE.SYSTEM.SOLV>
0

>  <SCORE.SYSTEM.norm>
0

>  <SCORE.heavy>
42

>  <SCORE.norm>
-1.46975

>  <RMSD>
14.838

$$$$

 OpenBabel11021811413D
libRbt.so/2013.1/901 2013/11/27
 42 45  0  0  0  0  0  0  0  0999 V2000
   -5.3204   -0.4110    1.2153 O   0  0  0  0  0  0  0  0  0  0  0  0
   -4.7051   -1.5256    1.8453 C   0  0  0  0  0  0  0  0  0  0  0  0
   -3.4337   -1.9113    1.0884 C   0  0  1  0  0  0  0  0  0  0  0  0
   -2.4681   -2.5311    1.9654 O   0  0  0  0  0  0  0  0  0  0  0  0
   -3.6771   -2.9108   -0.0302 C   0  0  2  0  0  0  0  0  0  0  0  0
   -2.2718   -3.4541   -0.2270 C   0  0  1  0  0  0  0  0  0  0  0  0
   -1.4916   -2.5157   -0.9594 O   0  0  0  0  0  0  0  0  0  0  0  0
   -1.7524   -3.5500    1.2220 C   0  0  2  0  0  0  0  0  0  0  0  0
   -7.4878   -3.1582   -2.5077 C   0  0  2  0  0  0  0  0  0  0  0  0
   -6.4533   -2.3704   -1.8989 O   0  0  0  0  0  0  0  0  0  0  0  0
   -5.1908   -3.0609   -1.8829 C   0  0  2  0  0  0  0  0  0  0  0  0
   -4.1890   -2.2671   -1.2136 O   0  0  0  0  0  0  0  0  0  0  0  0
   -4.7377   -3.3970   -3.3140 C   0  0  2  0  0  0  0  0  0  0  0  0
   -4.2174   -2.2171   -3.9798 N   0  3  0  0  0  0  0  0  0  0  0  0
   -5.8427   -4.0456   -4.1561 C   0  0  1  0  0  0  0  0  0  0  0  0
   -5.9741   -5.4101   -3.7903 O   0  0  0  0  0  0  0  0  0  0  0  0
   -7.1860   -3.3403   -3.9897 C   0  0  2  0  0  0  0  0  0  0  0  0
   -7.1549   -2.0763   -4.6422 O   0  0  0  0  0  0  0  0  0  0  0  0
   -8.8513   -2.5026   -2.3074 C   0  0  0  0  0  0  0  0  0  0  0  0
   -9.7878   -3.4478   -1.7291 N   0  3  0  0  0  0  0  0  0  0  0  0
   -4.1246   -8.2651    0.0568 C   0  0  1  0  0  0  0  0  0  0  0  0
   -3.4080   -7.0236    0.2221 O   0  0  0  0  0  0  0  0  0  0  0  0
   -4.2381   -5.9434    0.7075 C   0  0  2  0  0  0  0  0  0  0  0  0
   -4.7152   -6.1873    2.0538 O   0  0  0  0  0  0  0  0  0  0  0  0
   -5.4044   -5.6842   -0.2539 C   0  0  2  0  0  0  0  0  0  0  0  0
   -6.3408   -4.7504    0.3436 N   0  3  0  0  0  0  0  0  0  0  0  0
   -6.1394   -6.9714   -0.6107 C   0  0  1  0  0  0  0  0  0  0  0  0
   -7.0481   -6.7244   -1.6725 O   0  0  0  0  0  0  0  0  0  0  0  0
   -5.2058   -8.1074   -0.9998 C   0  0  2  0  0  0  0  0  0  0  0  0
   -5.9332   -9.3194   -1.1359 O   0  0  0  0  0  0  0  0  0  0  0  0
   -3.1716   -9.3593   -0.4155 C   0  0  0  0  0  0  0  0  0  0  0  0
   -2.3716   -9.8562    0.6890 N   0  3  0  0  0  0  0  0  0  0  0  0
   -2.6000   -4.8865    5.5083 C   0  0  2  0  0  0  0  0  0  0  0  0
   -3.2184   -6.2704    5.5313 C   0  0  0  0  0  0  0  0  0  0  0  0
   -4.2472   -6.4113    4.4247 C   0  0  1  0  0  0  0  0  0  0  0  0
   -3.6428   -6.2323    3.0313 C   0  0  2  0  0  0  0  0  0  0  0  0
   -2.8047   -4.9352    2.9541 C   0  0  1  0  0  0  0  0  0  0  0  0
   -1.9234   -4.6207    4.1702 C   0  0  1  0  0  0  0  0  0  0  0  0
   -1.6259   -4.7762    6.5774 N   0  3  0  0  0  0  0  0  0  0  0  0
   -4.8884   -7.7067    4.5396 N   0  3  0  0  0  0  0  0  0  0  0  0
   -2.0129   -4.8854    1.7419 O   0  0  0  0  0  0  0  0  0  0  0  0
   -1.4886   -3.2662    4.1128 O   0  0  0  0  0  0  0  0  0  0  0  0
  1  2  1  0  0  0  0
  3  2  1  1  0  0  0
  3  4  1  0  0  0  0
  3  5  1  0  0  0  0
  4  8  1  0  0  0  0
  5  6  1  0  0  0  0
  5 12  1  6  0  0  0
  6  7  1  6  0  0  0
  6  8  1  0  0  0  0
  8 41  1  1  0  0  0
  9 10  1  0  0  0  0
  9 17  1  0  0  0  0
  9 19  1  6  0  0  0
 10 11  1  0  0  0  0
 11 12  1  6  0  0  0
 11 13  1  0  0  0  0
 13 14  1  6  0  0  0
 13 15  1  0  0  0  0
 15 16  1  1  0  0  0
 15 17  1  0  0  0  0
 17 18  1  6  0  0  0
 19 20  1  0  0  0  0
 21 22  1  0  0  0  0
 21 29  1  0  0  0  0
 21 31  1  6  0  0  0
 22 23  1  0  0  0  0
 23 24  1  1  0  0  0
 23 25  1  0  0  0  0
 25 26  1  1  0  0  0
 25 27  1  0  0  0  0
 27 28  1  6  0  0  0
 27 29  1  0  0  0  0
 29 30  1  1  0  0  0
 31 32  1  0  0  0  0
 33 34  1  0  0  0  0
 33 38  1  0  0  0  0
 33 39  1  1  0  0  0
 34 35  1  0  0  0  0
 35 36  1  0  0  0  0
 35 40  1  6  0  0  0
 36 24  1  6  0  0  0
 36 37  1  0  0  0  0
 37 38  1  0  0  0  0
 37 41  1  6  0  0  0
 38 42  1  1  0  0  0
M  CHG  6  14   1  20   1  26   1  32   1  39   1  40   1
M  END
>  <CHROM.1>
169.31629904,151.81479932,-141.65989324,-54.93511156,-5.95494603,-127.22256570
117.61962108,7.93269453,68.44550529,-168.00279191,-60.15249049,77.67310509
64.60132848,176.73042132,80.58736856,-162.84950633,-63.51289558,-103.15540207
58.09723633,73.86793603,149.82979386,157.54578492,-4.51440672,-4.71702868
0.27790545,-2.69611476,1.01163375,2.95167070

>  <Name>


>  <RI>
0

>  <Rbt.Current_Directory>
/home/itssahil/PROJECTS/Mol_Feturizer/New_Systems/rnas/1qd3

>  <Rbt.Executable>
rbdock ($Id: //depot/dev/client3/rdock/2013.1/src/exe/rbdock.cxx#4 $)

>  <Rbt.Library>
libRbt.so (2013.1, Build901 2013/11/27)

>  <Rbt.Parameter_File>
/export/apps/rDock/src/rDock_2013.1_src/data/scripts/dock_solv.prm

>  <Rbt.Receptor>
prm/blind_docking_40.prm

>  <SCORE>
-48.2069

>  <SCORE.INTER>
-39.9785

>  <SCORE.INTER.CONST>
1

>  <SCORE.INTER.POLAR>
-6.29129

>  <SCORE.INTER.ROT>
9

>  <SCORE.INTER.SOLV>
32.518

>  <SCORE.INTER.VDW>
-26.1207

>  <SCORE.INTER.norm>
-0.95187

>  <SCORE.INTRA>
-10.0439

>  <SCORE.INTRA.DIHEDRAL>
4.58043

>  <SCORE.INTRA.DIHEDRAL.0>
40.6252

>  <SCORE.INTRA.POLAR>
0.138414

>  <SCORE.INTRA.POLAR.0>
-1.20161

>  <SCORE.INTRA.REPUL>
-0.112584

>  <SCORE.INTRA.REPUL.0>
0.115675

>  <SCORE.INTRA.SOLV>
-6.79661

>  <SCORE.INTRA.SOLV.lig_0>
-154.895

>  <SCORE.INTRA.VDW>
-8.84346

>  <SCORE.INTRA.VDW.0>
2.2925

>  <SCORE.INTRA.norm>
-0.239139

>  <SCORE.RESTR>
1.81554

>  <SCORE.RESTR.CAVITY>
1.81554

>  <SCORE.RESTR.norm>
0.0432271

>  <SCORE.SYSTEM>
0

>  <SCORE.SYSTEM.CONST>
0

>  <SCORE.SYSTEM.DIHEDRAL>
0

>  <SCORE.SYSTEM.SOLV>
0

>  <SCORE.SYSTEM.norm>
0

>  <SCORE.heavy>
42

>  <SCORE.norm>
-1.14778

>  <RMSD>
14.840

$$$$

 OpenBabel11021811413D
libRbt.so/2013.1/901 2013/11/27
 42 45  0  0  0  0  0  0  0  0999 V2000
   -1.9743   -3.3992    6.5393 O   0  0  0  0  0  0  0  0  0  0  0  0
   -0.8588   -2.9710    5.7713 C   0  0  0  0  0  0  0  0  0  0  0  0
   -0.8310   -3.7184    4.4375 C   0  0  1  0  0  0  0  0  0  0  0  0
   -1.0668   -5.1312    4.6224 O   0  0  0  0  0  0  0  0  0  0  0  0
   -1.8941   -3.2468    3.4593 C   0  0  2  0  0  0  0  0  0  0  0  0
   -1.9510   -4.4372    2.5168 C   0  0  1  0  0  0  0  0  0  0  0  0
   -0.8347   -4.4058    1.6344 O   0  0  0  0  0  0  0  0  0  0  0  0
   -1.8189   -5.6289    3.4868 C   0  0  2  0  0  0  0  0  0  0  0  0
   -3.2608    0.9471    1.6257 C   0  0  2  0  0  0  0  0  0  0  0  0
   -2.1709    0.0511    1.8915 O   0  0  0  0  0  0  0  0  0  0  0  0
   -2.6203   -1.1815    2.4829 C   0  0  2  0  0  0  0  0  0  0  0  0
   -1.4973   -2.0336    2.7902 O   0  0  0  0  0  0  0  0  0  0  0  0
   -3.6009   -1.9074    1.5460 C   0  0  2  0  0  0  0  0  0  0  0  0
   -2.8907   -2.5522    0.4569 N   0  3  0  0  0  0  0  0  0  0  0  0
   -4.7006   -0.9887    1.0006 C   0  0  1  0  0  0  0  0  0  0  0  0
   -5.6833   -0.7839    2.0032 O   0  0  0  0  0  0  0  0  0  0  0  0
   -4.1525    0.3591    0.5395 C   0  0  2  0  0  0  0  0  0  0  0  0
   -3.4138    0.1963   -0.6656 O   0  0  0  0  0  0  0  0  0  0  0  0
   -2.7394    2.3215    1.2156 C   0  0  0  0  0  0  0  0  0  0  0  0
   -3.8311    3.1632    0.7632 N   0  3  0  0  0  0  0  0  0  0  0  0
   -5.9599   -7.5695   -0.8833 C   0  0  1  0  0  0  0  0  0  0  0  0
   -4.7792   -8.3834   -0.7227 O   0  0  0  0  0  0  0  0  0  0  0  0
   -3.6520   -7.6569   -0.1815 C   0  0  2  0  0  0  0  0  0  0  0  0
   -3.8913   -7.2170    1.1783 O   0  0  0  0  0  0  0  0  0  0  0  0
   -3.2846   -6.4758   -1.0880 C   0  0  2  0  0  0  0  0  0  0  0  0
   -2.2981   -5.6369   -0.4333 N   0  3  0  0  0  0  0  0  0  0  0  0
   -4.5050   -5.6326   -1.4401 C   0  0  1  0  0  0  0  0  0  0  0  0
   -4.1665   -4.7033   -2.4579 O   0  0  0  0  0  0  0  0  0  0  0  0
   -5.6977   -6.4619   -1.8907 C   0  0  2  0  0  0  0  0  0  0  0  0
   -6.8489   -5.6407   -2.0209 O   0  0  0  0  0  0  0  0  0  0  0  0
   -7.1105   -8.4181   -1.4170 C   0  0  0  0  0  0  0  0  0  0  0  0
   -6.6819   -9.2062   -2.5580 N   0  3  0  0  0  0  0  0  0  0  0  0
   -2.9325   -9.8606    4.3707 C   0  0  2  0  0  0  0  0  0  0  0  0
   -2.3049  -10.1232    3.0160 C   0  0  0  0  0  0  0  0  0  0  0  0
   -3.0455   -9.3638    1.9308 C   0  0  1  0  0  0  0  0  0  0  0  0
   -3.0048   -7.8491    2.1385 C   0  0  2  0  0  0  0  0  0  0  0  0
   -3.4335   -7.4760    3.5765 C   0  0  1  0  0  0  0  0  0  0  0  0
   -2.9005   -8.3744    4.7005 C   0  0  1  0  0  0  0  0  0  0  0  0
   -2.2109  -10.6013    5.3878 N   0  3  0  0  0  0  0  0  0  0  0  0
   -2.4838   -9.7167    0.6415 N   0  3  0  0  0  0  0  0  0  0  0  0
   -3.1463   -6.0874    3.8734 O   0  0  0  0  0  0  0  0  0  0  0  0
   -3.6314   -8.1326    5.8982 O   0  0  0  0  0  0  0  0  0  0  0  0
  1  2  1  0  0  0  0
  3  2  1  1  0  0  0
  3  4  1  0  0  0  0
  3  5  1  0  0  0  0
  4  8  1  0  0  0  0
  5  6  1  0  0  0  0
  5 12  1  6  0  0  0
  6  7  1  6  0  0  0
  6  8  1  0  0  0  0
  8 41  1  1  0  0  0
  9 10  1  0  0  0  0
  9 17  1  0  0  0  0
  9 19  1  6  0  0  0
 10 11  1  0  0  0  0
 11 12  1  6  0  0  0
 11 13  1  0  0  0  0
 13 14  1  6  0  0  0
 13 15  1  0  0  0  0
 15 16  1  1  0  0  0
 15 17  1  0  0  0  0
 17 18  1  6  0  0  0
 19 20  1  0  0  0  0
 21 22  1  0  0  0  0
 21 29  1  0  0  0  0
 21 31  1  6  0  0  0
 22 23  1  0  0  0  0
 23 24  1  1  0  0  0
 23 25  1  0  0  0  0
 25 26  1  1  0  0  0
 25 27  1  0  0  0  0
 27 28  1  6  0  0  0
 27 29  1  0  0  0  0
 29 30  1  1  0  0  0
 31 32  1  0  0  0  0
 33 34  1  0  0  0  0
 33 38  1  0  0  0  0
 33 39  1  1  0  0  0
 34 35  1  0  0  0  0
 35 36  1  0  0  0  0
 35 40  1  6  0  0  0
 36 24  1  6  0  0  0
 36 37  1  0  0  0  0
 37 38  1  0  0  0  0
 37 41  1  1  0  0  0
 38 42  1  1  0  0  0
M  CHG  6  14   1  20   1  26   1  32   1  39   1  40   1
M  END
>  <CHROM.1>
170.54356358,-45.41141497,-147.45215857,-37.60535599,-121.06075244,171.77645630
176.47257186,-157.94123693,169.96118753,-173.15008161,-64.55361986,-48.55611658
114.86767539,-50.89778904,85.48784471,-54.63970714,-65.46740067,67.86216296
-88.14991245,146.59658358,-46.33326042,177.43896586,-3.33329560,-4.88269925
1.63486273,-1.42362912,1.07292870,2.99511811

>  <Name>


>  <RI>
0

>  <Rbt.Current_Directory>
/home/itssahil/PROJECTS/Mol_Feturizer/New_Systems/rnas/1qd3

>  <Rbt.Executable>
rbdock ($Id: //depot/dev/client3/rdock/2013.1/src/exe/rbdock.cxx#4 $)

>  <Rbt.Library>
libRbt.so (2013.1, Build901 2013/11/27)

>  <Rbt.Parameter_File>
/export/apps/rDock/src/rDock_2013.1_src/data/scripts/dock_solv.prm

>  <Rbt.Receptor>
prm/blind_docking_80.prm

>  <SCORE>
-35.273

>  <SCORE.INTER>
-35.8689

>  <SCORE.INTER.CONST>
1

>  <SCORE.INTER.POLAR>
-4.46609

>  <SCORE.INTER.ROT>
9

>  <SCORE.INTER.SOLV>
22.292

>  <SCORE.INTER.VDW>
-26.0563

>  <SCORE.INTER.norm>
-0.854022

>  <SCORE.INTRA>
-0.253758

>  <SCORE.INTRA.DIHEDRAL>
-9.41736

>  <SCORE.INTRA.DIHEDRAL.0>
40.6252

>  <SCORE.INTRA.POLAR>
-0.0252166

>  <SCORE.INTRA.POLAR.0>
-1.20161

>  <SCORE.INTRA.REPUL>
-0.111405

>  <SCORE.INTRA.REPUL.0>
0.115675

>  <SCORE.INTRA.SOLV>
4.65935

>  <SCORE.INTRA.SOLV.lig_0>
-154.895

>  <SCORE.INTRA.VDW>
2.76801

>  <SCORE.INTRA.VDW.0>
2.2925

>  <SCORE.INTRA.norm>
-0.00604187

>  <SCORE.RESTR>
0.849687

>  <SCORE.RESTR.CAVITY>
0.849687

>  <SCORE.RESTR.norm>
0.0202306

>  <SCORE.SYSTEM>
0

>  <SCORE.SYSTEM.CONST>
0

>  <SCORE.SYSTEM.DIHEDRAL>
0

>  <SCORE.SYSTEM.SOLV>
0

>  <SCORE.SYSTEM.norm>
0

>  <SCORE.heavy>
42

>  <SCORE.norm>
-0.839834

>  <RMSD>
14.841

$$$$

 OpenBabel11021811413D
libRbt.so/2013.1/901 2013/11/27
 42 45  0  0  0  0  0  0  0  0999 V2000
   -1.9457   -5.2981   -2.1004 O   0  0  0  0  0  0  0  0  0  0  0  0
   -2.9453   -4.4469   -1.5583 C   0  0  0  0  0  0  0  0  0  0  0  0
   -4.3276   -5.0578   -1.7915 C   0  0  1  0  0  0  0  0  0  0  0  0
   -4.2512   -6.4937   -1.9254 O   0  0  0  0  0  0  0  0  0  0  0  0
   -5.3010   -4.8002   -0.6533 C   0  0  2  0  0  0  0  0  0  0  0  0
   -6.3274   -5.8898   -0.9146 C   0  0  1  0  0  0  0  0  0  0  0  0
   -7.1715   -5.5062   -1.9946 O   0  0  0  0  0  0  0  0  0  0  0  0
   -5.4414   -7.0787   -1.3388 C   0  0  2  0  0  0  0  0  0  0  0  0
   -4.6124   -0.0994   -0.1374 C   0  0  2  0  0  0  0  0  0  0  0  0
   -5.5442   -1.1527   -0.4266 O   0  0  0  0  0  0  0  0  0  0  0  0
   -4.9215   -2.4492   -0.3799 C   0  0  2  0  0  0  0  0  0  0  0  0
   -5.8696   -3.4783   -0.7315 O   0  0  0  0  0  0  0  0  0  0  0  0
   -4.3334   -2.7190    1.0158 C   0  0  2  0  0  0  0  0  0  0  0  0
   -5.3824   -3.0589    1.9595 N   0  3  0  0  0  0  0  0  0  0  0  0
   -3.4901   -1.5538    1.5467 C   0  0  1  0  0  0  0  0  0  0  0  0
   -2.2180   -1.5687    0.9187 O   0  0  0  0  0  0  0  0  0  0  0  0
   -4.1594   -0.2021    1.3134 C   0  0  2  0  0  0  0  0  0  0  0  0
   -5.2735   -0.0548    2.1861 O   0  0  0  0  0  0  0  0  0  0  0  0
   -5.2387    1.2642   -0.4157 C   0  0  0  0  0  0  0  0  0  0  0  0
   -4.2691    2.3211   -0.1972 N   0  3  0  0  0  0  0  0  0  0  0  0
   -2.9234   -7.8744    3.8980 C   0  0  1  0  0  0  0  0  0  0  0  0
   -3.7212   -7.3762    2.8038 O   0  0  0  0  0  0  0  0  0  0  0  0
   -2.9523   -7.1128    1.6077 C   0  0  2  0  0  0  0  0  0  0  0  0
   -2.4001   -8.3257    1.0386 O   0  0  0  0  0  0  0  0  0  0  0  0
   -1.8513   -6.0830    1.8888 C   0  0  2  0  0  0  0  0  0  0  0  0
   -0.9607   -5.9857    0.7472 N   0  3  0  0  0  0  0  0  0  0  0  0
   -1.0401   -6.4469    3.1274 C   0  0  1  0  0  0  0  0  0  0  0  0
   -0.1993   -5.3607    3.4842 O   0  0  0  0  0  0  0  0  0  0  0  0
   -1.9039   -6.8288    4.3196 C   0  0  2  0  0  0  0  0  0  0  0  0
   -1.0962   -7.3341    5.3726 O   0  0  0  0  0  0  0  0  0  0  0  0
   -3.8133   -8.1658    5.1029 C   0  0  0  0  0  0  0  0  0  0  0  0
   -4.8794   -7.1860    5.2036 N   0  3  0  0  0  0  0  0  0  0  0  0
   -4.2805  -11.4888   -1.0965 C   0  0  2  0  0  0  0  0  0  0  0  0
   -3.6503  -11.8108    0.2441 C   0  0  0  0  0  0  0  0  0  0  0  0
   -2.6999  -10.7048    0.6641 C   0  0  1  0  0  0  0  0  0  0  0  0
   -3.4014   -9.3561    0.8302 C   0  0  2  0  0  0  0  0  0  0  0  0
   -4.2538   -9.0185   -0.4149 C   0  0  1  0  0  0  0  0  0  0  0  0
   -5.0508  -10.1770   -1.0288 C   0  0  1  0  0  0  0  0  0  0  0  0
   -5.1786  -12.5624   -1.4771 N   0  3  0  0  0  0  0  0  0  0  0  0
   -2.0413  -11.0921    1.8964 N   0  3  0  0  0  0  0  0  0  0  0  0
   -5.1284   -7.8898   -0.1701 O   0  0  0  0  0  0  0  0  0  0  0  0
   -5.5000   -9.8163   -2.3308 O   0  0  0  0  0  0  0  0  0  0  0  0
  1  2  1  0  0  0  0
  3  2  1  1  0  0  0
  3  4  1  0  0  0  0
  3  5  1  0  0  0  0
  4  8  1  0  0  0  0
  5  6  1  0  0  0  0
  5 12  1  6  0  0  0
  6  7  1  6  0  0  0
  6  8  1  0  0  0  0
  8 41  1  1  0  0  0
  9 10  1  0  0  0  0
  9 17  1  0  0  0  0
  9 19  1  1  0  0  0
 10 11  1  0  0  0  0
 11 12  1  1  0  0  0
 11 13  1  0  0  0  0
 13 14  1  1  0  0  0
 13 15  1  0  0  0  0
 15 16  1  6  0  0  0
 15 17  1  0  0  0  0
 17 18  1  1  0  0  0
 19 20  1  0  0  0  0
 21 22  1  0  0  0  0
 21 29  1  0  0  0  0
 21 31  1  1  0  0  0
 22 23  1  0  0  0  0
 23 24  1  1  0  0  0
 23 25  1  0  0  0  0
 25 26  1  6  0  0  0
 25 27  1  0  0  0  0
 27 28  1  1  0  0  0
 27 29  1  0  0  0  0
 29 30  1  1  0  0  0
 31 32  1  0  0  0  0
 33 34  1  0  0  0  0
 33 38  1  0  0  0  0
 33 39  1  1  0  0  0
 34 35  1  0  0  0  0
 35 36  1  0  0  0  0
 35 40  1  1  0  0  0
 36 24  1  6  0  0  0
 36 37  1  0  0  0  0
 37 38  1  0  0  0  0
 37 41  1  1  0  0  0
 38 42  1  6  0  0  0
M  CHG  6  14   1  20   1  26   1  32   1  39   1  40   1
M  END
>  <CHROM.1>
58.86906109,25.45216661,-72.54824300,-165.28363791,-60.79801369,-176.66616020
-177.99446864,-145.06404577,69.94359535,54.51849576,169.91777447,-36.33344383
52.29217110,-162.11157652,75.69890063,-87.14554182,-57.60987861,-61.69258988
-48.58224784,-176.20477909,150.13197421,-45.84508193,-3.85001774,-5.81708230
0.72470819,1.76159669,-1.03683027,0.12652415

>  <Name>


>  <RI>
0

>  <Rbt.Current_Directory>
/home/itssahil/PROJECTS/Mol_Feturizer/New_Systems/rnas/1qd3

>  <Rbt.Executable>
rbdock ($Id: //depot/dev/client3/rdock/2013.1/src/exe/rbdock.cxx#4 $)

>  <Rbt.Library>
libRbt.so (2013.1, Build901 2013/11/27)

>  <Rbt.Parameter_File>
/export/apps/rDock/src/rDock_2013.1_src/data/scripts/dock_solv.prm

>  <Rbt.Receptor>
prm/blind_docking_80.prm

>  <SCORE>
-50.0815

>  <SCORE.INTER>
-32.7158

>  <SCORE.INTER.CONST>
1

>  <SCORE.INTER.POLAR>
-4.63673

>  <SCORE.INTER.ROT>
9

>  <SCORE.INTER.SOLV>
27.7148

>  <SCORE.INTER.VDW>
-25.193

>  <SCORE.INTER.norm>
-0.778946

>  <SCORE.INTRA>
-20.5083

>  <SCORE.INTRA.DIHEDRAL>
-19.6827

>  <SCORE.INTRA.DIHEDRAL.0>
40.6252

>  <SCORE.INTRA.POLAR>
0.185487

>  <SCORE.INTRA.POLAR.0>
-1.20161

>  <SCORE.INTRA.REPUL>
-0.115675

>  <SCORE.INTRA.REPUL.0>
0.115675

>  <SCORE.INTRA.SOLV>
-8.39057

>  <SCORE.INTRA.SOLV.lig_0>
-154.895

>  <SCORE.INTRA.VDW>
-6.52399

>  <SCORE.INTRA.VDW.0>
2.2925

>  <SCORE.INTRA.norm>
-0.488294

>  <SCORE.RESTR>
3.14263

>  <SCORE.RESTR.CAVITY>
3.14263

>  <SCORE.RESTR.norm>
0.0748245

>  <SCORE.SYSTEM>
0

>  <SCORE.SYSTEM.CONST>
0

>  <SCORE.SYSTEM.DIHEDRAL>
0

>  <SCORE.SYSTEM.SOLV>
0

>  <SCORE.SYSTEM.norm>
0

>  <SCORE.heavy>
42

>  <SCORE.norm>
-1.19242

>  <RMSD>
14.847

$$$$

 OpenBabel11021811413D
libRbt.so/2013.1/901 2013/11/27
 42 45  0  0  0  0  0  0  0  0999 V2000
   -0.7683   -2.8365    4.9520 O   0  0  0  0  0  0  0  0  0  0  0  0
   -1.3252   -4.1285    4.7568 C   0  0  0  0  0  0  0  0  0  0  0  0
   -1.2057   -4.5268    3.2852 C   0  0  1  0  0  0  0  0  0  0  0  0
   -1.5174   -5.9237    3.0923 O   0  0  0  0  0  0  0  0  0  0  0  0
   -2.1523   -3.7627    2.3745 C   0  0  2  0  0  0  0  0  0  0  0  0
   -2.1721   -4.6799    1.1632 C   0  0  1  0  0  0  0  0  0  0  0  0
   -0.9783   -4.5052    0.4080 O   0  0  0  0  0  0  0  0  0  0  0  0
   -2.1814   -6.0788    1.8125 C   0  0  2  0  0  0  0  0  0  0  0  0
   -3.2272    0.7182    1.1674 C   0  0  2  0  0  0  0  0  0  0  0  0
   -2.2071   -0.2001    1.5889 O   0  0  0  0  0  0  0  0  0  0  0  0
   -2.6724   -1.5618    1.5797 C   0  0  2  0  0  0  0  0  0  0  0  0
   -1.6438   -2.4506    2.0630 O   0  0  0  0  0  0  0  0  0  0  0  0
   -3.1140   -1.9750    0.1652 C   0  0  2  0  0  0  0  0  0  0  0  0
   -1.9621   -2.2391   -0.6772 N   0  3  0  0  0  0  0  0  0  0  0  0
   -4.0402   -0.9485   -0.4977 C   0  0  1  0  0  0  0  0  0  0  0  0
   -5.3478   -1.0798    0.0369 O   0  0  0  0  0  0  0  0  0  0  0  0
   -3.5499    0.4837   -0.3028 C   0  0  2  0  0  0  0  0  0  0  0  0
   -2.3945    0.7141   -1.1006 O   0  0  0  0  0  0  0  0  0  0  0  0
   -2.7844    2.1594    1.4033 C   0  0  0  0  0  0  0  0  0  0  0  0
   -3.7554    3.0847    0.8503 N   0  3  0  0  0  0  0  0  0  0  0  0
   -5.5062   -5.5297   -1.4969 C   0  0  1  0  0  0  0  0  0  0  0  0
   -5.5335   -6.0999   -0.1716 O   0  0  0  0  0  0  0  0  0  0  0  0
   -5.3922   -7.5391   -0.1642 C   0  0  2  0  0  0  0  0  0  0  0  0
   -4.0885   -7.9596   -0.6368 O   0  0  0  0  0  0  0  0  0  0  0  0
   -6.5136   -8.1965   -0.9779 C   0  0  2  0  0  0  0  0  0  0  0  0
   -6.2439   -9.6132   -1.1388 N   0  3  0  0  0  0  0  0  0  0  0  0
   -6.6641   -7.5557   -2.3531 C   0  0  1  0  0  0  0  0  0  0  0  0
   -7.8509   -8.0268   -2.9727 O   0  0  0  0  0  0  0  0  0  0  0  0
   -6.6883   -6.0356   -2.3075 C   0  0  2  0  0  0  0  0  0  0  0  0
   -6.6402   -5.5015   -3.6225 O   0  0  0  0  0  0  0  0  0  0  0  0
   -5.6178   -4.0101   -1.4140 C   0  0  0  0  0  0  0  0  0  0  0  0
   -6.6318   -3.6208   -0.4513 N   0  3  0  0  0  0  0  0  0  0  0  0
   -3.2049  -10.2212    2.8566 C   0  0  2  0  0  0  0  0  0  0  0  0
   -2.4863  -10.5850    1.5723 C   0  0  0  0  0  0  0  0  0  0  0  0
   -3.1939   -9.9755    0.3763 C   0  0  1  0  0  0  0  0  0  0  0  0
   -3.2336   -8.4477    0.4302 C   0  0  2  0  0  0  0  0  0  0  0  0
   -3.7637   -7.9557    1.7969 C   0  0  1  0  0  0  0  0  0  0  0  0
   -3.2593   -8.7099    3.0343 C   0  0  1  0  0  0  0  0  0  0  0  0
   -2.5129  -10.8198    3.9821 N   0  3  0  0  0  0  0  0  0  0  0  0
   -2.5409  -10.4259   -0.8375 N   0  3  0  0  0  0  0  0  0  0  0  0
   -3.5573   -6.5318    1.9658 O   0  0  0  0  0  0  0  0  0  0  0  0
   -4.0705   -8.3876    4.1590 O   0  0  0  0  0  0  0  0  0  0  0  0
  1  2  1  0  0  0  0
  3  2  1  1  0  0  0
  3  4  1  0  0  0  0
  3  5  1  0  0  0  0
  4  8  1  0  0  0  0
  5  6  1  0  0  0  0
  5 12  1  6  0  0  0
  6  7  1  6  0  0  0
  6  8  1  0  0  0  0
  8 41  1  1  0  0  0
  9 10  1  0  0  0  0
  9 17  1  0  0  0  0
  9 19  1  6  0  0  0
 10 11  1  0  0  0  0
 11 12  1  6  0  0  0
 11 13  1  0  0  0  0
 13 14  1  6  0  0  0
 13 15  1  0  0  0  0
 15 16  1  1  0  0  0
 15 17  1  0  0  0  0
 17 18  1  6  0  0  0
 19 20  1  0  0  0  0
 21 22  1  0  0  0  0
 21 29  1  0  0  0  0
 21 31  1  1  0  0  0
 22 23  1  0  0  0  0
 23 24  1  6  0  0  0
 23 25  1  0  0  0  0
 25 26  1  6  0  0  0
 25 27  1  0  0  0  0
 27 28  1  1  0  0  0
 27 29  1  0  0  0  0
 29 30  1  6  0  0  0
 31 32  1  0  0  0  0
 33 34  1  0  0  0  0
 33 38  1  0  0  0  0
 33 39  1  1  0  0  0
 34 35  1  0  0  0  0
 35 36  1  0  0  0  0
 35 40  1  6  0  0  0
 36 24  1  6  0  0  0
 36 37  1  0  0  0  0
 37 38  1  0  0  0  0
 37 41  1  1  0  0  0
 38 42  1  1  0  0  0
M  CHG  6  14   1  20   1  26   1  32   1  39   1  40   1
M  END
>  <CHROM.1>
29.40478856,168.75454519,-161.32148762,61.33995749,-97.79344701,174.07750320
166.12062872,-27.99926372,176.86527288,-150.24053189,88.77242608,-43.47388843
107.04482440,103.17397293,179.93771586,48.50322476,-71.93405500,-68.04205080
-40.29512755,179.08801612,-55.60293764,64.28635135,-3.67725941,-5.00972059
0.69394863,-1.34450070,0.86389602,2.99773107

>  <Name>


>  <RI>
0

>  <Rbt.Current_Directory>
/home/itssahil/PROJECTS/Mol_Feturizer/New_Systems/rnas/1qd3

>  <Rbt.Executable>
rbdock ($Id: //depot/dev/client3/rdock/2013.1/src/exe/rbdock.cxx#4 $)

>  <Rbt.Library>
libRbt.so (2013.1, Build901 2013/11/27)

>  <Rbt.Parameter_File>
/export/apps/rDock/src/rDock_2013.1_src/data/scripts/dock_solv.prm

>  <Rbt.Receptor>
prm/blind_docking_60.prm

>  <SCORE>
-61.2462

>  <SCORE.INTER>
-49.8083

>  <SCORE.INTER.CONST>
1

>  <SCORE.INTER.POLAR>
-6.90895

>  <SCORE.INTER.ROT>
9

>  <SCORE.INTER.SOLV>
30.8621

>  <SCORE.INTER.VDW>
-30.0631

>  <SCORE.INTER.norm>
-1.18591

>  <SCORE.INTRA>
-13.0777

>  <SCORE.INTRA.DIHEDRAL>
-3.62343

>  <SCORE.INTRA.DIHEDRAL.0>
40.6252

>  <SCORE.INTRA.POLAR>
-1.38773

>  <SCORE.INTRA.POLAR.0>
-1.20161

>  <SCORE.INTRA.REPUL>
-0.105855

>  <SCORE.INTRA.REPUL.0>
0.115675

>  <SCORE.INTRA.SOLV>
-3.24319

>  <SCORE.INTRA.SOLV.lig_0>
-154.895

>  <SCORE.INTRA.VDW>
-4.39683

>  <SCORE.INTRA.VDW.0>
2.2925

>  <SCORE.INTRA.norm>
-0.311374

>  <SCORE.RESTR>
1.63986

>  <SCORE.RESTR.CAVITY>
1.63986

>  <SCORE.RESTR.norm>
0.0390443

>  <SCORE.SYSTEM>
0

>  <SCORE.SYSTEM.CONST>
0

>  <SCORE.SYSTEM.DIHEDRAL>
0

>  <SCORE.SYSTEM.SOLV>
0

>  <SCORE.SYSTEM.norm>
0

>  <SCORE.heavy>
42

>  <SCORE.norm>
-1.45824

>  <RMSD>
14.854

$$$$

 OpenBabel11021811413D
libRbt.so/2013.1/901 2013/11/27
 42 45  0  0  0  0  0  0  0  0999 V2000
   -0.4244   -3.9740    5.5441 O   0  0  0  0  0  0  0  0  0  0  0  0
   -1.4660   -3.4171    4.7550 C   0  0  0  0  0  0  0  0  0  0  0  0
   -1.3472   -3.9159    3.3144 C   0  0  1  0  0  0  0  0  0  0  0  0
   -1.6739   -5.3193    3.2161 O   0  0  0  0  0  0  0  0  0  0  0  0
   -2.2832   -3.2055    2.3507 C   0  0  2  0  0  0  0  0  0  0  0  0
   -2.3102   -4.2028    1.2047 C   0  0  1  0  0  0  0  0  0  0  0  0
   -1.1128   -4.0928    0.4432 O   0  0  0  0  0  0  0  0  0  0  0  0
   -2.3364   -5.5541    1.9477 C   0  0  2  0  0  0  0  0  0  0  0  0
   -3.3554    1.2098    0.9581 C   0  0  2  0  0  0  0  0  0  0  0  0
   -2.3416    0.3139    1.4389 O   0  0  0  0  0  0  0  0  0  0  0  0
   -2.7778   -1.0571    1.4094 C   0  0  2  0  0  0  0  0  0  0  0  0
   -1.7596   -1.9232    1.9523 O   0  0  0  0  0  0  0  0  0  0  0  0
   -3.1321   -1.4833   -0.0256 C   0  0  2  0  0  0  0  0  0  0  0  0
   -1.9302   -1.7260   -0.8022 N   0  3  0  0  0  0  0  0  0  0  0  0
   -4.0410   -0.4780   -0.7427 C   0  0  1  0  0  0  0  0  0  0  0  0
   -5.3732   -0.6346   -0.2806 O   0  0  0  0  0  0  0  0  0  0  0  0
   -3.5914    0.9645   -0.5267 C   0  0  2  0  0  0  0  0  0  0  0  0
   -2.3987    1.2165   -1.2604 O   0  0  0  0  0  0  0  0  0  0  0  0
   -2.9557    2.6604    1.2124 C   0  0  0  0  0  0  0  0  0  0  0  0
   -3.9815    3.5619    0.7224 N   0  3  0  0  0  0  0  0  0  0  0  0
   -5.9807   -5.2945   -0.7517 C   0  0  1  0  0  0  0  0  0  0  0  0
   -6.0634   -6.2796    0.2995 O   0  0  0  0  0  0  0  0  0  0  0  0
   -5.5882   -7.5855   -0.1007 C   0  0  2  0  0  0  0  0  0  0  0  0
   -4.1679   -7.5826   -0.3878 O   0  0  0  0  0  0  0  0  0  0  0  0
   -6.3928   -8.1105   -1.2960 C   0  0  2  0  0  0  0  0  0  0  0  0
   -5.7753   -9.3154   -1.8181 N   0  3  0  0  0  0  0  0  0  0  0  0
   -6.4905   -7.0744   -2.4102 C   0  0  1  0  0  0  0  0  0  0  0  0
   -7.4299   -7.5055   -3.3828 O   0  0  0  0  0  0  0  0  0  0  0  0
   -6.8798   -5.6913   -1.9112 C   0  0  2  0  0  0  0  0  0  0  0  0
   -6.7701   -4.7395   -2.9594 O   0  0  0  0  0  0  0  0  0  0  0  0
   -6.4594   -3.9400   -0.2370 C   0  0  0  0  0  0  0  0  0  0  0  0
   -5.8316   -3.6213    1.0323 N   0  3  0  0  0  0  0  0  0  0  0  0
   -3.4598   -9.6018    3.2892 C   0  0  2  0  0  0  0  0  0  0  0  0
   -2.6967  -10.0653    2.0640 C   0  0  0  0  0  0  0  0  0  0  0  0
   -3.3465   -9.5330    0.8002 C   0  0  1  0  0  0  0  0  0  0  0  0
   -3.3639   -8.0048    0.7448 C   0  0  2  0  0  0  0  0  0  0  0  0
   -3.9399   -7.4102    2.0507 C   0  0  1  0  0  0  0  0  0  0  0  0
   -3.4970   -8.0811    3.3576 C   0  0  1  0  0  0  0  0  0  0  0  0
   -2.8226  -10.1280    4.4813 N   0  3  0  0  0  0  0  0  0  0  0  0
   -2.6532  -10.0770   -0.3512 N   0  3  0  0  0  0  0  0  0  0  0  0
   -3.7175   -5.9806    2.1272 O   0  0  0  0  0  0  0  0  0  0  0  0
   -4.3469   -7.6691    4.4230 O   0  0  0  0  0  0  0  0  0  0  0  0
  1  2  1  0  0  0  0
  3  2  1  1  0  0  0
  3  4  1  0  0  0  0
  3  5  1  0  0  0  0
  4  8  1  0  0  0  0
  5  6  1  0  0  0  0
  5 12  1  6  0  0  0
  6  7  1  6  0  0  0
  6  8  1  0  0  0  0
  8 41  1  1  0  0  0
  9 10  1  0  0  0  0
  9 17  1  0  0  0  0
  9 19  1  6  0  0  0
 10 11  1  0  0  0  0
 11 12  1  6  0  0  0
 11 13  1  0  0  0  0
 13 14  1  6  0  0  0
 13 15  1  0  0  0  0
 15 16  1  1  0  0  0
 15 17  1  0  0  0  0
 17 18  1  6  0  0  0
 19 20  1  0  0  0  0
 21 22  1  0  0  0  0
 21 29  1  0  0  0  0
 21 31  1  1  0  0  0
 22 23  1  0  0  0  0
 23 24  1  6  0  0  0
 23 25  1  0  0  0  0
 25 26  1  6  0  0  0
 25 27  1  0  0  0  0
 27 28  1  6  0  0  0
 27 29  1  0  0  0  0
 29 30  1  6  0  0  0
 31 32  1  0  0  0  0
 33 34  1  0  0  0  0
 33 38  1  0  0  0  0
 33 39  1  1  0  0  0
 34 35  1  0  0  0  0
 35 36  1  0  0  0  0
 35 40  1  6  0  0  0
 36 24  1  6  0  0  0
 36 37  1  0  0  0  0
 37 38  1  0  0  0  0
 37 41  1  1  0  0  0
 38 42  1  1  0  0  0
M  CHG  6  14   1  20   1  26   1  32   1  39   1  40   1
M  END
>  <CHROM.1>
-54.48099853,69.95775894,-161.17627313,72.05993949,-97.98203571,179.87369284
160.96271994,-62.78942078,66.15739355,-142.93100028,-31.54343705,48.37894330
95.59712073,81.81099899,166.99528466,-57.49840492,-59.35992801,-169.09244261
148.79516349,63.74351469,-53.36965774,75.74915132,-3.75935786,-4.60972453
0.84546118,-1.35113176,0.90250290,2.94032586

>  <Name>


>  <RI>
0

>  <Rbt.Current_Directory>
/home/itssahil/PROJECTS/Mol_Feturizer/New_Systems/rnas/1qd3

>  <Rbt.Executable>
rbdock ($Id: //depot/dev/client3/rdock/2013.1/src/exe/rbdock.cxx#4 $)

>  <Rbt.Library>
libRbt.so (2013.1, Build901 2013/11/27)

>  <Rbt.Parameter_File>
/export/apps/rDock/src/rDock_2013.1_src/data/scripts/dock_solv.prm

>  <Rbt.Receptor>
prm/blind_docking_20.prm

>  <SCORE>
-59.8906

>  <SCORE.INTER>
-47.3898

>  <SCORE.INTER.CONST>
1

>  <SCORE.INTER.POLAR>
-6.64292

>  <SCORE.INTER.ROT>
9

>  <SCORE.INTER.SOLV>
29.8424

>  <SCORE.INTER.VDW>
-28.9976

>  <SCORE.INTER.norm>
-1.12833

>  <SCORE.INTRA>
-12.5287

>  <SCORE.INTRA.DIHEDRAL>
-11.2472

>  <SCORE.INTRA.DIHEDRAL.0>
40.6252

>  <SCORE.INTRA.POLAR>
0.448905

>  <SCORE.INTRA.POLAR.0>
-1.20161

>  <SCORE.INTRA.REPUL>
-0.115675

>  <SCORE.INTRA.REPUL.0>
0.115675

>  <SCORE.INTRA.SOLV>
-1.78372

>  <SCORE.INTRA.SOLV.lig_0>
-154.895

>  <SCORE.INTRA.VDW>
-6.96115

>  <SCORE.INTRA.VDW.0>
2.2925

>  <SCORE.INTRA.norm>
-0.298303

>  <SCORE.RESTR>
0.0279759

>  <SCORE.RESTR.CAVITY>
0.0279759

>  <SCORE.RESTR.norm>
0.000666093

>  <SCORE.SYSTEM>
0

>  <SCORE.SYSTEM.CONST>
0

>  <SCORE.SYSTEM.DIHEDRAL>
0

>  <SCORE.SYSTEM.SOLV>
0

>  <SCORE.SYSTEM.norm>
0

>  <SCORE.heavy>
42

>  <SCORE.norm>
-1.42597

>  <RMSD>
14.855

$$$$

 OpenBabel11021811413D
libRbt.so/2013.1/901 2013/11/27
 42 45  0  0  0  0  0  0  0  0999 V2000
   -3.9072   -3.0677   -3.5259 O   0  0  0  0  0  0  0  0  0  0  0  0
   -5.1879   -3.5453   -3.1395 C   0  0  0  0  0  0  0  0  0  0  0  0
   -5.0482   -4.9056   -2.4550 C   0  0  1  0  0  0  0  0  0  0  0  0
   -4.1685   -4.8304   -1.3121 O   0  0  0  0  0  0  0  0  0  0  0  0
   -6.3640   -5.4539   -1.9282 C   0  0  2  0  0  0  0  0  0  0  0  0
   -5.8564   -6.4721   -0.9209 C   0  0  1  0  0  0  0  0  0  0  0  0
   -5.4078   -7.6391   -1.6012 O   0  0  0  0  0  0  0  0  0  0  0  0
   -4.6550   -5.7382   -0.2912 C   0  0  2  0  0  0  0  0  0  0  0  0
   -8.2067   -3.2894   -5.1100 C   0  0  2  0  0  0  0  0  0  0  0  0
   -7.3428   -4.2702   -4.5158 O   0  0  0  0  0  0  0  0  0  0  0  0
   -8.0502   -5.1255   -3.6000 C   0  0  2  0  0  0  0  0  0  0  0  0
   -7.1437   -6.0597   -2.9780 O   0  0  0  0  0  0  0  0  0  0  0  0
   -9.1801   -5.8785   -4.3231 C   0  0  2  0  0  0  0  0  0  0  0  0
   -8.6461   -6.9712   -5.1150 N   0  3  0  0  0  0  0  0  0  0  0  0
  -10.0520   -4.9627   -5.1902 C   0  0  1  0  0  0  0  0  0  0  0  0
  -10.9513   -4.2447   -4.3604 O   0  0  0  0  0  0  0  0  0  0  0  0
   -9.2207   -3.9813   -6.0121 C   0  0  2  0  0  0  0  0  0  0  0  0
   -8.5522   -4.6712   -7.0616 O   0  0  0  0  0  0  0  0  0  0  0  0
   -7.3950   -2.2616   -5.8933 C   0  0  0  0  0  0  0  0  0  0  0  0
   -8.2508   -1.1843   -6.3536 N   0  3  0  0  0  0  0  0  0  0  0  0
   -1.7900   -8.5536    2.9538 C   0  0  1  0  0  0  0  0  0  0  0  0
   -2.8333   -8.1443    2.0449 O   0  0  0  0  0  0  0  0  0  0  0  0
   -3.8652   -7.3522    2.6767 C   0  0  2  0  0  0  0  0  0  0  0  0
   -3.3626   -6.0744    3.1396 O   0  0  0  0  0  0  0  0  0  0  0  0
   -4.5231   -8.1345    3.8199 C   0  0  2  0  0  0  0  0  0  0  0  0
   -5.4020   -7.2617    4.5759 N   0  3  0  0  0  0  0  0  0  0  0  0
   -3.4867   -8.7388    4.7608 C   0  0  1  0  0  0  0  0  0  0  0  0
   -4.1209   -9.6399    5.6552 O   0  0  0  0  0  0  0  0  0  0  0  0
   -2.3624   -9.4589    4.0323 C   0  0  2  0  0  0  0  0  0  0  0  0
   -1.3415   -9.8319    4.9462 O   0  0  0  0  0  0  0  0  0  0  0  0
   -0.7237   -9.3454    2.2023 C   0  0  0  0  0  0  0  0  0  0  0  0
   -1.3350  -10.3265    1.3246 N   0  3  0  0  0  0  0  0  0  0  0  0
   -2.4097   -2.3525    1.3123 C   0  0  2  0  0  0  0  0  0  0  0  0
   -1.2856   -3.3451    1.5340 C   0  0  0  0  0  0  0  0  0  0  0  0
   -1.7051   -4.4090    2.5316 C   0  0  1  0  0  0  0  0  0  0  0  0
   -2.9101   -5.2215    2.0555 C   0  0  2  0  0  0  0  0  0  0  0  0
   -4.0594   -4.2922    1.6012 C   0  0  1  0  0  0  0  0  0  0  0  0
   -3.6543   -3.0558    0.7879 C   0  0  1  0  0  0  0  0  0  0  0  0
   -1.9819   -1.3447    0.3608 N   0  3  0  0  0  0  0  0  0  0  0  0
   -0.5757   -5.2792    2.7952 N   0  3  0  0  0  0  0  0  0  0  0  0
   -5.0934   -5.0283    0.9026 O   0  0  0  0  0  0  0  0  0  0  0  0
   -4.7398   -2.1360    0.7363 O   0  0  0  0  0  0  0  0  0  0  0  0
  1  2  1  0  0  0  0
  3  2  1  1  0  0  0
  3  4  1  0  0  0  0
  3  5  1  0  0  0  0
  4  8  1  0  0  0  0
  5  6  1  0  0  0  0
  5 12  1  6  0  0  0
  6  7  1  6  0  0  0
  6  8  1  0  0  0  0
  8 41  1  1  0  0  0
  9 10  1  0  0  0  0
  9 17  1  0  0  0  0
  9 19  1  6  0  0  0
 10 11  1  0  0  0  0
 11 12  1  6  0  0  0
 11 13  1  0  0  0  0
 13 14  1  6  0  0  0
 13 15  1  0  0  0  0
 15 16  1  1  0  0  0
 15 17  1  0  0  0  0
 17 18  1  6  0  0  0
 19 20  1  0  0  0  0
 21 22  1  0  0  0  0
 21 29  1  0  0  0  0
 21 31  1  6  0  0  0
 22 23  1  0  0  0  0
 23 24  1  1  0  0  0
 23 25  1  0  0  0  0
 25 26  1  1  0  0  0
 25 27  1  0  0  0  0
 27 28  1  1  0  0  0
 27 29  1  0  0  0  0
 29 30  1  1  0  0  0
 31 32  1  0  0  0  0
 33 34  1  0  0  0  0
 33 38  1  0  0  0  0
 33 39  1  6  0  0  0
 34 35  1  0  0  0  0
 35 36  1  0  0  0  0
 35 40  1  6  0  0  0
 36 24  1  1  0  0  0
 36 37  1  0  0  0  0
 37 38  1  0  0  0  0
 37 41  1  6  0  0  0
 38 42  1  1  0  0  0
M  CHG  6  14   1  20   1  26   1  32   1  39   1  40   1
M  END
>  <CHROM.1>
-178.63566947,57.22358204,-91.37663631,48.40120023,-63.24344974,-173.02198992
77.59220890,179.78301446,-62.47512413,-175.14334590,-151.81064037,-45.58818183
64.17376738,-145.12885191,-170.26923876,61.63272746,-64.13609045,99.17664969
-101.34250201,-66.42926842,-59.00942273,-62.10975307,-4.93376570,-5.57571643
-0.47419327,-2.40191827,0.77307978,2.63290636

>  <Name>


>  <RI>
0

>  <Rbt.Current_Directory>
/home/itssahil/PROJECTS/Mol_Feturizer/New_Systems/rnas/1qd3

>  <Rbt.Executable>
rbdock ($Id: //depot/dev/client3/rdock/2013.1/src/exe/rbdock.cxx#4 $)

>  <Rbt.Library>
libRbt.so (2013.1, Build901 2013/11/27)

>  <Rbt.Parameter_File>
/export/apps/rDock/src/rDock_2013.1_src/data/scripts/dock_solv.prm

>  <Rbt.Receptor>
prm/blind_docking_80.prm

>  <SCORE>
-62.8874

>  <SCORE.INTER>
-43.8298

>  <SCORE.INTER.CONST>
1

>  <SCORE.INTER.POLAR>
-6.08488

>  <SCORE.INTER.ROT>
9

>  <SCORE.INTER.SOLV>
29.3314

>  <SCORE.INTER.VDW>
-28.3141

>  <SCORE.INTER.norm>
-1.04357

>  <SCORE.INTRA>
-20.3636

>  <SCORE.INTRA.DIHEDRAL>
-20.3306

>  <SCORE.INTRA.DIHEDRAL.0>
40.6252

>  <SCORE.INTRA.POLAR>
1.14018

>  <SCORE.INTRA.POLAR.0>
-1.20161

>  <SCORE.INTRA.REPUL>
-0.115675

>  <SCORE.INTRA.REPUL.0>
0.115675

>  <SCORE.INTRA.SOLV>
-12.7299

>  <SCORE.INTRA.SOLV.lig_0>
-154.895

>  <SCORE.INTRA.VDW>
-7.1316

>  <SCORE.INTRA.VDW.0>
2.2925

>  <SCORE.INTRA.norm>
-0.484848

>  <SCORE.RESTR>
1.30609

>  <SCORE.RESTR.CAVITY>
1.30609

>  <SCORE.RESTR.norm>
0.0310973

>  <SCORE.SYSTEM>
0

>  <SCORE.SYSTEM.CONST>
0

>  <SCORE.SYSTEM.DIHEDRAL>
0

>  <SCORE.SYSTEM.SOLV>
0

>  <SCORE.SYSTEM.norm>
0

>  <SCORE.heavy>
42

>  <SCORE.norm>
-1.49732

>  <RMSD>
14.857

$$$$

 OpenBabel11021811413D
libRbt.so/2013.1/901 2013/11/27
 42 45  0  0  0  0  0  0  0  0999 V2000
   -8.0049   -1.9121   -1.9634 O   0  0  0  0  0  0  0  0  0  0  0  0
   -6.9435   -1.7334   -2.8904 C   0  0  0  0  0  0  0  0  0  0  0  0
   -5.9113   -2.8481   -2.7167 C   0  0  1  0  0  0  0  0  0  0  0  0
   -5.1283   -2.6566   -1.5184 O   0  0  0  0  0  0  0  0  0  0  0  0
   -6.5310   -4.2298   -2.5889 C   0  0  2  0  0  0  0  0  0  0  0  0
   -5.3820   -4.9906   -1.9486 C   0  0  1  0  0  0  0  0  0  0  0  0
   -4.4011   -5.2982   -2.9330 O   0  0  0  0  0  0  0  0  0  0  0  0
   -4.8190   -3.9557   -0.9532 C   0  0  2  0  0  0  0  0  0  0  0  0
   -7.1962   -8.1465   -2.5188 C   0  0  2  0  0  0  0  0  0  0  0  0
   -7.2117   -6.7115   -2.5608 O   0  0  0  0  0  0  0  0  0  0  0  0
   -6.9322   -6.2092   -3.8800 C   0  0  2  0  0  0  0  0  0  0  0  0
   -6.8978   -4.7669   -3.8749 O   0  0  0  0  0  0  0  0  0  0  0  0
   -7.9796   -6.7150   -4.8867 C   0  0  2  0  0  0  0  0  0  0  0  0
   -9.2253   -5.9838   -4.7446 N   0  3  0  0  0  0  0  0  0  0  0  0
   -8.2283   -8.2245   -4.7859 C   0  0  1  0  0  0  0  0  0  0  0  0
   -7.1658   -8.9201   -5.4185 O   0  0  0  0  0  0  0  0  0  0  0  0
   -8.3569   -8.6942   -3.3394 C   0  0  2  0  0  0  0  0  0  0  0  0
   -9.5943   -8.2521   -2.7935 O   0  0  0  0  0  0  0  0  0  0  0  0
   -7.2678   -8.6432   -1.0776 C   0  0  0  0  0  0  0  0  0  0  0  0
   -6.2038   -8.0552   -0.2857 N   0  3  0  0  0  0  0  0  0  0  0  0
   -2.5626   -7.1708    3.4075 C   0  0  1  0  0  0  0  0  0  0  0  0
   -3.3717   -6.9923    2.2262 O   0  0  0  0  0  0  0  0  0  0  0  0
   -4.7126   -6.5335    2.5143 C   0  0  2  0  0  0  0  0  0  0  0  0
   -4.7208   -5.1990    3.0788 O   0  0  0  0  0  0  0  0  0  0  0  0
   -5.4381   -7.5260    3.4309 C   0  0  2  0  0  0  0  0  0  0  0  0
   -6.6950   -6.9572    3.8808 N   0  3  0  0  0  0  0  0  0  0  0  0
   -4.5928   -7.8962    4.6446 C   0  0  1  0  0  0  0  0  0  0  0  0
   -5.1939   -8.9823    5.3325 O   0  0  0  0  0  0  0  0  0  0  0  0
   -3.1583   -8.2559    4.2896 C   0  0  2  0  0  0  0  0  0  0  0  0
   -2.3808   -8.4055    5.4684 O   0  0  0  0  0  0  0  0  0  0  0  0
   -1.1559   -7.6133    3.0151 C   0  0  0  0  0  0  0  0  0  0  0  0
   -0.7027   -6.8994    1.8354 N   0  3  0  0  0  0  0  0  0  0  0  0
   -3.4174   -1.3214    1.9103 C   0  0  2  0  0  0  0  0  0  0  0  0
   -2.4070   -2.2466    2.5594 C   0  0  0  0  0  0  0  0  0  0  0  0
   -3.1105   -3.3924    3.2629 C   0  0  1  0  0  0  0  0  0  0  0  0
   -3.9331   -4.2560    2.3056 C   0  0  2  0  0  0  0  0  0  0  0  0
   -4.8641   -3.3824    1.4334 C   0  0  1  0  0  0  0  0  0  0  0  0
   -4.2650   -2.0763    0.8952 C   0  0  1  0  0  0  0  0  0  0  0  0
   -2.7206   -0.2336    1.2508 N   0  3  0  0  0  0  0  0  0  0  0  0
   -2.1233   -4.1976    3.9552 N   0  3  0  0  0  0  0  0  0  0  0  0
   -5.4458   -4.1453    0.3478 O   0  0  0  0  0  0  0  0  0  0  0  0
   -5.3051   -1.2309    0.4149 O   0  0  0  0  0  0  0  0  0  0  0  0
  1  2  1  0  0  0  0
  3  2  1  1  0  0  0
  3  4  1  0  0  0  0
  3  5  1  0  0  0  0
  4  8  1  0  0  0  0
  5  6  1  0  0  0  0
  5 12  1  6  0  0  0
  6  7  1  6  0  0  0
  6  8  1  0  0  0  0
  8 41  1  1  0  0  0
  9 10  1  0  0  0  0
  9 17  1  0  0  0  0
  9 19  1  1  0  0  0
 10 11  1  0  0  0  0
 11 12  1  1  0  0  0
 11 13  1  0  0  0  0
 13 14  1  1  0  0  0
 13 15  1  0  0  0  0
 15 16  1  1  0  0  0
 15 17  1  0  0  0  0
 17 18  1  1  0  0  0
 19 20  1  0  0  0  0
 21 22  1  0  0  0  0
 21 29  1  0  0  0  0
 21 31  1  6  0  0  0
 22 23  1  0  0  0  0
 23 24  1  1  0  0  0
 23 25  1  0  0  0  0
 25 26  1  1  0  0  0
 25 27  1  0  0  0  0
 27 28  1  6  0  0  0
 27 29  1  0  0  0  0
 29 30  1  1  0  0  0
 31 32  1  0  0  0  0
 33 34  1  0  0  0  0
 33 38  1  0  0  0  0
 33 39  1  6  0  0  0
 34 35  1  0  0  0  0
 35 36  1  0  0  0  0
 35 40  1  6  0  0  0
 36 24  1  1  0  0  0
 36 37  1  0  0  0  0
 37 38  1  0  0  0  0
 37 41  1  6  0  0  0
 38 42  1  1  0  0  0
M  CHG  6  14   1  20   1  26   1  32   1  39   1  40   1
M  END
>  <CHROM.1>
63.62308282,-73.91501133,154.84334623,63.41421349,-72.38816473,-54.89329515
26.85386077,165.08350947,-61.06440377,45.35615009,-61.16151314,40.07684778
50.07027570,-136.74142528,4.13941835,69.43218228,-176.07872941,-100.18839462
-72.97640140,-179.40617312,-101.05930030,71.13591900,-5.28244111,-5.52233632
0.09487175,-2.85158934,0.99320544,2.73807169

>  <Name>


>  <RI>
0

>  <Rbt.Current_Directory>
/home/itssahil/PROJECTS/Mol_Feturizer/New_Systems/rnas/1qd3

>  <Rbt.Executable>
rbdock ($Id: //depot/dev/client3/rdock/2013.1/src/exe/rbdock.cxx#4 $)

>  <Rbt.Library>
libRbt.so (2013.1, Build901 2013/11/27)

>  <Rbt.Parameter_File>
/export/apps/rDock/src/rDock_2013.1_src/data/scripts/dock_solv.prm

>  <Rbt.Receptor>
prm/blind_docking_100.prm

>  <SCORE>
-31.8138

>  <SCORE.INTER>
-28.1455

>  <SCORE.INTER.CONST>
1

>  <SCORE.INTER.POLAR>
-3.65073

>  <SCORE.INTER.ROT>
9

>  <SCORE.INTER.SOLV>
34.3363

>  <SCORE.INTER.VDW>
-27.64

>  <SCORE.INTER.norm>
-0.670131

>  <SCORE.INTRA>
-3.83489

>  <SCORE.INTRA.DIHEDRAL>
-7.9375

>  <SCORE.INTRA.DIHEDRAL.0>
40.6252

>  <SCORE.INTRA.POLAR>
1.12455

>  <SCORE.INTRA.POLAR.0>
-1.20161

>  <SCORE.INTRA.REPUL>
-0.0862129

>  <SCORE.INTRA.REPUL.0>
0.115675

>  <SCORE.INTRA.SOLV>
-3.379

>  <SCORE.INTRA.SOLV.lig_0>
-154.895

>  <SCORE.INTRA.VDW>
-1.56905

>  <SCORE.INTRA.VDW.0>
2.2925

>  <SCORE.INTRA.norm>
-0.0913068

>  <SCORE.RESTR>
0.16663

>  <SCORE.RESTR.CAVITY>
0.16663

>  <SCORE.RESTR.norm>
0.00396737

>  <SCORE.SYSTEM>
0

>  <SCORE.SYSTEM.CONST>
0

>  <SCORE.SYSTEM.DIHEDRAL>
0

>  <SCORE.SYSTEM.SOLV>
0

>  <SCORE.SYSTEM.norm>
0

>  <SCORE.heavy>
42

>  <SCORE.norm>
-0.75747

>  <RMSD>
14.858

$$$$

 OpenBabel11021811413D
libRbt.so/2013.1/901 2013/11/27
 42 45  0  0  0  0  0  0  0  0999 V2000
   -0.3569   -3.6585    5.7032 O   0  0  0  0  0  0  0  0  0  0  0  0
   -1.4800   -3.2035    4.9621 C   0  0  0  0  0  0  0  0  0  0  0  0
   -1.5169   -3.8971    3.5998 C   0  0  1  0  0  0  0  0  0  0  0  0
   -1.6517   -5.3279    3.7425 O   0  0  0  0  0  0  0  0  0  0  0  0
   -2.6827   -3.4571    2.7300 C   0  0  2  0  0  0  0  0  0  0  0  0
   -2.7453   -4.6126    1.7452 C   0  0  1  0  0  0  0  0  0  0  0  0
   -1.7088   -4.4777    0.7791 O   0  0  0  0  0  0  0  0  0  0  0  0
   -2.4631   -5.8291    2.6502 C   0  0  2  0  0  0  0  0  0  0  0  0
   -4.7566    0.1295    0.5162 C   0  0  2  0  0  0  0  0  0  0  0  0
   -3.6401   -0.3311    1.2925 O   0  0  0  0  0  0  0  0  0  0  0  0
   -3.5090   -1.7635    1.2483 C   0  0  2  0  0  0  0  0  0  0  0  0
   -2.4154   -2.1970    2.0836 O   0  0  0  0  0  0  0  0  0  0  0  0
   -3.3000   -2.2452   -0.1977 C   0  0  2  0  0  0  0  0  0  0  0  0
   -1.9396   -1.9896   -0.6340 N   0  3  0  0  0  0  0  0  0  0  0  0
   -4.3037   -1.6359   -1.1837 C   0  0  1  0  0  0  0  0  0  0  0  0
   -5.5510   -2.3000   -1.0566 O   0  0  0  0  0  0  0  0  0  0  0  0
   -4.4972   -0.1384   -0.9608 C   0  0  2  0  0  0  0  0  0  0  0  0
   -3.3407    0.5699   -1.3913 O   0  0  0  0  0  0  0  0  0  0  0  0
   -5.0073    1.6144    0.7632 C   0  0  0  0  0  0  0  0  0  0  0  0
   -5.5218    1.8253    2.1032 N   0  3  0  0  0  0  0  0  0  0  0  0
   -3.2256   -8.7038   -0.1554 C   0  0  1  0  0  0  0  0  0  0  0  0
   -3.9773   -8.7521    1.0753 O   0  0  0  0  0  0  0  0  0  0  0  0
   -3.3137   -9.4962    2.1229 C   0  0  2  0  0  0  0  0  0  0  0  0
   -2.0884   -8.8535    2.5535 O   0  0  0  0  0  0  0  0  0  0  0  0
   -3.0536  -10.9406    1.6783 C   0  0  2  0  0  0  0  0  0  0  0  0
   -2.2064  -11.6121    2.6463 N   0  3  0  0  0  0  0  0  0  0  0  0
   -2.3907  -10.9989    0.3065 C   0  0  1  0  0  0  0  0  0  0  0  0
   -2.3849  -12.3375   -0.1651 O   0  0  0  0  0  0  0  0  0  0  0  0
   -3.0629  -10.1042   -0.7235 C   0  0  2  0  0  0  0  0  0  0  0  0
   -2.2927  -10.0589   -1.9156 O   0  0  0  0  0  0  0  0  0  0  0  0
   -3.9724   -7.8679   -1.1910 C   0  0  0  0  0  0  0  0  0  0  0  0
   -4.0344   -6.4769   -0.7810 N   0  3  0  0  0  0  0  0  0  0  0  0
   -3.7643   -8.2890    6.4228 C   0  0  2  0  0  0  0  0  0  0  0  0
   -2.3125   -8.7154    6.3311 C   0  0  0  0  0  0  0  0  0  0  0  0
   -2.0026   -9.2522    4.9460 C   0  0  1  0  0  0  0  0  0  0  0  0
   -2.2158   -8.2091    3.8481 C   0  0  2  0  0  0  0  0  0  0  0  0
   -3.6089   -7.5501    3.9738 C   0  0  1  0  0  0  0  0  0  0  0  0
   -4.0748   -7.2088    5.3954 C   0  0  1  0  0  0  0  0  0  0  0  0
   -4.0356   -7.7860    7.7560 N   0  3  0  0  0  0  0  0  0  0  0  0
   -0.6383   -9.7426    4.9250 N   0  3  0  0  0  0  0  0  0  0  0  0
   -3.7245   -6.3846    3.1210 O   0  0  0  0  0  0  0  0  0  0  0  0
   -5.4723   -6.9367    5.3922 O   0  0  0  0  0  0  0  0  0  0  0  0
  1  2  1  0  0  0  0
  3  2  1  1  0  0  0
  3  4  1  0  0  0  0
  3  5  1  0  0  0  0
  4  8  1  0  0  0  0
  5  6  1  0  0  0  0
  5 12  1  6  0  0  0
  6  7  1  6  0  0  0
  6  8  1  0  0  0  0
  8 41  1  1  0  0  0
  9 10  1  0  0  0  0
  9 17  1  0  0  0  0
  9 19  1  6  0  0  0
 10 11  1  0  0  0  0
 11 12  1  1  0  0  0
 11 13  1  0  0  0  0
 13 14  1  6  0  0  0
 13 15  1  0  0  0  0
 15 16  1  1  0  0  0
 15 17  1  0  0  0  0
 17 18  1  1  0  0  0
 19 20  1  0  0  0  0
 21 22  1  0  0  0  0
 21 29  1  0  0  0  0
 21 31  1  6  0  0  0
 22 23  1  0  0  0  0
 23 24  1  6  0  0  0
 23 25  1  0  0  0  0
 25 26  1  1  0  0  0
 25 27  1  0  0  0  0
 27 28  1  6  0  0  0
 27 29  1  0  0  0  0
 29 30  1  6  0  0  0
 31 32  1  0  0  0  0
 33 34  1  0  0  0  0
 33 38  1  0  0  0  0
 33 39  1  1  0  0  0
 34 35  1  0  0  0  0
 35 36  1  0  0  0  0
 35 40  1  1  0  0  0
 36 24  1  6  0  0  0
 36 37  1  0  0  0  0
 37 38  1  0  0  0  0
 37 41  1  6  0  0  0
 38 42  1  6  0  0  0
M  CHG  6  14   1  20   1  26   1  32   1  39   1  40   1
M  END
>  <CHROM.1>
-175.17262082,61.50246931,179.77878319,172.32827716,-63.85037279,-69.99436878
144.62573856,84.19298941,76.77344698,-172.36367848,175.83381479,66.36410667
105.74819599,83.58651218,59.03527108,-168.40990155,-171.51925221,-150.00845064
20.72119951,-161.90535801,-17.68211787,-137.97968451,-3.08715544,-5.68256669
2.04196817,-2.60720566,1.42009836,-2.34540542

>  <Name>


>  <RI>
0

>  <Rbt.Current_Directory>
/home/itssahil/PROJECTS/Mol_Feturizer/New_Systems/rnas/1qd3

>  <Rbt.Executable>
rbdock ($Id: //depot/dev/client3/rdock/2013.1/src/exe/rbdock.cxx#4 $)

>  <Rbt.Library>
libRbt.so (2013.1, Build901 2013/11/27)

>  <Rbt.Parameter_File>
/export/apps/rDock/src/rDock_2013.1_src/data/scripts/dock_solv.prm

>  <Rbt.Receptor>
prm/blind_docking_80.prm

>  <SCORE>
-52.0101

>  <SCORE.INTER>
-44.3054

>  <SCORE.INTER.CONST>
1

>  <SCORE.INTER.POLAR>
-6.27491

>  <SCORE.INTER.ROT>
9

>  <SCORE.INTER.SOLV>
35.7252

>  <SCORE.INTER.VDW>
-30.1289

>  <SCORE.INTER.norm>
-1.05489

>  <SCORE.INTRA>
-10.9665

>  <SCORE.INTRA.DIHEDRAL>
-6.82152

>  <SCORE.INTRA.DIHEDRAL.0>
40.6252

>  <SCORE.INTRA.POLAR>
0.431817

>  <SCORE.INTRA.POLAR.0>
-1.20161

>  <SCORE.INTRA.REPUL>
-0.111548

>  <SCORE.INTRA.REPUL.0>
0.115675

>  <SCORE.INTRA.SOLV>
-6.29788

>  <SCORE.INTRA.SOLV.lig_0>
-154.895

>  <SCORE.INTRA.VDW>
-5.31723

>  <SCORE.INTRA.VDW.0>
2.2925

>  <SCORE.INTRA.norm>
-0.261107

>  <SCORE.RESTR>
3.26174

>  <SCORE.RESTR.CAVITY>
3.26174

>  <SCORE.RESTR.norm>
0.0776604

>  <SCORE.SYSTEM>
0

>  <SCORE.SYSTEM.CONST>
0

>  <SCORE.SYSTEM.DIHEDRAL>
0

>  <SCORE.SYSTEM.SOLV>
0

>  <SCORE.SYSTEM.norm>
0

>  <SCORE.heavy>
42

>  <SCORE.norm>
-1.23834

>  <RMSD>
14.874

$$$$

 OpenBabel11021811413D
libRbt.so/2013.1/901 2013/11/27
 42 45  0  0  0  0  0  0  0  0999 V2000
   -0.6422   -3.9365    5.3768 O   0  0  0  0  0  0  0  0  0  0  0  0
   -1.5185   -3.1650    4.5677 C   0  0  0  0  0  0  0  0  0  0  0  0
   -1.4187   -3.6245    3.1126 C   0  0  1  0  0  0  0  0  0  0  0  0
   -1.7259   -5.0297    2.9835 O   0  0  0  0  0  0  0  0  0  0  0  0
   -2.3827   -2.9039    2.1848 C   0  0  2  0  0  0  0  0  0  0  0  0
   -2.4157   -3.8716    1.0137 C   0  0  1  0  0  0  0  0  0  0  0  0
   -1.2342   -3.7234    0.2340 O   0  0  0  0  0  0  0  0  0  0  0  0
   -2.4080   -5.2419    1.7215 C   0  0  2  0  0  0  0  0  0  0  0  0
   -3.4541    1.4132    0.4733 C   0  0  2  0  0  0  0  0  0  0  0  0
   -2.4536    0.5710    1.0659 O   0  0  0  0  0  0  0  0  0  0  0  0
   -2.8891   -0.7974    1.1590 C   0  0  2  0  0  0  0  0  0  0  0  0
   -1.8858   -1.6039    1.8107 O   0  0  0  0  0  0  0  0  0  0  0  0
   -3.2054   -1.3626   -0.2363 C   0  0  2  0  0  0  0  0  0  0  0  0
   -1.9834   -1.6772   -0.9534 N   0  3  0  0  0  0  0  0  0  0  0  0
   -4.0947   -0.4343   -1.0719 C   0  0  1  0  0  0  0  0  0  0  0  0
   -5.4387   -0.5482   -0.6320 O   0  0  0  0  0  0  0  0  0  0  0  0
   -3.6508    1.0234   -0.9862 C   0  0  2  0  0  0  0  0  0  0  0  0
   -2.4390    1.2053   -1.7093 O   0  0  0  0  0  0  0  0  0  0  0  0
   -3.0610    2.8827    0.5949 C   0  0  0  0  0  0  0  0  0  0  0  0
   -3.5092    3.4236    1.8644 N   0  3  0  0  0  0  0  0  0  0  0  0
   -6.1772   -5.4047   -1.0291 C   0  0  1  0  0  0  0  0  0  0  0  0
   -6.1702   -6.1702    0.1940 O   0  0  0  0  0  0  0  0  0  0  0  0
   -5.7109   -7.5299    0.0161 C   0  0  2  0  0  0  0  0  0  0  0  0
   -4.3159   -7.5859   -0.3721 O   0  0  0  0  0  0  0  0  0  0  0  0
   -6.5957   -8.2715   -0.9932 C   0  0  2  0  0  0  0  0  0  0  0  0
   -6.0047   -9.5558   -1.3204 N   0  3  0  0  0  0  0  0  0  0  0  0
   -6.7878   -7.4674   -2.2743 C   0  0  1  0  0  0  0  0  0  0  0  0
   -7.7917   -8.0740   -3.0733 O   0  0  0  0  0  0  0  0  0  0  0  0
   -7.1551   -6.0134   -2.0208 C   0  0  2  0  0  0  0  0  0  0  0  0
   -7.1345   -5.2800   -3.2366 O   0  0  0  0  0  0  0  0  0  0  0  0
   -6.6320   -3.9754   -0.7481 C   0  0  0  0  0  0  0  0  0  0  0  0
   -5.7029   -3.3061    0.1437 N   0  3  0  0  0  0  0  0  0  0  0  0
   -3.3136   -9.1495    3.4555 C   0  0  2  0  0  0  0  0  0  0  0  0
   -2.6073   -9.7253    2.2440 C   0  0  0  0  0  0  0  0  0  0  0  0
   -3.3510   -9.3613    0.9723 C   0  0  1  0  0  0  0  0  0  0  0  0
   -3.4304   -7.8507    0.7475 C   0  0  2  0  0  0  0  0  0  0  0  0
   -3.9503   -7.1295    2.0125 C   0  0  1  0  0  0  0  0  0  0  0  0
   -3.4052   -7.6328    3.3556 C   0  0  1  0  0  0  0  0  0  0  0  0
   -2.5871   -9.5160    4.6562 N   0  3  0  0  0  0  0  0  0  0  0  0
   -2.7069  -10.0109   -0.1526 N   0  3  0  0  0  0  0  0  0  0  0  0
   -3.7790   -5.6943    1.9144 O   0  0  0  0  0  0  0  0  0  0  0  0
   -4.2056   -7.1290    4.4199 O   0  0  0  0  0  0  0  0  0  0  0  0
  1  2  1  0  0  0  0
  3  2  1  1  0  0  0
  3  4  1  0  0  0  0
  3  5  1  0  0  0  0
  4  8  1  0  0  0  0
  5  6  1  0  0  0  0
  5 12  1  6  0  0  0
  6  7  1  6  0  0  0
  6  8  1  0  0  0  0
  8 41  1  1  0  0  0
  9 10  1  0  0  0  0
  9 17  1  0  0  0  0
  9 19  1  6  0  0  0
 10 11  1  0  0  0  0
 11 12  1  6  0  0  0
 11 13  1  0  0  0  0
 13 14  1  6  0  0  0
 13 15  1  0  0  0  0
 15 16  1  1  0  0  0
 15 17  1  0  0  0  0
 17 18  1  6  0  0  0
 19 20  1  0  0  0  0
 21 22  1  0  0  0  0
 21 29  1  0  0  0  0
 21 31  1  1  0  0  0
 22 23  1  0  0  0  0
 23 24  1  6  0  0  0
 23 25  1  0  0  0  0
 25 26  1  6  0  0  0
 25 27  1  0  0  0  0
 27 28  1  6  0  0  0
 27 29  1  0  0  0  0
 29 30  1  6  0  0  0
 31 32  1  0  0  0  0
 33 34  1  0  0  0  0
 33 38  1  0  0  0  0
 33 39  1  1  0  0  0
 34 35  1  0  0  0  0
 35 36  1  0  0  0  0
 35 40  1  6  0  0  0
 36 24  1  6  0  0  0
 36 37  1  0  0  0  0
 37 38  1  0  0  0  0
 37 41  1  6  0  0  0
 38 42  1  1  0  0  0
M  CHG  6  14   1  20   1  26   1  32   1  39   1  40   1
M  END
>  <CHROM.1>
-65.27758246,57.62677436,-168.26589086,179.95166731,-88.76987810,-86.71378114
167.50659321,-56.28839540,78.29404203,-60.96514332,-100.37716293,62.87896568
98.40926366,84.91282402,47.78806180,68.47690189,-61.00832379,-60.18303614
45.36829291,172.97201984,-58.68266322,-179.28580027,-3.83172875,-4.48733358
0.74682436,-1.28863210,0.88394422,2.90776337

>  <Name>


>  <RI>
0

>  <Rbt.Current_Directory>
/home/itssahil/PROJECTS/Mol_Feturizer/New_Systems/rnas/1qd3

>  <Rbt.Executable>
rbdock ($Id: //depot/dev/client3/rdock/2013.1/src/exe/rbdock.cxx#4 $)

>  <Rbt.Library>
libRbt.so (2013.1, Build901 2013/11/27)

>  <Rbt.Parameter_File>
/export/apps/rDock/src/rDock_2013.1_src/data/scripts/dock_solv.prm

>  <Rbt.Receptor>
prm/blind_docking_80.prm

>  <SCORE>
-60.9983

>  <SCORE.INTER>
-45.1914

>  <SCORE.INTER.CONST>
1

>  <SCORE.INTER.POLAR>
-6.12069

>  <SCORE.INTER.ROT>
9

>  <SCORE.INTER.SOLV>
31.1226

>  <SCORE.INTER.VDW>
-29.6995

>  <SCORE.INTER.norm>
-1.07599

>  <SCORE.INTRA>
-16.5029

>  <SCORE.INTRA.DIHEDRAL>
-18.6254

>  <SCORE.INTRA.DIHEDRAL.0>
40.6252

>  <SCORE.INTRA.POLAR>
-0.103934

>  <SCORE.INTRA.POLAR.0>
-1.20161

>  <SCORE.INTRA.REPUL>
-0.101495

>  <SCORE.INTRA.REPUL.0>
0.115675

>  <SCORE.INTRA.SOLV>
-0.120286

>  <SCORE.INTRA.SOLV.lig_0>
-154.895

>  <SCORE.INTRA.VDW>
-6.26917

>  <SCORE.INTRA.VDW.0>
2.2925

>  <SCORE.INTRA.norm>
-0.392926

>  <SCORE.RESTR>
0.696019

>  <SCORE.RESTR.CAVITY>
0.696019

>  <SCORE.RESTR.norm>
0.0165719

>  <SCORE.SYSTEM>
0

>  <SCORE.SYSTEM.CONST>
0

>  <SCORE.SYSTEM.DIHEDRAL>
0

>  <SCORE.SYSTEM.SOLV>
0

>  <SCORE.SYSTEM.norm>
0

>  <SCORE.heavy>
42

>  <SCORE.norm>
-1.45234

>  <RMSD>
14.883

$$$$

 OpenBabel11021811413D
libRbt.so/2013.1/901 2013/11/27
 42 45  0  0  0  0  0  0  0  0999 V2000
   -1.9405   -2.2558    3.7367 O   0  0  0  0  0  0  0  0  0  0  0  0
   -1.9205   -3.6760    3.7187 C   0  0  0  0  0  0  0  0  0  0  0  0
   -3.2859   -4.2074    3.2807 C   0  0  1  0  0  0  0  0  0  0  0  0
   -3.7374   -3.5610    2.0708 O   0  0  0  0  0  0  0  0  0  0  0  0
   -3.2849   -5.6966    2.9778 C   0  0  2  0  0  0  0  0  0  0  0  0
   -4.5410   -5.8077    2.1300 C   0  0  1  0  0  0  0  0  0  0  0  0
   -5.6912   -5.7715    2.9675 O   0  0  0  0  0  0  0  0  0  0  0  0
   -4.4737   -4.5251    1.2763 C   0  0  2  0  0  0  0  0  0  0  0  0
   -2.5735   -9.5011    2.2824 C   0  0  2  0  0  0  0  0  0  0  0  0
   -2.8078   -8.1115    2.5572 O   0  0  0  0  0  0  0  0  0  0  0  0
   -3.0753   -7.8770    3.9516 C   0  0  2  0  0  0  0  0  0  0  0  0
   -3.3633   -6.4824    4.1834 O   0  0  0  0  0  0  0  0  0  0  0  0
   -1.8851   -8.3274    4.8159 C   0  0  2  0  0  0  0  0  0  0  0  0
   -0.8012   -7.3652    4.7412 N   0  3  0  0  0  0  0  0  0  0  0  0
   -1.3826   -9.7314    4.4595 C   0  0  1  0  0  0  0  0  0  0  0  0
   -2.2575  -10.7000    5.0156 O   0  0  0  0  0  0  0  0  0  0  0  0
   -1.2782   -9.9429    2.9516 C   0  0  2  0  0  0  0  0  0  0  0  0
   -0.1808   -9.2011    2.4320 O   0  0  0  0  0  0  0  0  0  0  0  0
   -2.5200   -9.7502    0.7777 C   0  0  0  0  0  0  0  0  0  0  0  0
   -3.5937  -10.6380    0.3727 N   0  3  0  0  0  0  0  0  0  0  0  0
   -7.4258   -3.9755   -4.6343 C   0  0  1  0  0  0  0  0  0  0  0  0
   -7.7074   -3.6184   -3.2649 O   0  0  0  0  0  0  0  0  0  0  0  0
   -7.0445   -4.4706   -2.3028 C   0  0  2  0  0  0  0  0  0  0  0  0
   -5.6034   -4.3274   -2.3520 O   0  0  0  0  0  0  0  0  0  0  0  0
   -7.4617   -5.9333   -2.4986 C   0  0  2  0  0  0  0  0  0  0  0  0
   -6.6375   -6.7981   -1.6749 N   0  3  0  0  0  0  0  0  0  0  0  0
   -7.3407   -6.3652   -3.9558 C   0  0  1  0  0  0  0  0  0  0  0  0
   -7.9537   -7.6332   -4.1309 O   0  0  0  0  0  0  0  0  0  0  0  0
   -7.9532   -5.3701   -4.9295 C   0  0  2  0  0  0  0  0  0  0  0  0
   -7.6438   -5.7340   -6.2668 O   0  0  0  0  0  0  0  0  0  0  0  0
   -8.1260   -3.0055   -5.5816 C   0  0  0  0  0  0  0  0  0  0  0  0
   -9.5476   -2.9434   -5.2954 N   0  3  0  0  0  0  0  0  0  0  0  0
   -2.9179   -1.2784   -1.0906 C   0  0  2  0  0  0  0  0  0  0  0  0
   -4.3514   -0.8858   -1.3888 C   0  0  0  0  0  0  0  0  0  0  0  0
   -5.0437   -1.9712   -2.1921 C   0  0  1  0  0  0  0  0  0  0  0  0
   -5.1081   -3.3056   -1.4476 C   0  0  2  0  0  0  0  0  0  0  0  0
   -3.7149   -3.7074   -0.9106 C   0  0  1  0  0  0  0  0  0  0  0  0
   -2.8684   -2.5809   -0.3033 C   0  0  1  0  0  0  0  0  0  0  0  0
   -2.2780   -0.2234   -0.3281 N   0  3  0  0  0  0  0  0  0  0  0  0
   -6.3756   -1.5196   -2.5448 N   0  3  0  0  0  0  0  0  0  0  0  0
   -3.8026   -4.8169    0.0169 O   0  0  0  0  0  0  0  0  0  0  0  0
   -1.5176   -3.0109   -0.1710 O   0  0  0  0  0  0  0  0  0  0  0  0
  1  2  1  0  0  0  0
  3  2  1  6  0  0  0
  3  4  1  0  0  0  0
  3  5  1  0  0  0  0
  4  8  1  0  0  0  0
  5  6  1  0  0  0  0
  5 12  1  1  0  0  0
  6  7  1  1  0  0  0
  6  8  1  0  0  0  0
  8 41  1  6  0  0  0
  9 10  1  0  0  0  0
  9 17  1  0  0  0  0
  9 19  1  6  0  0  0
 10 11  1  0  0  0  0
 11 12  1  6  0  0  0
 11 13  1  0  0  0  0
 13 14  1  6  0  0  0
 13 15  1  0  0  0  0
 15 16  1  6  0  0  0
 15 17  1  0  0  0  0
 17 18  1  6  0  0  0
 19 20  1  0  0  0  0
 21 22  1  0  0  0  0
 21 29  1  0  0  0  0
 21 31  1  6  0  0  0
 22 23  1  0  0  0  0
 23 24  1  6  0  0  0
 23 25  1  0  0  0  0
 25 26  1  1  0  0  0
 25 27  1  0  0  0  0
 27 28  1  1  0  0  0
 27 29  1  0  0  0  0
 29 30  1  6  0  0  0
 31 32  1  0  0  0  0
 33 34  1  0  0  0  0
 33 38  1  0  0  0  0
 33 39  1  1  0  0  0
 34 35  1  0  0  0  0
 35 36  1  0  0  0  0
 35 40  1  1  0  0  0
 36 24  1  6  0  0  0
 36 37  1  0  0  0  0
 37 38  1  0  0  0  0
 37 41  1  1  0  0  0
 38 42  1  6  0  0  0
M  CHG  6  14   1  20   1  26   1  32   1  39   1  40   1
M  END
>  <CHROM.1>
-165.25212979,49.92101326,-167.45876587,-59.29367526,-65.43301513,-117.26991998
-1.03649015,176.85493450,59.03869346,-173.24814100,162.24520422,-54.51089367
90.71275103,-91.21970838,82.91703345,-173.98022116,-166.95759767,76.01485377
-54.68235359,88.05970368,-67.33334232,177.07162361,-4.36025912,-5.40711279
0.07738270,-0.57720373,-0.91275366,-0.18279791

>  <Name>


>  <RI>
0

>  <Rbt.Current_Directory>
/home/itssahil/PROJECTS/Mol_Feturizer/New_Systems/rnas/1qd3

>  <Rbt.Executable>
rbdock ($Id: //depot/dev/client3/rdock/2013.1/src/exe/rbdock.cxx#4 $)

>  <Rbt.Library>
libRbt.so (2013.1, Build901 2013/11/27)

>  <Rbt.Parameter_File>
/export/apps/rDock/src/rDock_2013.1_src/data/scripts/dock_solv.prm

>  <Rbt.Receptor>
prm/blind_docking_80.prm

>  <SCORE>
-53.9702

>  <SCORE.INTER>
-37.8109

>  <SCORE.INTER.CONST>
1

>  <SCORE.INTER.POLAR>
-5.14473

>  <SCORE.INTER.ROT>
9

>  <SCORE.INTER.SOLV>
21.5867

>  <SCORE.INTER.VDW>
-24.8538

>  <SCORE.INTER.norm>
-0.90026

>  <SCORE.INTRA>
-17.2331

>  <SCORE.INTRA.DIHEDRAL>
-11.9156

>  <SCORE.INTRA.DIHEDRAL.0>
40.6252

>  <SCORE.INTRA.POLAR>
-0.00673478

>  <SCORE.INTRA.POLAR.0>
-1.20161

>  <SCORE.INTRA.REPUL>
-0.0631597

>  <SCORE.INTRA.REPUL.0>
0.115675

>  <SCORE.INTRA.SOLV>
-8.85154

>  <SCORE.INTRA.SOLV.lig_0>
-154.895

>  <SCORE.INTRA.VDW>
-6.51081

>  <SCORE.INTRA.VDW.0>
2.2925

>  <SCORE.INTRA.norm>
-0.410311

>  <SCORE.RESTR>
1.07378

>  <SCORE.RESTR.CAVITY>
1.07378

>  <SCORE.RESTR.norm>
0.0255662

>  <SCORE.SYSTEM>
0

>  <SCORE.SYSTEM.CONST>
0

>  <SCORE.SYSTEM.DIHEDRAL>
0

>  <SCORE.SYSTEM.SOLV>
0

>  <SCORE.SYSTEM.norm>
0

>  <SCORE.heavy>
42

>  <SCORE.norm>
-1.28501

>  <RMSD>
14.904

$$$$

 OpenBabel11021811413D
libRbt.so/2013.1/901 2013/11/27
 42 45  0  0  0  0  0  0  0  0999 V2000
   -1.4442   -0.9350    0.9279 O   0  0  0  0  0  0  0  0  0  0  0  0
   -2.7002   -1.2528    0.3453 C   0  0  0  0  0  0  0  0  0  0  0  0
   -2.6086   -2.5947   -0.3823 C   0  0  1  0  0  0  0  0  0  0  0  0
   -2.3776   -3.6791    0.5431 O   0  0  0  0  0  0  0  0  0  0  0  0
   -3.8758   -2.9592   -1.1377 C   0  0  2  0  0  0  0  0  0  0  0  0
   -3.6813   -4.4576   -1.2984 C   0  0  1  0  0  0  0  0  0  0  0  0
   -2.7442   -4.7120   -2.3390 O   0  0  0  0  0  0  0  0  0  0  0  0
   -3.0746   -4.8563    0.0623 C   0  0  2  0  0  0  0  0  0  0  0  0
   -6.7989   -4.3398   -3.3983 C   0  0  2  0  0  0  0  0  0  0  0  0
   -5.8362   -3.7038   -2.5438 O   0  0  0  0  0  0  0  0  0  0  0  0
   -4.9418   -2.8520   -3.2821 C   0  0  2  0  0  0  0  0  0  0  0  0
   -3.9529   -2.2753   -2.4039 O   0  0  0  0  0  0  0  0  0  0  0  0
   -5.7232   -1.7433   -4.0078 C   0  0  2  0  0  0  0  0  0  0  0  0
   -6.1304   -0.7068   -3.0772 N   0  3  0  0  0  0  0  0  0  0  0  0
   -6.9340   -2.2733   -4.7849 C   0  0  1  0  0  0  0  0  0  0  0  0
   -6.4932   -2.8674   -5.9956 O   0  0  0  0  0  0  0  0  0  0  0  0
   -7.7379   -3.2906   -3.9797 C   0  0  2  0  0  0  0  0  0  0  0  0
   -8.4449   -2.6330   -2.9346 O   0  0  0  0  0  0  0  0  0  0  0  0
   -7.5802   -5.4026   -2.6309 C   0  0  0  0  0  0  0  0  0  0  0  0
   -7.4952   -6.6822   -3.3092 N   0  3  0  0  0  0  0  0  0  0  0  0
   -3.6043  -11.0367    1.0055 C   0  0  1  0  0  0  0  0  0  0  0  0
   -2.4021  -10.2420    0.9343 O   0  0  0  0  0  0  0  0  0  0  0  0
   -2.6416   -8.8766    0.5223 C   0  0  2  0  0  0  0  0  0  0  0  0
   -3.4199   -8.1427    1.4996 O   0  0  0  0  0  0  0  0  0  0  0  0
   -3.3088   -8.8378   -0.8580 C   0  0  2  0  0  0  0  0  0  0  0  0
   -3.7332   -7.4845   -1.1652 N   0  3  0  0  0  0  0  0  0  0  0  0
   -4.5137   -9.7692   -0.9296 C   0  0  1  0  0  0  0  0  0  0  0  0
   -4.9518   -9.8815   -2.2748 O   0  0  0  0  0  0  0  0  0  0  0  0
   -4.2337  -11.1566   -0.3728 C   0  0  2  0  0  0  0  0  0  0  0  0
   -5.4355  -11.9089   -0.2948 O   0  0  0  0  0  0  0  0  0  0  0  0
   -3.2710  -12.4461    1.4866 C   0  0  0  0  0  0  0  0  0  0  0  0
   -3.1675  -12.4842    2.9339 N   0  3  0  0  0  0  0  0  0  0  0  0
   -2.5345   -5.1810    4.4226 C   0  0  2  0  0  0  0  0  0  0  0  0
   -1.4518   -6.1830    4.0737 C   0  0  0  0  0  0  0  0  0  0  0  0
   -2.0453   -7.3755    3.3469 C   0  0  1  0  0  0  0  0  0  0  0  0
   -2.7157   -6.9883    2.0280 C   0  0  2  0  0  0  0  0  0  0  0  0
   -3.7036   -5.8165    2.2323 C   0  0  1  0  0  0  0  0  0  0  0  0
   -3.2400   -4.6902    3.1656 C   0  0  1  0  0  0  0  0  0  0  0  0
   -1.9428   -4.0554    5.1204 N   0  3  0  0  0  0  0  0  0  0  0  0
   -1.0017   -8.3561    3.1196 N   0  3  0  0  0  0  0  0  0  0  0  0
   -4.1411   -5.2633    0.9669 O   0  0  0  0  0  0  0  0  0  0  0  0
   -4.3504   -3.8749    3.5255 O   0  0  0  0  0  0  0  0  0  0  0  0
  1  2  1  0  0  0  0
  3  2  1  1  0  0  0
  3  4  1  0  0  0  0
  3  5  1  0  0  0  0
  4  8  1  0  0  0  0
  5  6  1  0  0  0  0
  5 12  1  6  0  0  0
  6  7  1  6  0  0  0
  6  8  1  0  0  0  0
  8 41  1  1  0  0  0
  9 10  1  0  0  0  0
  9 17  1  0  0  0  0
  9 19  1  1  0  0  0
 10 11  1  0  0  0  0
 11 12  1  1  0  0  0
 11 13  1  0  0  0  0
 13 14  1  1  0  0  0
 13 15  1  0  0  0  0
 15 16  1  6  0  0  0
 15 17  1  0  0  0  0
 17 18  1  1  0  0  0
 19 20  1  0  0  0  0
 21 22  1  0  0  0  0
 21 29  1  0  0  0  0
 21 31  1  6  0  0  0
 22 23  1  0  0  0  0
 23 24  1  1  0  0  0
 23 25  1  0  0  0  0
 25 26  1  1  0  0  0
 25 27  1  0  0  0  0
 27 28  1  6  0  0  0
 27 29  1  0  0  0  0
 29 30  1  1  0  0  0
 31 32  1  0  0  0  0
 33 34  1  0  0  0  0
 33 38  1  0  0  0  0
 33 39  1  6  0  0  0
 34 35  1  0  0  0  0
 35 36  1  0  0  0  0
 35 40  1  6  0  0  0
 36 24  1  1  0  0  0
 36 37  1  0  0  0  0
 37 38  1  0  0  0  0
 37 41  1  6  0  0  0
 38 42  1  1  0  0  0
M  CHG  6  14   1  20   1  26   1  32   1  39   1  40   1
M  END
>  <CHROM.1>
44.03875991,65.80175053,164.83957151,-81.00944800,-70.17522664,-125.29114844
15.99142531,-161.81461464,-60.99108624,-59.66923758,-64.76743096,82.35100966
119.53757223,-96.05365411,-174.22663294,-50.48246635,-57.77003293,88.88934091
53.43367293,-142.75808241,-53.91711426,68.95861891,-4.11492917,-5.81527386
-0.27111667,-2.17524666,0.98845454,3.03975332

>  <Name>


>  <RI>
0

>  <Rbt.Current_Directory>
/home/itssahil/PROJECTS/Mol_Feturizer/New_Systems/rnas/1qd3

>  <Rbt.Executable>
rbdock ($Id: //depot/dev/client3/rdock/2013.1/src/exe/rbdock.cxx#4 $)

>  <Rbt.Library>
libRbt.so (2013.1, Build901 2013/11/27)

>  <Rbt.Parameter_File>
/export/apps/rDock/src/rDock_2013.1_src/data/scripts/dock_solv.prm

>  <Rbt.Receptor>
prm/blind_docking_20.prm

>  <SCORE>
-57.0427

>  <SCORE.INTER>
-52.438

>  <SCORE.INTER.CONST>
1

>  <SCORE.INTER.POLAR>
-8.22533

>  <SCORE.INTER.ROT>
9

>  <SCORE.INTER.SOLV>
30.0257

>  <SCORE.INTER.VDW>
-27.1495

>  <SCORE.INTER.norm>
-1.24852

>  <SCORE.INTRA>
-5.24956

>  <SCORE.INTRA.DIHEDRAL>
-4.97711

>  <SCORE.INTRA.DIHEDRAL.0>
40.6252

>  <SCORE.INTRA.POLAR>
0.568867

>  <SCORE.INTRA.POLAR.0>
-1.20161

>  <SCORE.INTRA.REPUL>
0.0330953

>  <SCORE.INTRA.REPUL.0>
0.115675

>  <SCORE.INTRA.SOLV>
-6.02224

>  <SCORE.INTRA.SOLV.lig_0>
-154.895

>  <SCORE.INTRA.VDW>
-1.84951

>  <SCORE.INTRA.VDW.0>
2.2925

>  <SCORE.INTRA.norm>
-0.12499

>  <SCORE.RESTR>
0.644865

>  <SCORE.RESTR.CAVITY>
0.644865

>  <SCORE.RESTR.norm>
0.0153539

>  <SCORE.SYSTEM>
0

>  <SCORE.SYSTEM.CONST>
0

>  <SCORE.SYSTEM.DIHEDRAL>
0

>  <SCORE.SYSTEM.SOLV>
0

>  <SCORE.SYSTEM.norm>
0

>  <SCORE.heavy>
42

>  <SCORE.norm>
-1.35816

>  <RMSD>
14.906

$$$$

 OpenBabel11021811413D
libRbt.so/2013.1/901 2013/11/27
 42 45  0  0  0  0  0  0  0  0999 V2000
   -5.6097   -6.2391    3.2398 O   0  0  0  0  0  0  0  0  0  0  0  0
   -4.4903   -6.3532    2.3729 C   0  0  0  0  0  0  0  0  0  0  0  0
   -4.7935   -7.3640    1.2662 C   0  0  1  0  0  0  0  0  0  0  0  0
   -5.9727   -6.9892    0.5215 O   0  0  0  0  0  0  0  0  0  0  0  0
   -3.6791   -7.4879    0.2404 C   0  0  2  0  0  0  0  0  0  0  0  0
   -4.4370   -8.1152   -0.9176 C   0  0  1  0  0  0  0  0  0  0  0  0
   -4.6372   -9.5018   -0.6665 O   0  0  0  0  0  0  0  0  0  0  0  0
   -5.7878   -7.3727   -0.8647 C   0  0  2  0  0  0  0  0  0  0  0  0
   -3.2334   -8.5756    4.3101 C   0  0  2  0  0  0  0  0  0  0  0  0
   -3.4155   -8.7748    2.8999 O   0  0  0  0  0  0  0  0  0  0  0  0
   -2.3665   -8.1599    2.1303 C   0  0  2  0  0  0  0  0  0  0  0  0
   -2.6103   -8.3284    0.7183 O   0  0  0  0  0  0  0  0  0  0  0  0
   -0.9974   -8.7497    2.5100 C   0  0  2  0  0  0  0  0  0  0  0  0
   -0.8212  -10.0637    1.9193 N   0  3  0  0  0  0  0  0  0  0  0  0
   -0.7683   -8.8068    4.0249 C   0  0  1  0  0  0  0  0  0  0  0  0
   -0.4331   -7.5124    4.4995 O   0  0  0  0  0  0  0  0  0  0  0  0
   -1.9917   -9.3254    4.7758 C   0  0  2  0  0  0  0  0  0  0  0  0
   -2.1471  -10.7209    4.5457 O   0  0  0  0  0  0  0  0  0  0  0  0
   -4.4670   -9.0353    5.0819 C   0  0  0  0  0  0  0  0  0  0  0  0
   -4.5115   -8.4049    6.3879 N   0  3  0  0  0  0  0  0  0  0  0  0
   -4.6275   -1.6348    0.5235 C   0  0  1  0  0  0  0  0  0  0  0  0
   -5.2304   -1.1953   -0.7116 O   0  0  0  0  0  0  0  0  0  0  0  0
   -5.3507   -2.2474   -1.6965 C   0  0  2  0  0  0  0  0  0  0  0  0
   -6.2709   -3.2842   -1.2745 O   0  0  0  0  0  0  0  0  0  0  0  0
   -3.9739   -2.8334   -2.0323 C   0  0  2  0  0  0  0  0  0  0  0  0
   -4.1273   -4.0191   -2.8547 N   0  3  0  0  0  0  0  0  0  0  0  0
   -3.1912   -3.1938   -0.7745 C   0  0  1  0  0  0  0  0  0  0  0  0
   -1.8502   -3.5055   -1.1190 O   0  0  0  0  0  0  0  0  0  0  0  0
   -3.1996   -2.0920    0.2739 C   0  0  2  0  0  0  0  0  0  0  0  0
   -2.6197   -2.5576    1.4837 O   0  0  0  0  0  0  0  0  0  0  0  0
   -4.5766   -0.4800    1.5198 C   0  0  0  0  0  0  0  0  0  0  0  0
   -3.8984    0.6666    0.9435 N   0  3  0  0  0  0  0  0  0  0  0  0
   -9.1745   -5.6474   -3.2954 C   0  0  2  0  0  0  0  0  0  0  0  0
   -8.8160   -4.2990   -3.8884 C   0  0  0  0  0  0  0  0  0  0  0  0
   -8.0998   -3.4406   -2.8623 C   0  0  1  0  0  0  0  0  0  0  0  0
   -6.7876   -4.0641   -2.3846 C   0  0  2  0  0  0  0  0  0  0  0  0
   -6.9999   -5.5310   -1.9443 C   0  0  1  0  0  0  0  0  0  0  0  0
   -7.9243   -6.3798   -2.8272 C   0  0  1  0  0  0  0  0  0  0  0  0
   -9.8620   -6.4451   -4.2929 N   0  3  0  0  0  0  0  0  0  0  0  0
   -7.8633   -2.1272   -3.4293 N   0  3  0  0  0  0  0  0  0  0  0  0
   -5.7380   -6.2146   -1.7467 O   0  0  0  0  0  0  0  0  0  0  0  0
   -8.2946   -7.5676   -2.1350 O   0  0  0  0  0  0  0  0  0  0  0  0
  1  2  1  0  0  0  0
  3  2  1  1  0  0  0
  3  4  1  0  0  0  0
  3  5  1  0  0  0  0
  4  8  1  0  0  0  0
  5  6  1  0  0  0  0
  5 12  1  1  0  0  0
  6  7  1  1  0  0  0
  6  8  1  0  0  0  0
  8 41  1  6  0  0  0
  9 10  1  0  0  0  0
  9 17  1  0  0  0  0
  9 19  1  1  0  0  0
 10 11  1  0  0  0  0
 11 12  1  6  0  0  0
 11 13  1  0  0  0  0
 13 14  1  1  0  0  0
 13 15  1  0  0  0  0
 15 16  1  1  0  0  0
 15 17  1  0  0  0  0
 17 18  1  6  0  0  0
 19 20  1  0  0  0  0
 21 22  1  0  0  0  0
 21 29  1  0  0  0  0
 21 31  1  1  0  0  0
 22 23  1  0  0  0  0
 23 24  1  1  0  0  0
 23 25  1  0  0  0  0
 25 26  1  6  0  0  0
 25 27  1  0  0  0  0
 27 28  1  6  0  0  0
 27 29  1  0  0  0  0
 29 30  1  1  0  0  0
 31 32  1  0  0  0  0
 33 34  1  0  0  0  0
 33 38  1  0  0  0  0
 33 39  1  6  0  0  0
 34 35  1  0  0  0  0
 35 36  1  0  0  0  0
 35 40  1  6  0  0  0
 36 24  1  1  0  0  0
 36 37  1  0  0  0  0
 37 38  1  0  0  0  0
 37 41  1  6  0  0  0
 38 42  1  1  0  0  0
M  CHG  6  14   1  20   1  26   1  32   1  39   1  40   1
M  END
>  <CHROM.1>
57.59734033,57.36708510,-36.99577934,62.15969029,-71.57588036,-158.76792423
73.36488734,-36.79347213,-61.14219818,-60.89163698,30.56157072,-54.80722338
158.64025305,-92.37482294,51.84921049,125.50101653,-177.33980564,-65.13897811
-44.53648208,54.26961304,157.08691572,-29.42056469,-4.64616451,-5.81996474
0.36768793,-0.83265497,-0.79206196,-0.26659351

>  <Name>


>  <RI>
0

>  <Rbt.Current_Directory>
/home/itssahil/PROJECTS/Mol_Feturizer/New_Systems/rnas/1qd3

>  <Rbt.Executable>
rbdock ($Id: //depot/dev/client3/rdock/2013.1/src/exe/rbdock.cxx#4 $)

>  <Rbt.Library>
libRbt.so (2013.1, Build901 2013/11/27)

>  <Rbt.Parameter_File>
/export/apps/rDock/src/rDock_2013.1_src/data/scripts/dock_solv.prm

>  <Rbt.Receptor>
prm/blind_docking_80.prm

>  <SCORE>
-51.8221

>  <SCORE.INTER>
-42.6392

>  <SCORE.INTER.CONST>
1

>  <SCORE.INTER.POLAR>
-5.80854

>  <SCORE.INTER.ROT>
9

>  <SCORE.INTER.SOLV>
21.2948

>  <SCORE.INTER.VDW>
-25.7626

>  <SCORE.INTER.norm>
-1.01522

>  <SCORE.INTRA>
-9.20875

>  <SCORE.INTRA.DIHEDRAL>
-11.1475

>  <SCORE.INTRA.DIHEDRAL.0>
40.6252

>  <SCORE.INTRA.POLAR>
0.0349408

>  <SCORE.INTRA.POLAR.0>
-1.20161

>  <SCORE.INTRA.REPUL>
-0.115675

>  <SCORE.INTRA.REPUL.0>
0.115675

>  <SCORE.INTRA.SOLV>
-6.96061

>  <SCORE.INTRA.SOLV.lig_0>
-154.895

>  <SCORE.INTRA.VDW>
0.304879

>  <SCORE.INTRA.VDW.0>
2.2925

>  <SCORE.INTRA.norm>
-0.219256

>  <SCORE.RESTR>
0.0258067

>  <SCORE.RESTR.CAVITY>
0.0258067

>  <SCORE.RESTR.norm>
0.000614445

>  <SCORE.SYSTEM>
0

>  <SCORE.SYSTEM.CONST>
0

>  <SCORE.SYSTEM.DIHEDRAL>
0

>  <SCORE.SYSTEM.SOLV>
0

>  <SCORE.SYSTEM.norm>
0

>  <SCORE.heavy>
42

>  <SCORE.norm>
-1.23386

>  <RMSD>
14.927

$$$$

 OpenBabel11021811413D
libRbt.so/2013.1/901 2013/11/27
 42 45  0  0  0  0  0  0  0  0999 V2000
   -4.7943   -4.8877    1.2707 O   0  0  0  0  0  0  0  0  0  0  0  0
   -4.9222   -4.3567    2.5819 C   0  0  0  0  0  0  0  0  0  0  0  0
   -3.5657   -4.3864    3.2871 C   0  0  1  0  0  0  0  0  0  0  0  0
   -3.2911   -5.6910    3.8424 O   0  0  0  0  0  0  0  0  0  0  0  0
   -2.3989   -4.0765    2.3641 C   0  0  2  0  0  0  0  0  0  0  0  0
   -1.2478   -4.6581    3.1676 C   0  0  1  0  0  0  0  0  0  0  0  0
   -0.9074   -3.7737    4.2295 O   0  0  0  0  0  0  0  0  0  0  0  0
   -1.8679   -5.9493    3.7394 C   0  0  2  0  0  0  0  0  0  0  0  0
   -4.4405   -0.0656    0.7830 C   0  0  2  0  0  0  0  0  0  0  0  0
   -3.3087   -0.6592    1.4374 O   0  0  0  0  0  0  0  0  0  0  0  0
   -3.3775   -2.0965    1.4322 C   0  0  2  0  0  0  0  0  0  0  0  0
   -2.2574   -2.6588    2.1469 O   0  0  0  0  0  0  0  0  0  0  0  0
   -3.4154   -2.6331   -0.0090 C   0  0  2  0  0  0  0  0  0  0  0  0
   -2.0973   -2.5769   -0.6140 N   0  3  0  0  0  0  0  0  0  0  0  0
   -4.4422   -1.9124   -0.8905 C   0  0  1  0  0  0  0  0  0  0  0  0
   -5.7420   -2.3953   -0.5902 O   0  0  0  0  0  0  0  0  0  0  0  0
   -4.4038   -0.3982   -0.7031 C   0  0  2  0  0  0  0  0  0  0  0  0
   -3.2248    0.1346   -1.2953 O   0  0  0  0  0  0  0  0  0  0  0  0
   -4.4571    1.4446    1.0016 C   0  0  0  0  0  0  0  0  0  0  0  0
   -5.3006    1.7836    2.1322 N   0  3  0  0  0  0  0  0  0  0  0  0
   -5.7531   -7.5901   -1.0321 C   0  0  1  0  0  0  0  0  0  0  0  0
   -4.7404   -8.6135   -1.1275 O   0  0  0  0  0  0  0  0  0  0  0  0
   -3.5081   -8.2642   -0.4562 C   0  0  2  0  0  0  0  0  0  0  0  0
   -3.6821   -8.1577    0.9784 O   0  0  0  0  0  0  0  0  0  0  0  0
   -2.9222   -6.9726   -1.0394 C   0  0  2  0  0  0  0  0  0  0  0  0
   -1.8095   -6.5211   -0.2247 N   0  3  0  0  0  0  0  0  0  0  0  0
   -3.9663   -5.8644   -1.1199 C   0  0  1  0  0  0  0  0  0  0  0  0
   -3.4527   -4.7777   -1.8746 O   0  0  0  0  0  0  0  0  0  0  0  0
   -5.2827   -6.3233   -1.7280 C   0  0  2  0  0  0  0  0  0  0  0  0
   -6.2655   -5.3059   -1.6024 O   0  0  0  0  0  0  0  0  0  0  0  0
   -7.0306   -8.0530   -1.7268 C   0  0  0  0  0  0  0  0  0  0  0  0
   -7.5521   -9.2525   -1.0977 N   0  3  0  0  0  0  0  0  0  0  0  0
   -2.3596  -10.5109    4.2667 C   0  0  2  0  0  0  0  0  0  0  0  0
   -2.4629  -11.1784    2.9095 C   0  0  0  0  0  0  0  0  0  0  0  0
   -3.3107  -10.3420    1.9690 C   0  0  1  0  0  0  0  0  0  0  0  0
   -2.7216   -8.9524    1.7224 C   0  0  2  0  0  0  0  0  0  0  0  0
   -2.3793   -8.2515    3.0574 C   0  0  1  0  0  0  0  0  0  0  0  0
   -1.7363   -9.1273    4.1409 C   0  0  1  0  0  0  0  0  0  0  0  0
   -1.5504  -11.3319    5.1471 N   0  3  0  0  0  0  0  0  0  0  0  0
   -3.4714  -11.0569    0.7178 N   0  3  0  0  0  0  0  0  0  0  0  0
   -1.5812   -7.0615    2.8436 O   0  0  0  0  0  0  0  0  0  0  0  0
   -1.7927   -8.4593    5.3969 O   0  0  0  0  0  0  0  0  0  0  0  0
  1  2  1  0  0  0  0
  3  2  1  6  0  0  0
  3  4  1  0  0  0  0
  3  5  1  0  0  0  0
  4  8  1  0  0  0  0
  5  6  1  0  0  0  0
  5 12  1  1  0  0  0
  6  7  1  1  0  0  0
  6  8  1  0  0  0  0
  8 41  1  6  0  0  0
  9 10  1  0  0  0  0
  9 17  1  0  0  0  0
  9 19  1  6  0  0  0
 10 11  1  0  0  0  0
 11 12  1  6  0  0  0
 11 13  1  0  0  0  0
 13 14  1  6  0  0  0
 13 15  1  0  0  0  0
 15 16  1  1  0  0  0
 15 17  1  0  0  0  0
 17 18  1  1  0  0  0
 19 20  1  0  0  0  0
 21 22  1  0  0  0  0
 21 29  1  0  0  0  0
 21 31  1  6  0  0  0
 22 23  1  0  0  0  0
 23 24  1  1  0  0  0
 23 25  1  0  0  0  0
 25 26  1  1  0  0  0
 25 27  1  0  0  0  0
 27 28  1  6  0  0  0
 27 29  1  0  0  0  0
 29 30  1  1  0  0  0
 31 32  1  0  0  0  0
 33 34  1  0  0  0  0
 33 38  1  0  0  0  0
 33 39  1  1  0  0  0
 34 35  1  0  0  0  0
 35 36  1  0  0  0  0
 35 40  1  6  0  0  0
 36 24  1  1  0  0  0
 36 37  1  0  0  0  0
 37 38  1  0  0  0  0
 37 41  1  6  0  0  0
 38 42  1  1  0  0  0
M  CHG  6  14   1  20   1  26   1  32   1  39   1  40   1
M  END
>  <CHROM.1>
-119.69608550,-81.93780507,-65.52766630,-64.29872272,-47.69886669,-95.01916035
170.17158722,142.82620279,176.17439426,-66.96249287,-61.17346888,60.95876912
127.82799760,-90.85849876,73.51547046,60.31047153,-67.34607093,131.04635518
94.29798717,78.87375937,143.57920744,-155.56420854,-3.55146355,-5.49417846
1.16417272,1.79523870,-0.98706015,-0.03350246

>  <Name>


>  <RI>
0

>  <Rbt.Current_Directory>
/home/itssahil/PROJECTS/Mol_Feturizer/New_Systems/rnas/1qd3

>  <Rbt.Executable>
rbdock ($Id: //depot/dev/client3/rdock/2013.1/src/exe/rbdock.cxx#4 $)

>  <Rbt.Library>
libRbt.so (2013.1, Build901 2013/11/27)

>  <Rbt.Parameter_File>
/export/apps/rDock/src/rDock_2013.1_src/data/scripts/dock_solv.prm

>  <Rbt.Receptor>
prm/blind_docking_60.prm

>  <SCORE>
-59.1227

>  <SCORE.INTER>
-54.5527

>  <SCORE.INTER.CONST>
1

>  <SCORE.INTER.POLAR>
-7.52648

>  <SCORE.INTER.ROT>
9

>  <SCORE.INTER.SOLV>
34.147

>  <SCORE.INTER.VDW>
-32.2626

>  <SCORE.INTER.norm>
-1.29887

>  <SCORE.INTRA>
-7.82615

>  <SCORE.INTRA.DIHEDRAL>
1.83766

>  <SCORE.INTRA.DIHEDRAL.0>
40.6252

>  <SCORE.INTRA.POLAR>
-1.26797

>  <SCORE.INTRA.POLAR.0>
-1.20161

>  <SCORE.INTRA.REPUL>
0.751392

>  <SCORE.INTRA.REPUL.0>
0.115675

>  <SCORE.INTRA.SOLV>
-2.31824

>  <SCORE.INTRA.SOLV.lig_0>
-154.895

>  <SCORE.INTRA.VDW>
-7.03173

>  <SCORE.INTRA.VDW.0>
2.2925

>  <SCORE.INTRA.norm>
-0.186337

>  <SCORE.RESTR>
3.25615

>  <SCORE.RESTR.CAVITY>
3.25615

>  <SCORE.RESTR.norm>
0.0775273

>  <SCORE.SYSTEM>
0

>  <SCORE.SYSTEM.CONST>
0

>  <SCORE.SYSTEM.DIHEDRAL>
0

>  <SCORE.SYSTEM.SOLV>
0

>  <SCORE.SYSTEM.norm>
0

>  <SCORE.heavy>
42

>  <SCORE.norm>
-1.40768

>  <RMSD>
14.948

$$$$

 OpenBabel11021811413D
libRbt.so/2013.1/901 2013/11/27
 42 45  0  0  0  0  0  0  0  0999 V2000
   -5.0437   -3.4901   -2.8142 O   0  0  0  0  0  0  0  0  0  0  0  0
   -5.8801   -4.2864   -1.9871 C   0  0  0  0  0  0  0  0  0  0  0  0
   -5.1384   -5.5574   -1.5716 C   0  0  1  0  0  0  0  0  0  0  0  0
   -4.3514   -5.3404   -0.3802 O   0  0  0  0  0  0  0  0  0  0  0  0
   -6.0645   -6.7184   -1.2491 C   0  0  2  0  0  0  0  0  0  0  0  0
   -5.1343   -7.5947   -0.4271 C   0  0  1  0  0  0  0  0  0  0  0  0
   -4.2365   -8.2846   -1.2896 O   0  0  0  0  0  0  0  0  0  0  0  0
   -4.3618   -6.5557    0.4109 C   0  0  2  0  0  0  0  0  0  0  0  0
   -7.9462   -5.1191   -4.9434 C   0  0  2  0  0  0  0  0  0  0  0  0
   -6.9743   -5.9313   -4.2673 O   0  0  0  0  0  0  0  0  0  0  0  0
   -7.5401   -6.6165   -3.1354 C   0  0  2  0  0  0  0  0  0  0  0  0
   -6.5259   -7.3761   -2.4456 O   0  0  0  0  0  0  0  0  0  0  0  0
   -8.6894   -7.5384   -3.5779 C   0  0  2  0  0  0  0  0  0  0  0  0
   -8.1723   -8.7443   -4.1982 N   0  3  0  0  0  0  0  0  0  0  0  0
   -9.6917   -6.8437   -4.5071 C   0  0  1  0  0  0  0  0  0  0  0  0
  -10.5466   -6.0113   -3.7396 O   0  0  0  0  0  0  0  0  0  0  0  0
   -9.0010   -6.0119   -5.5844 C   0  0  2  0  0  0  0  0  0  0  0  0
   -8.3982   -6.8686   -6.5473 O   0  0  0  0  0  0  0  0  0  0  0  0
   -7.2738   -4.2350   -5.9900 C   0  0  0  0  0  0  0  0  0  0  0  0
   -6.4861   -3.1996   -5.3479 N   0  3  0  0  0  0  0  0  0  0  0  0
   -1.5460   -8.8813    2.9825 C   0  0  1  0  0  0  0  0  0  0  0  0
   -2.8102   -8.4027    2.4776 O   0  0  0  0  0  0  0  0  0  0  0  0
   -3.5798   -7.6724    3.4603 C   0  0  2  0  0  0  0  0  0  0  0  0
   -2.9323   -6.4353    3.8479 O   0  0  0  0  0  0  0  0  0  0  0  0
   -3.8688   -8.5518    4.6829 C   0  0  2  0  0  0  0  0  0  0  0  0
   -4.4530   -7.7507    5.7425 N   0  3  0  0  0  0  0  0  0  0  0  0
   -2.6054   -9.2275    5.2042 C   0  0  1  0  0  0  0  0  0  0  0  0
   -2.9511  -10.2043    6.1740 O   0  0  0  0  0  0  0  0  0  0  0  0
   -1.7761   -9.8774    4.1072 C   0  0  2  0  0  0  0  0  0  0  0  0
   -0.5310  -10.3205    4.6267 O   0  0  0  0  0  0  0  0  0  0  0  0
   -0.7805   -9.6011    1.8758 C   0  0  0  0  0  0  0  0  0  0  0  0
   -1.5250  -10.7530    1.4011 N   0  3  0  0  0  0  0  0  0  0  0  0
   -4.3286   -2.6883    2.3954 C   0  0  2  0  0  0  0  0  0  0  0  0
   -2.8324   -2.8817    2.5432 C   0  0  0  0  0  0  0  0  0  0  0  0
   -2.5359   -4.0778    3.4288 C   0  0  1  0  0  0  0  0  0  0  0  0
   -3.0853   -5.3855    2.8569 C   0  0  2  0  0  0  0  0  0  0  0  0
   -4.5754   -5.2381    2.4712 C   0  0  1  0  0  0  0  0  0  0  0  0
   -4.9742   -3.9249    1.7849 C   0  0  1  0  0  0  0  0  0  0  0  0
   -4.5846   -1.5374    1.5505 N   0  3  0  0  0  0  0  0  0  0  0  0
   -1.1031   -4.1717    3.6300 N   0  3  0  0  0  0  0  0  0  0  0  0
   -5.0359   -6.3666    1.6881 O   0  0  0  0  0  0  0  0  0  0  0  0
   -6.3910   -3.7841    1.8003 O   0  0  0  0  0  0  0  0  0  0  0  0
  1  2  1  0  0  0  0
  3  2  1  1  0  0  0
  3  4  1  0  0  0  0
  3  5  1  0  0  0  0
  4  8  1  0  0  0  0
  5  6  1  0  0  0  0
  5 12  1  6  0  0  0
  6  7  1  6  0  0  0
  6  8  1  0  0  0  0
  8 41  1  1  0  0  0
  9 10  1  0  0  0  0
  9 17  1  0  0  0  0
  9 19  1  6  0  0  0
 10 11  1  0  0  0  0
 11 12  1  6  0  0  0
 11 13  1  0  0  0  0
 13 14  1  6  0  0  0
 13 15  1  0  0  0  0
 15 16  1  1  0  0  0
 15 17  1  0  0  0  0
 17 18  1  6  0  0  0
 19 20  1  0  0  0  0
 21 22  1  0  0  0  0
 21 29  1  0  0  0  0
 21 31  1  6  0  0  0
 22 23  1  0  0  0  0
 23 24  1  1  0  0  0
 23 25  1  0  0  0  0
 25 26  1  1  0  0  0
 25 27  1  0  0  0  0
 27 28  1  1  0  0  0
 27 29  1  0  0  0  0
 29 30  1  1  0  0  0
 31 32  1  0  0  0  0
 33 34  1  0  0  0  0
 33 38  1  0  0  0  0
 33 39  1  6  0  0  0
 34 35  1  0  0  0  0
 35 36  1  0  0  0  0
 35 40  1  6  0  0  0
 36 24  1  1  0  0  0
 36 37  1  0  0  0  0
 37 38  1  0  0  0  0
 37 41  1  6  0  0  0
 38 42  1  1  0  0  0
M  CHG  6  14   1  20   1  26   1  32   1  39   1  40   1
M  END
>  <CHROM.1>
-146.98256483,86.87017986,-75.47734665,-179.54881009,-51.69794428,-70.32461767
101.73573296,76.15929526,-32.52792629,-91.74194418,-57.81594594,-61.31188566
77.29278200,172.59311020,115.81194101,63.34212373,-173.58645379,-170.99366264
-76.38515643,26.86330389,-61.84753968,58.20552141,-4.90578253,-6.43752993
0.15667618,-3.01147760,1.00821411,-3.04564486

>  <Name>


>  <RI>
0

>  <Rbt.Current_Directory>
/home/itssahil/PROJECTS/Mol_Feturizer/New_Systems/rnas/1qd3

>  <Rbt.Executable>
rbdock ($Id: //depot/dev/client3/rdock/2013.1/src/exe/rbdock.cxx#4 $)

>  <Rbt.Library>
libRbt.so (2013.1, Build901 2013/11/27)

>  <Rbt.Parameter_File>
/export/apps/rDock/src/rDock_2013.1_src/data/scripts/dock_solv.prm

>  <Rbt.Receptor>
prm/blind_docking_100.prm

>  <SCORE>
-60.9371

>  <SCORE.INTER>
-46.4119

>  <SCORE.INTER.CONST>
1

>  <SCORE.INTER.POLAR>
-6.37532

>  <SCORE.INTER.ROT>
9

>  <SCORE.INTER.SOLV>
22.3688

>  <SCORE.INTER.VDW>
-26.7464

>  <SCORE.INTER.norm>
-1.10504

>  <SCORE.INTRA>
-15.8381

>  <SCORE.INTRA.DIHEDRAL>
-9.4774

>  <SCORE.INTRA.DIHEDRAL.0>
40.6252

>  <SCORE.INTRA.POLAR>
0.306739

>  <SCORE.INTRA.POLAR.0>
-1.20161

>  <SCORE.INTRA.REPUL>
-0.115675

>  <SCORE.INTRA.REPUL.0>
0.115675

>  <SCORE.INTRA.SOLV>
-10.7232

>  <SCORE.INTRA.SOLV.lig_0>
-154.895

>  <SCORE.INTRA.VDW>
-6.20237

>  <SCORE.INTRA.VDW.0>
2.2925

>  <SCORE.INTRA.norm>
-0.377098

>  <SCORE.RESTR>
1.31285

>  <SCORE.RESTR.CAVITY>
1.31285

>  <SCORE.RESTR.norm>
0.0312583

>  <SCORE.SYSTEM>
0

>  <SCORE.SYSTEM.CONST>
0

>  <SCORE.SYSTEM.DIHEDRAL>
0

>  <SCORE.SYSTEM.SOLV>
0

>  <SCORE.SYSTEM.norm>
0

>  <SCORE.heavy>
42

>  <SCORE.norm>
-1.45088

>  <RMSD>
14.957

$$$$

 OpenBabel11021811413D
libRbt.so/2013.1/901 2013/11/27
 42 45  0  0  0  0  0  0  0  0999 V2000
   -1.3760   -2.5093    5.8997 O   0  0  0  0  0  0  0  0  0  0  0  0
   -1.6662   -3.8937    5.7703 C   0  0  0  0  0  0  0  0  0  0  0  0
   -1.5713   -4.3074    4.3011 C   0  0  1  0  0  0  0  0  0  0  0  0
   -1.7020   -5.7375    4.1489 O   0  0  0  0  0  0  0  0  0  0  0  0
   -2.6585   -3.6983    3.4314 C   0  0  2  0  0  0  0  0  0  0  0  0
   -2.6182   -4.6385    2.2384 C   0  0  1  0  0  0  0  0  0  0  0  0
   -1.4999   -4.3240    1.4159 O   0  0  0  0  0  0  0  0  0  0  0  0
   -2.4052   -6.0103    2.9103 C   0  0  2  0  0  0  0  0  0  0  0  0
   -4.4489    0.2124    1.5106 C   0  0  2  0  0  0  0  0  0  0  0  0
   -3.4566   -0.3653    2.3727 O   0  0  0  0  0  0  0  0  0  0  0  0
   -3.3088   -1.7793    2.1504 C   0  0  2  0  0  0  0  0  0  0  0  0
   -2.3482   -2.3379    3.0707 O   0  0  0  0  0  0  0  0  0  0  0  0
   -2.8831   -2.0591    0.6989 C   0  0  2  0  0  0  0  0  0  0  0  0
   -1.4750   -1.7629    0.5091 N   0  3  0  0  0  0  0  0  0  0  0  0
   -3.7338   -1.3068   -0.3312 C   0  0  1  0  0  0  0  0  0  0  0  0
   -4.9807   -1.9662   -0.4840 O   0  0  0  0  0  0  0  0  0  0  0  0
   -3.9704    0.1479    0.0658 C   0  0  2  0  0  0  0  0  0  0  0  0
   -2.7685    0.8942   -0.0859 O   0  0  0  0  0  0  0  0  0  0  0  0
   -4.7456    1.6520    1.9209 C   0  0  0  0  0  0  0  0  0  0  0  0
   -3.5739    2.4855    1.7280 N   0  3  0  0  0  0  0  0  0  0  0  0
   -6.3207   -7.0821   -1.5867 C   0  0  1  0  0  0  0  0  0  0  0  0
   -5.3584   -8.1540   -1.6709 O   0  0  0  0  0  0  0  0  0  0  0  0
   -4.2017   -7.9530   -0.8265 C   0  0  2  0  0  0  0  0  0  0  0  0
   -4.5453   -7.9783    0.5810 O   0  0  0  0  0  0  0  0  0  0  0  0
   -3.4822   -6.6503   -1.1966 C   0  0  2  0  0  0  0  0  0  0  0  0
   -2.4564   -6.3544   -0.2138 N   0  3  0  0  0  0  0  0  0  0  0  0
   -4.4495   -5.4748   -1.2808 C   0  0  1  0  0  0  0  0  0  0  0  0
   -3.7912   -4.3539   -1.8504 O   0  0  0  0  0  0  0  0  0  0  0  0
   -5.7031   -5.7854   -2.0842 C   0  0  2  0  0  0  0  0  0  0  0  0
   -6.6397   -4.7245   -1.9673 O   0  0  0  0  0  0  0  0  0  0  0  0
   -7.5251   -7.3907   -2.4714 C   0  0  0  0  0  0  0  0  0  0  0  0
   -8.2612   -8.5316   -1.9582 N   0  3  0  0  0  0  0  0  0  0  0  0
   -2.7001  -10.2843    3.6431 C   0  0  2  0  0  0  0  0  0  0  0  0
   -2.2098  -10.4678    2.2204 C   0  0  0  0  0  0  0  0  0  0  0  0
   -3.2137   -9.8992    1.2347 C   0  0  1  0  0  0  0  0  0  0  0  0
   -3.4397   -8.3984    1.4228 C   0  0  2  0  0  0  0  0  0  0  0  0
   -3.7471   -8.0660    2.9012 C   0  0  1  0  0  0  0  0  0  0  0  0
   -2.9136   -8.8090    3.9536 C   0  0  1  0  0  0  0  0  0  0  0  0
   -1.7268  -10.8404    4.5637 N   0  3  0  0  0  0  0  0  0  0  0  0
   -2.7620  -10.1816   -0.1138 N   0  3  0  0  0  0  0  0  0  0  0  0
   -3.6976   -6.6390    3.1466 O   0  0  0  0  0  0  0  0  0  0  0  0
   -3.5202   -8.6708    5.2343 O   0  0  0  0  0  0  0  0  0  0  0  0
  1  2  1  0  0  0  0
  3  2  1  1  0  0  0
  3  4  1  0  0  0  0
  3  5  1  0  0  0  0
  4  8  1  0  0  0  0
  5  6  1  0  0  0  0
  5 12  1  6  0  0  0
  6  7  1  6  0  0  0
  6  8  1  0  0  0  0
  8 41  1  1  0  0  0
  9 10  1  0  0  0  0
  9 17  1  0  0  0  0
  9 19  1  1  0  0  0
 10 11  1  0  0  0  0
 11 12  1  1  0  0  0
 11 13  1  0  0  0  0
 13 14  1  1  0  0  0
 13 15  1  0  0  0  0
 15 16  1  1  0  0  0
 15 17  1  0  0  0  0
 17 18  1  1  0  0  0
 19 20  1  0  0  0  0
 21 22  1  0  0  0  0
 21 29  1  0  0  0  0
 21 31  1  6  0  0  0
 22 23  1  0  0  0  0
 23 24  1  1  0  0  0
 23 25  1  0  0  0  0
 25 26  1  1  0  0  0
 25 27  1  0  0  0  0
 27 28  1  6  0  0  0
 27 29  1  0  0  0  0
 29 30  1  1  0  0  0
 31 32  1  0  0  0  0
 33 34  1  0  0  0  0
 33 38  1  0  0  0  0
 33 39  1  1  0  0  0
 34 35  1  0  0  0  0
 35 36  1  0  0  0  0
 35 40  1  6  0  0  0
 36 24  1  6  0  0  0
 36 37  1  0  0  0  0
 37 38  1  0  0  0  0
 37 41  1  6  0  0  0
 38 42  1  1  0  0  0
M  CHG  6  14   1  20   1  26   1  32   1  39   1  40   1
M  END
>  <CHROM.1>
48.72173021,173.09982156,174.93674782,58.98113055,-102.87801921,65.02656015
147.86066295,72.44699174,85.37122822,-176.28169552,33.70563359,66.78830071
153.10743148,-72.40984452,75.08921189,-166.39059674,-111.45097994,63.58083696
64.08601969,163.15469864,-61.91813558,68.26504048,-3.55310347,-5.06196907
1.30132227,-1.46581289,1.02189746,3.06237409

>  <Name>


>  <RI>
0

>  <Rbt.Current_Directory>
/home/itssahil/PROJECTS/Mol_Feturizer/New_Systems/rnas/1qd3

>  <Rbt.Executable>
rbdock ($Id: //depot/dev/client3/rdock/2013.1/src/exe/rbdock.cxx#4 $)

>  <Rbt.Library>
libRbt.so (2013.1, Build901 2013/11/27)

>  <Rbt.Parameter_File>
/export/apps/rDock/src/rDock_2013.1_src/data/scripts/dock_solv.prm

>  <Rbt.Receptor>
prm/blind_docking_60.prm

>  <SCORE>
-56.8417

>  <SCORE.INTER>
-44.0037

>  <SCORE.INTER.CONST>
1

>  <SCORE.INTER.POLAR>
-5.07666

>  <SCORE.INTER.ROT>
9

>  <SCORE.INTER.SOLV>
28.2459

>  <SCORE.INTER.VDW>
-31.429

>  <SCORE.INTER.norm>
-1.04771

>  <SCORE.INTRA>
-13.7605

>  <SCORE.INTRA.DIHEDRAL>
-10.6528

>  <SCORE.INTRA.DIHEDRAL.0>
40.6252

>  <SCORE.INTRA.POLAR>
-2.3762

>  <SCORE.INTRA.POLAR.0>
-1.20161

>  <SCORE.INTRA.REPUL>
-0.115675

>  <SCORE.INTRA.REPUL.0>
0.115675

>  <SCORE.INTRA.SOLV>
3.41154

>  <SCORE.INTRA.SOLV.lig_0>
-154.895

>  <SCORE.INTRA.VDW>
-1.48244

>  <SCORE.INTRA.VDW.0>
2.2925

>  <SCORE.INTRA.norm>
-0.327632

>  <SCORE.RESTR>
0.922591

>  <SCORE.RESTR.CAVITY>
0.922591

>  <SCORE.RESTR.norm>
0.0219665

>  <SCORE.SYSTEM>
0

>  <SCORE.SYSTEM.CONST>
0

>  <SCORE.SYSTEM.DIHEDRAL>
0

>  <SCORE.SYSTEM.SOLV>
0

>  <SCORE.SYSTEM.norm>
0

>  <SCORE.heavy>
42

>  <SCORE.norm>
-1.35337

>  <RMSD>
14.959

$$$$

 OpenBabel11021811413D
libRbt.so/2013.1/901 2013/11/27
 42 45  0  0  0  0  0  0  0  0999 V2000
   -1.5234   -2.7391    4.3640 O   0  0  0  0  0  0  0  0  0  0  0  0
   -2.1914   -2.2555    3.2074 C   0  0  0  0  0  0  0  0  0  0  0  0
   -3.5216   -2.9894    3.0331 C   0  0  1  0  0  0  0  0  0  0  0  0
   -4.2236   -2.5316    1.8570 O   0  0  0  0  0  0  0  0  0  0  0  0
   -3.3643   -4.4912    2.8618 C   0  0  2  0  0  0  0  0  0  0  0  0
   -4.7022   -4.8398    2.2314 C   0  0  1  0  0  0  0  0  0  0  0  0
   -5.7155   -4.8543    3.2308 O   0  0  0  0  0  0  0  0  0  0  0  0
   -4.9300   -3.6545    1.2713 C   0  0  2  0  0  0  0  0  0  0  0  0
   -2.8460   -8.6130    3.0047 C   0  0  2  0  0  0  0  0  0  0  0  0
   -2.5554   -7.2131    3.1363 O   0  0  0  0  0  0  0  0  0  0  0  0
   -3.4449   -6.5642    4.0628 C   0  0  2  0  0  0  0  0  0  0  0  0
   -3.1638   -5.1505    4.1276 O   0  0  0  0  0  0  0  0  0  0  0  0
   -3.3288   -7.1964    5.4604 C   0  0  2  0  0  0  0  0  0  0  0  0
   -2.1194   -6.7513    6.1280 N   0  3  0  0  0  0  0  0  0  0  0  0
   -3.3946   -8.7280    5.4331 C   0  0  1  0  0  0  0  0  0  0  0  0
   -4.7428   -9.1386    5.2704 O   0  0  0  0  0  0  0  0  0  0  0  0
   -2.5408   -9.3238    4.3170 C   0  0  2  0  0  0  0  0  0  0  0  0
   -1.1609   -9.1898    4.6372 O   0  0  0  0  0  0  0  0  0  0  0  0
   -2.0456   -9.2229    1.8575 C   0  0  0  0  0  0  0  0  0  0  0  0
   -2.4165  -10.6121    1.6634 N   0  3  0  0  0  0  0  0  0  0  0  0
   -6.2348   -6.2199   -1.4959 C   0  0  1  0  0  0  0  0  0  0  0  0
   -5.2021   -5.3281   -1.9652 O   0  0  0  0  0  0  0  0  0  0  0  0
   -5.7043   -4.2589   -2.7995 C   0  0  2  0  0  0  0  0  0  0  0  0
   -6.5616   -3.3519   -2.0631 O   0  0  0  0  0  0  0  0  0  0  0  0
   -6.4252   -4.8255   -4.0287 C   0  0  2  0  0  0  0  0  0  0  0  0
   -7.1023   -3.7584   -4.7416 N   0  3  0  0  0  0  0  0  0  0  0  0
   -7.4416   -5.8951   -3.6445 C   0  0  1  0  0  0  0  0  0  0  0  0
   -7.9083   -6.5525   -4.8125 O   0  0  0  0  0  0  0  0  0  0  0  0
   -6.8894   -6.9260   -2.6720 C   0  0  2  0  0  0  0  0  0  0  0  0
   -7.9292   -7.7763   -2.2111 O   0  0  0  0  0  0  0  0  0  0  0  0
   -5.6296   -7.2900   -0.5918 C   0  0  0  0  0  0  0  0  0  0  0  0
   -4.9723   -8.3168   -1.3795 N   0  3  0  0  0  0  0  0  0  0  0  0
   -3.4166   -0.5674   -1.3885 C   0  0  2  0  0  0  0  0  0  0  0  0
   -4.8372   -0.0400   -1.4325 C   0  0  0  0  0  0  0  0  0  0  0  0
   -5.7634   -1.0599   -2.0687 C   0  0  1  0  0  0  0  0  0  0  0  0
   -5.8157   -2.3753   -1.2902 C   0  0  2  0  0  0  0  0  0  0  0  0
   -4.3919   -2.9059   -1.0039 C   0  0  1  0  0  0  0  0  0  0  0  0
   -3.3467   -1.8618   -0.5895 C   0  0  1  0  0  0  0  0  0  0  0  0
   -2.5520    0.4270   -0.7823 N   0  3  0  0  0  0  0  0  0  0  0  0
   -7.0889   -0.4841   -2.1861 N   0  3  0  0  0  0  0  0  0  0  0  0
   -4.4124   -3.9937   -0.0472 O   0  0  0  0  0  0  0  0  0  0  0  0
   -2.0409   -2.4198   -0.6927 O   0  0  0  0  0  0  0  0  0  0  0  0
  1  2  1  0  0  0  0
  3  2  1  6  0  0  0
  3  4  1  0  0  0  0
  3  5  1  0  0  0  0
  4  8  1  0  0  0  0
  5  6  1  0  0  0  0
  5 12  1  1  0  0  0
  6  7  1  1  0  0  0
  6  8  1  0  0  0  0
  8 41  1  6  0  0  0
  9 10  1  0  0  0  0
  9 17  1  0  0  0  0
  9 19  1  6  0  0  0
 10 11  1  0  0  0  0
 11 12  1  1  0  0  0
 11 13  1  0  0  0  0
 13 14  1  6  0  0  0
 13 15  1  0  0  0  0
 15 16  1  6  0  0  0
 15 17  1  0  0  0  0
 17 18  1  1  0  0  0
 19 20  1  0  0  0  0
 21 22  1  0  0  0  0
 21 29  1  0  0  0  0
 21 31  1  1  0  0  0
 22 23  1  0  0  0  0
 23 24  1  1  0  0  0
 23 25  1  0  0  0  0
 25 26  1  1  0  0  0
 25 27  1  0  0  0  0
 27 28  1  6  0  0  0
 27 29  1  0  0  0  0
 29 30  1  1  0  0  0
 31 32  1  0  0  0  0
 33 34  1  0  0  0  0
 33 38  1  0  0  0  0
 33 39  1  1  0  0  0
 34 35  1  0  0  0  0
 35 36  1  0  0  0  0
 35 40  1  1  0  0  0
 36 24  1  6  0  0  0
 36 37  1  0  0  0  0
 37 38  1  0  0  0  0
 37 41  1  1  0  0  0
 38 42  1  6  0  0  0
M  CHG  6  14   1  20   1  26   1  32   1  39   1  40   1
M  END
>  <CHROM.1>
45.92326954,-179.44142439,161.02265314,-177.35612695,-54.98633322,-175.71610568
61.96432677,-167.51333558,-57.01274441,43.81649297,-178.69682103,-77.86983511
81.01121827,98.79778119,-174.15008455,62.68737285,-177.88879436,38.79056137
55.44213999,71.81427572,-61.85815548,-53.74698411,-4.41134430,-5.07192691
0.65089979,-0.78927631,-1.02906441,-0.28823929

>  <Name>


>  <RI>
0

>  <Rbt.Current_Directory>
/home/itssahil/PROJECTS/Mol_Feturizer/New_Systems/rnas/1qd3

>  <Rbt.Executable>
rbdock ($Id: //depot/dev/client3/rdock/2013.1/src/exe/rbdock.cxx#4 $)

>  <Rbt.Library>
libRbt.so (2013.1, Build901 2013/11/27)

>  <Rbt.Parameter_File>
/export/apps/rDock/src/rDock_2013.1_src/data/scripts/dock_solv.prm

>  <Rbt.Receptor>
prm/blind_docking_100.prm

>  <SCORE>
-49.1389

>  <SCORE.INTER>
-34.0915

>  <SCORE.INTER.CONST>
1

>  <SCORE.INTER.POLAR>
-4.03286

>  <SCORE.INTER.ROT>
9

>  <SCORE.INTER.SOLV>
22.018

>  <SCORE.INTER.VDW>
-26.2242

>  <SCORE.INTER.norm>
-0.811703

>  <SCORE.INTRA>
-17.4594

>  <SCORE.INTRA.DIHEDRAL>
-24.2272

>  <SCORE.INTRA.DIHEDRAL.0>
40.6252

>  <SCORE.INTRA.POLAR>
0.549998

>  <SCORE.INTRA.POLAR.0>
-1.20161

>  <SCORE.INTRA.REPUL>
-0.115675

>  <SCORE.INTRA.REPUL.0>
0.115675

>  <SCORE.INTRA.SOLV>
-9.95845

>  <SCORE.INTRA.SOLV.lig_0>
-154.895

>  <SCORE.INTRA.VDW>
-1.65815

>  <SCORE.INTRA.VDW.0>
2.2925

>  <SCORE.INTRA.norm>
-0.415699

>  <SCORE.RESTR>
2.41199

>  <SCORE.RESTR.CAVITY>
2.41199

>  <SCORE.RESTR.norm>
0.0574284

>  <SCORE.SYSTEM>
0

>  <SCORE.SYSTEM.CONST>
0

>  <SCORE.SYSTEM.DIHEDRAL>
0

>  <SCORE.SYSTEM.SOLV>
0

>  <SCORE.SYSTEM.norm>
0

>  <SCORE.heavy>
42

>  <SCORE.norm>
-1.16997

>  <RMSD>
14.962

$$$$

 OpenBabel11021811413D
libRbt.so/2013.1/901 2013/11/27
 42 45  0  0  0  0  0  0  0  0999 V2000
   -3.7546    0.4381    1.2581 O   0  0  0  0  0  0  0  0  0  0  0  0
   -3.2691   -0.8439    1.6301 C   0  0  0  0  0  0  0  0  0  0  0  0
   -4.3940   -1.8742    1.5240 C   0  0  1  0  0  0  0  0  0  0  0  0
   -4.7906   -2.0791    0.1506 O   0  0  0  0  0  0  0  0  0  0  0  0
   -4.0075   -3.2461    2.0514 C   0  0  2  0  0  0  0  0  0  0  0  0
   -5.0606   -4.1091    1.3767 C   0  0  1  0  0  0  0  0  0  0  0  0
   -6.3029   -3.9722    2.0577 O   0  0  0  0  0  0  0  0  0  0  0  0
   -5.1577   -3.4711   -0.0241 C   0  0  2  0  0  0  0  0  0  0  0  0
   -1.6502   -4.0559    6.1045 C   0  0  2  0  0  0  0  0  0  0  0  0
   -2.8497   -3.5596    5.4911 O   0  0  0  0  0  0  0  0  0  0  0  0
   -2.9007   -3.8648    4.0857 C   0  0  2  0  0  0  0  0  0  0  0  0
   -4.0881   -3.3028    3.4892 O   0  0  0  0  0  0  0  0  0  0  0  0
   -2.8573   -5.3856    3.8584 C   0  0  2  0  0  0  0  0  0  0  0  0
   -4.1441   -5.9875    4.1556 N   0  3  0  0  0  0  0  0  0  0  0  0
   -1.7438   -6.0790    4.6521 C   0  0  1  0  0  0  0  0  0  0  0  0
   -0.5000   -5.8649    4.0040 O   0  0  0  0  0  0  0  0  0  0  0  0
   -1.6624   -5.5791    6.0919 C   0  0  2  0  0  0  0  0  0  0  0  0
   -2.7714   -6.0662    6.8384 O   0  0  0  0  0  0  0  0  0  0  0  0
   -1.5154   -3.5254    7.5290 C   0  0  0  0  0  0  0  0  0  0  0  0
   -0.1171   -3.4280    7.9032 N   0  3  0  0  0  0  0  0  0  0  0  0
   -3.1200   -8.9433    1.8048 C   0  0  1  0  0  0  0  0  0  0  0  0
   -4.0624   -7.8741    2.0301 O   0  0  0  0  0  0  0  0  0  0  0  0
   -3.8748   -6.7485    1.1418 C   0  0  2  0  0  0  0  0  0  0  0  0
   -4.1488   -7.0939   -0.2385 O   0  0  0  0  0  0  0  0  0  0  0  0
   -2.4642   -6.1672    1.2967 C   0  0  2  0  0  0  0  0  0  0  0  0
   -2.2176   -5.1823    0.2599 N   0  3  0  0  0  0  0  0  0  0  0  0
   -1.3948   -7.2514    1.2223 C   0  0  1  0  0  0  0  0  0  0  0  0
   -0.1389   -6.7111    1.6029 O   0  0  0  0  0  0  0  0  0  0  0  0
   -1.7065   -8.4621    2.0885 C   0  0  2  0  0  0  0  0  0  0  0  0
   -0.7772   -9.5048    1.8320 O   0  0  0  0  0  0  0  0  0  0  0  0
   -3.4123  -10.1050    2.7502 C   0  0  0  0  0  0  0  0  0  0  0  0
   -3.6193   -9.6260    4.1046 N   0  3  0  0  0  0  0  0  0  0  0  0
   -6.7453   -5.7612   -3.3339 C   0  0  2  0  0  0  0  0  0  0  0  0
   -7.3017   -6.7234   -2.3030 C   0  0  0  0  0  0  0  0  0  0  0  0
   -6.1749   -7.3952   -1.5403 C   0  0  1  0  0  0  0  0  0  0  0  0
   -5.3048   -6.3979   -0.7739 C   0  0  2  0  0  0  0  0  0  0  0  0
   -4.8453   -5.2433   -1.6939 C   0  0  1  0  0  0  0  0  0  0  0  0
   -5.8946   -4.6890   -2.6666 C   0  0  1  0  0  0  0  0  0  0  0  0
   -7.8407   -5.1376   -4.0517 N   0  3  0  0  0  0  0  0  0  0  0  0
   -6.7385   -8.3793   -0.6369 N   0  3  0  0  0  0  0  0  0  0  0  0
   -4.2534   -4.1613   -0.9337 O   0  0  0  0  0  0  0  0  0  0  0  0
   -5.2574   -3.8938   -3.6610 O   0  0  0  0  0  0  0  0  0  0  0  0
  1  2  1  0  0  0  0
  3  2  1  6  0  0  0
  3  4  1  0  0  0  0
  3  5  1  0  0  0  0
  4  8  1  0  0  0  0
  5  6  1  0  0  0  0
  5 12  1  1  0  0  0
  6  7  1  1  0  0  0
  6  8  1  0  0  0  0
  8 41  1  6  0  0  0
  9 10  1  0  0  0  0
  9 17  1  0  0  0  0
  9 19  1  1  0  0  0
 10 11  1  0  0  0  0
 11 12  1  1  0  0  0
 11 13  1  0  0  0  0
 13 14  1  1  0  0  0
 13 15  1  0  0  0  0
 15 16  1  6  0  0  0
 15 17  1  0  0  0  0
 17 18  1  1  0  0  0
 19 20  1  0  0  0  0
 21 22  1  0  0  0  0
 21 29  1  0  0  0  0
 21 31  1  1  0  0  0
 22 23  1  0  0  0  0
 23 24  1  6  0  0  0
 23 25  1  0  0  0  0
 25 26  1  6  0  0  0
 25 27  1  0  0  0  0
 27 28  1  1  0  0  0
 27 29  1  0  0  0  0
 29 30  1  6  0  0  0
 31 32  1  0  0  0  0
 33 34  1  0  0  0  0
 33 38  1  0  0  0  0
 33 39  1  1  0  0  0
 34 35  1  0  0  0  0
 35 36  1  0  0  0  0
 35 40  1  1  0  0  0
 36 24  1  6  0  0  0
 36 37  1  0  0  0  0
 37 38  1  0  0  0  0
 37 41  1  1  0  0  0
 38 42  1  6  0  0  0
M  CHG  6  14   1  20   1  26   1  32   1  39   1  40   1
M  END
>  <CHROM.1>
56.46067721,67.32545172,-131.01482613,66.31456355,-149.67937235,-151.29796546
163.55268460,58.50560857,-47.03141592,-179.52726621,-58.30649866,-46.51786778
114.25047688,-134.80804769,39.26131961,167.21965808,-62.64716828,-176.21274048
-62.49830917,72.26894986,-64.70638225,70.41192748,-3.67859418,-5.41154713
1.75078674,2.92194348,1.04198170,-2.90508394

>  <Name>


>  <RI>
0

>  <Rbt.Current_Directory>
/home/itssahil/PROJECTS/Mol_Feturizer/New_Systems/rnas/1qd3

>  <Rbt.Executable>
rbdock ($Id: //depot/dev/client3/rdock/2013.1/src/exe/rbdock.cxx#4 $)

>  <Rbt.Library>
libRbt.so (2013.1, Build901 2013/11/27)

>  <Rbt.Parameter_File>
/export/apps/rDock/src/rDock_2013.1_src/data/scripts/dock_solv.prm

>  <Rbt.Receptor>
prm/blind_docking_40.prm

>  <SCORE>
-40.1961

>  <SCORE.INTER>
-25.3556

>  <SCORE.INTER.CONST>
1

>  <SCORE.INTER.POLAR>
-3.70484

>  <SCORE.INTER.ROT>
9

>  <SCORE.INTER.SOLV>
24.6328

>  <SCORE.INTER.VDW>
-22.3652

>  <SCORE.INTER.norm>
-0.603706

>  <SCORE.INTRA>
-16.9758

>  <SCORE.INTRA.DIHEDRAL>
-6.71683

>  <SCORE.INTRA.DIHEDRAL.0>
40.6252

>  <SCORE.INTRA.POLAR>
-1.62673

>  <SCORE.INTRA.POLAR.0>
-1.20161

>  <SCORE.INTRA.REPUL>
-0.0758399

>  <SCORE.INTRA.REPUL.0>
0.115675

>  <SCORE.INTRA.SOLV>
2.39995

>  <SCORE.INTRA.SOLV.lig_0>
-154.895

>  <SCORE.INTRA.VDW>
-8.90725

>  <SCORE.INTRA.VDW.0>
2.2925

>  <SCORE.INTRA.norm>
-0.404185

>  <SCORE.RESTR>
2.13535

>  <SCORE.RESTR.CAVITY>
2.13535

>  <SCORE.RESTR.norm>
0.0508418

>  <SCORE.SYSTEM>
0

>  <SCORE.SYSTEM.CONST>
0

>  <SCORE.SYSTEM.DIHEDRAL>
0

>  <SCORE.SYSTEM.SOLV>
0

>  <SCORE.SYSTEM.norm>
0

>  <SCORE.heavy>
42

>  <SCORE.norm>
-0.957049

>  <RMSD>
14.964

$$$$

 OpenBabel11021811413D
libRbt.so/2013.1/901 2013/11/27
 42 45  0  0  0  0  0  0  0  0999 V2000
   -4.0016   -2.2116   -3.1763 O   0  0  0  0  0  0  0  0  0  0  0  0
   -3.8889   -3.4480   -2.4861 C   0  0  0  0  0  0  0  0  0  0  0  0
   -5.2391   -3.8244   -1.8747 C   0  0  1  0  0  0  0  0  0  0  0  0
   -5.4733   -5.2472   -1.9546 O   0  0  0  0  0  0  0  0  0  0  0  0
   -5.3546   -3.4689   -0.4017 C   0  0  2  0  0  0  0  0  0  0  0  0
   -6.5045   -4.3719    0.0119 C   0  0  1  0  0  0  0  0  0  0  0  0
   -7.7372   -3.8135   -0.4291 O   0  0  0  0  0  0  0  0  0  0  0  0
   -6.2039   -5.6646   -0.7736 C   0  0  2  0  0  0  0  0  0  0  0  0
   -3.6019    0.8190    0.6594 C   0  0  2  0  0  0  0  0  0  0  0  0
   -4.7503   -0.0402    0.5934 O   0  0  0  0  0  0  0  0  0  0  0  0
   -4.4695   -1.2593   -0.1177 C   0  0  2  0  0  0  0  0  0  0  0  0
   -5.6574   -2.0721   -0.2161 O   0  0  0  0  0  0  0  0  0  0  0  0
   -3.3413   -2.0437    0.5739 C   0  0  2  0  0  0  0  0  0  0  0  0
   -3.8341   -2.7131    1.7636 N   0  3  0  0  0  0  0  0  0  0  0  0
   -2.1255   -1.1729    0.9121 C   0  0  1  0  0  0  0  0  0  0  0  0
   -1.3622   -0.9529   -0.2634 O   0  0  0  0  0  0  0  0  0  0  0  0
   -2.5261    0.1686    1.5198 C   0  0  2  0  0  0  0  0  0  0  0  0
   -3.0080   -0.0230    2.8448 O   0  0  0  0  0  0  0  0  0  0  0  0
   -3.9858    2.1884    1.2127 C   0  0  0  0  0  0  0  0  0  0  0  0
   -4.6453    2.9806    0.1917 N   0  3  0  0  0  0  0  0  0  0  0  0
   -3.9130   -7.6046    3.2279 C   0  0  1  0  0  0  0  0  0  0  0  0
   -4.0869   -6.6508    2.1592 O   0  0  0  0  0  0  0  0  0  0  0  0
   -2.9359   -6.5490    1.2895 C   0  0  2  0  0  0  0  0  0  0  0  0
   -2.7013   -7.7744    0.5527 O   0  0  0  0  0  0  0  0  0  0  0  0
   -1.6920   -6.1358    2.0856 C   0  0  2  0  0  0  0  0  0  0  0  0
   -0.5108   -6.2419    1.2493 N   0  3  0  0  0  0  0  0  0  0  0  0
   -1.5047   -6.9979    3.3290 C   0  0  1  0  0  0  0  0  0  0  0  0
   -0.4933   -6.4370    4.1516 O   0  0  0  0  0  0  0  0  0  0  0  0
   -2.7800   -7.1653    4.1409 C   0  0  2  0  0  0  0  0  0  0  0  0
   -2.5868   -8.1230    5.1715 O   0  0  0  0  0  0  0  0  0  0  0  0
   -5.1830   -7.6822    4.0704 C   0  0  0  0  0  0  0  0  0  0  0  0
   -5.0855   -8.7484    5.0504 N   0  3  0  0  0  0  0  0  0  0  0  0
   -5.5117   -9.8479   -1.8767 C   0  0  2  0  0  0  0  0  0  0  0  0
   -4.7747  -10.6348   -0.8110 C   0  0  0  0  0  0  0  0  0  0  0  0
   -3.5574   -9.8670   -0.3298 C   0  0  1  0  0  0  0  0  0  0  0  0
   -3.9201   -8.5219    0.3010 C   0  0  2  0  0  0  0  0  0  0  0  0
   -4.8543   -7.7099   -0.6258 C   0  0  1  0  0  0  0  0  0  0  0  0
   -5.9634   -8.4985   -1.3346 C   0  0  1  0  0  0  0  0  0  0  0  0
   -6.6657  -10.6049   -2.3230 N   0  3  0  0  0  0  0  0  0  0  0  0
   -2.8230  -10.6898    0.6114 N   0  3  0  0  0  0  0  0  0  0  0  0
   -5.4199   -6.5659    0.0598 O   0  0  0  0  0  0  0  0  0  0  0  0
   -6.5117   -7.7162   -2.3902 O   0  0  0  0  0  0  0  0  0  0  0  0
  1  2  1  0  0  0  0
  3  2  1  1  0  0  0
  3  4  1  0  0  0  0
  3  5  1  0  0  0  0
  4  8  1  0  0  0  0
  5  6  1  0  0  0  0
  5 12  1  6  0  0  0
  6  7  1  6  0  0  0
  6  8  1  0  0  0  0
  8 41  1  1  0  0  0
  9 10  1  0  0  0  0
  9 17  1  0  0  0  0
  9 19  1  1  0  0  0
 10 11  1  0  0  0  0
 11 12  1  1  0  0  0
 11 13  1  0  0  0  0
 13 14  1  1  0  0  0
 13 15  1  0  0  0  0
 15 16  1  6  0  0  0
 15 17  1  0  0  0  0
 17 18  1  1  0  0  0
 19 20  1  0  0  0  0
 21 22  1  0  0  0  0
 21 29  1  0  0  0  0
 21 31  1  1  0  0  0
 22 23  1  0  0  0  0
 23 24  1  1  0  0  0
 23 25  1  0  0  0  0
 25 26  1  6  0  0  0
 25 27  1  0  0  0  0
 27 28  1  1  0  0  0
 27 29  1  0  0  0  0
 29 30  1  1  0  0  0
 31 32  1  0  0  0  0
 33 34  1  0  0  0  0
 33 38  1  0  0  0  0
 33 39  1  1  0  0  0
 34 35  1  0  0  0  0
 35 36  1  0  0  0  0
 35 40  1  1  0  0  0
 36 24  1  6  0  0  0
 36 37  1  0  0  0  0
 37 38  1  0  0  0  0
 37 41  1  1  0  0  0
 38 42  1  6  0  0  0
M  CHG  6  14   1  20   1  26   1  32   1  39   1  40   1
M  END
>  <CHROM.1>
87.02507960,142.42102748,-89.66826117,-48.00474753,-52.16251341,-77.33456565
-156.17818298,-85.77250752,-85.53900700,175.92932456,-100.21386289,173.19304684
29.24597040,-173.39709147,91.87473037,67.59695197,66.62126452,50.88713323
60.58430061,-35.70036057,173.93504781,-74.04601153,-4.06859063,-5.05619767
0.64536473,1.48797769,-0.98179982,-0.11649258

>  <Name>


>  <RI>
0

>  <Rbt.Current_Directory>
/home/itssahil/PROJECTS/Mol_Feturizer/New_Systems/rnas/1qd3

>  <Rbt.Executable>
rbdock ($Id: //depot/dev/client3/rdock/2013.1/src/exe/rbdock.cxx#4 $)

>  <Rbt.Library>
libRbt.so (2013.1, Build901 2013/11/27)

>  <Rbt.Parameter_File>
/export/apps/rDock/src/rDock_2013.1_src/data/scripts/dock_solv.prm

>  <Rbt.Receptor>
prm/blind_docking_100.prm

>  <SCORE>
-65.6125

>  <SCORE.INTER>
-56.3628

>  <SCORE.INTER.CONST>
1

>  <SCORE.INTER.POLAR>
-8.65349

>  <SCORE.INTER.ROT>
9

>  <SCORE.INTER.SOLV>
30.551

>  <SCORE.INTER.VDW>
-28.5139

>  <SCORE.INTER.norm>
-1.34197

>  <SCORE.INTRA>
-9.71477

>  <SCORE.INTRA.DIHEDRAL>
-9.16897

>  <SCORE.INTRA.DIHEDRAL.0>
40.6252

>  <SCORE.INTRA.POLAR>
0.315207

>  <SCORE.INTRA.POLAR.0>
-1.20161

>  <SCORE.INTRA.REPUL>
0.045453

>  <SCORE.INTRA.REPUL.0>
0.115675

>  <SCORE.INTRA.SOLV>
-9.23072

>  <SCORE.INTRA.SOLV.lig_0>
-154.895

>  <SCORE.INTRA.VDW>
-1.81389

>  <SCORE.INTRA.VDW.0>
2.2925

>  <SCORE.INTRA.norm>
-0.231304

>  <SCORE.RESTR>
0.465038

>  <SCORE.RESTR.CAVITY>
0.465038

>  <SCORE.RESTR.norm>
0.0110723

>  <SCORE.SYSTEM>
0

>  <SCORE.SYSTEM.CONST>
0

>  <SCORE.SYSTEM.DIHEDRAL>
0

>  <SCORE.SYSTEM.SOLV>
0

>  <SCORE.SYSTEM.norm>
0

>  <SCORE.heavy>
42

>  <SCORE.norm>
-1.5622

>  <RMSD>
14.968

$$$$

 OpenBabel11021811413D
libRbt.so/2013.1/901 2013/11/27
 42 45  0  0  0  0  0  0  0  0999 V2000
   -2.1451    0.0185    1.6697 O   0  0  0  0  0  0  0  0  0  0  0  0
   -2.3830   -1.2512    2.2604 C   0  0  0  0  0  0  0  0  0  0  0  0
   -2.0590   -2.3582    1.2564 C   0  0  1  0  0  0  0  0  0  0  0  0
   -1.8619   -3.6264    1.9185 O   0  0  0  0  0  0  0  0  0  0  0  0
   -3.1626   -2.5910    0.2379 C   0  0  2  0  0  0  0  0  0  0  0  0
   -2.8044   -3.9867   -0.2445 C   0  0  1  0  0  0  0  0  0  0  0  0
   -1.7064   -3.9163   -1.1474 O   0  0  0  0  0  0  0  0  0  0  0  0
   -2.3660   -4.6814    1.0607 C   0  0  2  0  0  0  0  0  0  0  0  0
   -6.3066   -2.3463   -2.4536 C   0  0  2  0  0  0  0  0  0  0  0  0
   -5.3831   -1.9773   -1.4179 O   0  0  0  0  0  0  0  0  0  0  0  0
   -4.0274   -1.9307   -1.8981 C   0  0  2  0  0  0  0  0  0  0  0  0
   -3.1204   -1.6148   -0.8214 O   0  0  0  0  0  0  0  0  0  0  0  0
   -3.8884   -0.9015   -3.0329 C   0  0  2  0  0  0  0  0  0  0  0  0
   -3.8715    0.4496   -2.5033 N   0  3  0  0  0  0  0  0  0  0  0  0
   -4.9727   -1.0437   -4.1075 C   0  0  1  0  0  0  0  0  0  0  0  0
   -4.6575   -2.1389   -4.9526 O   0  0  0  0  0  0  0  0  0  0  0  0
   -6.3607   -1.2458   -3.5055 C   0  0  2  0  0  0  0  0  0  0  0  0
   -6.8180   -0.0317   -2.9213 O   0  0  0  0  0  0  0  0  0  0  0  0
   -7.6921   -2.6088   -1.8703 C   0  0  0  0  0  0  0  0  0  0  0  0
   -7.6277   -3.6478   -0.8596 N   0  3  0  0  0  0  0  0  0  0  0  0
   -4.1799  -11.0816    0.2166 C   0  0  1  0  0  0  0  0  0  0  0  0
   -2.9100  -10.4171    0.0496 O   0  0  0  0  0  0  0  0  0  0  0  0
   -3.0344   -8.9980   -0.1996 C   0  0  2  0  0  0  0  0  0  0  0  0
   -3.5861   -8.2926    0.9396 O   0  0  0  0  0  0  0  0  0  0  0  0
   -3.8645   -8.7420   -1.4633 C   0  0  2  0  0  0  0  0  0  0  0  0
   -4.1589   -7.3262   -1.5843 N   0  3  0  0  0  0  0  0  0  0  0  0
   -5.1719   -9.5262   -1.4492 C   0  0  1  0  0  0  0  0  0  0  0  0
   -5.7902   -9.4478   -2.7243 O   0  0  0  0  0  0  0  0  0  0  0  0
   -4.9916  -10.9867   -1.0650 C   0  0  2  0  0  0  0  0  0  0  0  0
   -6.2551  -11.6101   -0.8875 O   0  0  0  0  0  0  0  0  0  0  0  0
   -3.9595  -12.5615    0.5167 C   0  0  0  0  0  0  0  0  0  0  0  0
   -3.4936  -12.7460    1.8789 N   0  3  0  0  0  0  0  0  0  0  0  0
   -1.7868   -7.0688    4.5953 C   0  0  2  0  0  0  0  0  0  0  0  0
   -1.0393   -8.0668    3.7330 C   0  0  0  0  0  0  0  0  0  0  0  0
   -1.9711   -8.6864    2.7080 C   0  0  1  0  0  0  0  0  0  0  0  0
   -2.5677   -7.6523    1.7522 C   0  0  2  0  0  0  0  0  0  0  0  0
   -3.1837   -6.4680    2.5324 C   0  0  1  0  0  0  0  0  0  0  0  0
   -2.3857   -5.9600    3.7406 C   0  0  1  0  0  0  0  0  0  0  0  0
   -0.8766   -6.4962    5.5688 N   0  3  0  0  0  0  0  0  0  0  0  0
   -1.2498   -9.7055    1.9707 N   0  3  0  0  0  0  0  0  0  0  0  0
   -3.5085   -5.3635    1.6530 O   0  0  0  0  0  0  0  0  0  0  0  0
   -3.2107   -5.1251    4.5465 O   0  0  0  0  0  0  0  0  0  0  0  0
  1  2  1  0  0  0  0
  3  2  1  1  0  0  0
  3  4  1  0  0  0  0
  3  5  1  0  0  0  0
  4  8  1  0  0  0  0
  5  6  1  0  0  0  0
  5 12  1  6  0  0  0
  6  7  1  6  0  0  0
  6  8  1  0  0  0  0
  8 41  1  1  0  0  0
  9 10  1  0  0  0  0
  9 17  1  0  0  0  0
  9 19  1  1  0  0  0
 10 11  1  0  0  0  0
 11 12  1  1  0  0  0
 11 13  1  0  0  0  0
 13 14  1  1  0  0  0
 13 15  1  0  0  0  0
 15 16  1  6  0  0  0
 15 17  1  0  0  0  0
 17 18  1  1  0  0  0
 19 20  1  0  0  0  0
 21 22  1  0  0  0  0
 21 29  1  0  0  0  0
 21 31  1  6  0  0  0
 22 23  1  0  0  0  0
 23 24  1  1  0  0  0
 23 25  1  0  0  0  0
 25 26  1  1  0  0  0
 25 27  1  0  0  0  0
 27 28  1  6  0  0  0
 27 29  1  0  0  0  0
 29 30  1  1  0  0  0
 31 32  1  0  0  0  0
 33 34  1  0  0  0  0
 33 38  1  0  0  0  0
 33 39  1  1  0  0  0
 34 35  1  0  0  0  0
 35 36  1  0  0  0  0
 35 40  1  6  0  0  0
 36 24  1  1  0  0  0
 36 37  1  0  0  0  0
 37 38  1  0  0  0  0
 37 41  1  6  0  0  0
 38 42  1  1  0  0  0
M  CHG  6  14   1  20   1  26   1  32   1  39   1  40   1
M  END
>  <CHROM.1>
172.34525840,161.17777800,171.38217859,53.62641370,-87.12939283,-57.58399165
60.32917700,-167.39553664,65.11051898,-176.95883526,-178.63304420,74.38051170
98.79235368,-82.59054362,169.67751118,-55.83284011,41.81158408,93.51399230
-56.80124316,168.36767584,-67.92259868,-53.21506523,-3.73729126,-5.55156324
0.09082748,-1.83271270,0.98438274,3.01447086

>  <Name>


>  <RI>
0

>  <Rbt.Current_Directory>
/home/itssahil/PROJECTS/Mol_Feturizer/New_Systems/rnas/1qd3

>  <Rbt.Executable>
rbdock ($Id: //depot/dev/client3/rdock/2013.1/src/exe/rbdock.cxx#4 $)

>  <Rbt.Library>
libRbt.so (2013.1, Build901 2013/11/27)

>  <Rbt.Parameter_File>
/export/apps/rDock/src/rDock_2013.1_src/data/scripts/dock_solv.prm

>  <Rbt.Receptor>
prm/blind_docking_20.prm

>  <SCORE>
-65.5888

>  <SCORE.INTER>
-44.073

>  <SCORE.INTER.CONST>
1

>  <SCORE.INTER.POLAR>
-6.56447

>  <SCORE.INTER.ROT>
9

>  <SCORE.INTER.SOLV>
32.9351

>  <SCORE.INTER.VDW>
-28.0788

>  <SCORE.INTER.norm>
-1.04936

>  <SCORE.INTRA>
-22.1051

>  <SCORE.INTRA.DIHEDRAL>
-20.0894

>  <SCORE.INTRA.DIHEDRAL.0>
40.6252

>  <SCORE.INTRA.POLAR>
0.0114393

>  <SCORE.INTRA.POLAR.0>
-1.20161

>  <SCORE.INTRA.REPUL>
-0.107523

>  <SCORE.INTRA.REPUL.0>
0.115675

>  <SCORE.INTRA.SOLV>
-8.73548

>  <SCORE.INTRA.SOLV.lig_0>
-154.895

>  <SCORE.INTRA.VDW>
-7.19393

>  <SCORE.INTRA.VDW.0>
2.2925

>  <SCORE.INTRA.norm>
-0.526311

>  <SCORE.RESTR>
0.589238

>  <SCORE.RESTR.CAVITY>
0.589238

>  <SCORE.RESTR.norm>
0.0140295

>  <SCORE.SYSTEM>
0

>  <SCORE.SYSTEM.CONST>
0

>  <SCORE.SYSTEM.DIHEDRAL>
0

>  <SCORE.SYSTEM.SOLV>
0

>  <SCORE.SYSTEM.norm>
0

>  <SCORE.heavy>
42

>  <SCORE.norm>
-1.56164

>  <RMSD>
14.968

$$$$

 OpenBabel11021811413D
libRbt.so/2013.1/901 2013/11/27
 42 45  0  0  0  0  0  0  0  0999 V2000
   -5.1992   -4.1678   -1.6130 O   0  0  0  0  0  0  0  0  0  0  0  0
   -5.0873   -5.3353   -2.4143 C   0  0  0  0  0  0  0  0  0  0  0  0
   -4.3267   -6.4182   -1.6478 C   0  0  1  0  0  0  0  0  0  0  0  0
   -3.5340   -5.8493   -0.5831 O   0  0  0  0  0  0  0  0  0  0  0  0
   -5.2359   -7.4399   -0.9853 C   0  0  2  0  0  0  0  0  0  0  0  0
   -4.2890   -8.0232    0.0501 C   0  0  1  0  0  0  0  0  0  0  0  0
   -3.3888   -8.9294   -0.5780 O   0  0  0  0  0  0  0  0  0  0  0  0
   -3.5235   -6.7746    0.5334 C   0  0  2  0  0  0  0  0  0  0  0  0
   -9.2197   -8.0175   -2.8088 C   0  0  2  0  0  0  0  0  0  0  0  0
   -7.7925   -7.8818   -2.8867 O   0  0  0  0  0  0  0  0  0  0  0  0
   -7.1240   -8.6322   -1.8568 C   0  0  2  0  0  0  0  0  0  0  0  0
   -5.6976   -8.4279   -1.9275 O   0  0  0  0  0  0  0  0  0  0  0  0
   -7.4556  -10.1298   -1.9743 C   0  0  2  0  0  0  0  0  0  0  0  0
   -6.7127  -10.7377   -3.0628 N   0  3  0  0  0  0  0  0  0  0  0  0
   -8.9565  -10.4012   -2.1307 C   0  0  1  0  0  0  0  0  0  0  0  0
   -9.5917  -10.2766   -0.8683 O   0  0  0  0  0  0  0  0  0  0  0  0
   -9.6146   -9.4533   -3.1297 C   0  0  2  0  0  0  0  0  0  0  0  0
   -9.2131   -9.7876   -4.4532 O   0  0  0  0  0  0  0  0  0  0  0  0
   -9.9056   -7.0401   -3.7591 C   0  0  0  0  0  0  0  0  0  0  0  0
   -9.4670   -7.2676   -5.1232 N   0  3  0  0  0  0  0  0  0  0  0  0
   -2.3220   -9.5074    3.5087 C   0  0  1  0  0  0  0  0  0  0  0  0
   -3.2929   -8.5941    2.9562 O   0  0  0  0  0  0  0  0  0  0  0  0
   -3.7241   -7.5806    3.8934 C   0  0  2  0  0  0  0  0  0  0  0  0
   -2.6474   -6.6802    4.2537 O   0  0  0  0  0  0  0  0  0  0  0  0
   -4.3458   -8.2251    5.1383 C   0  0  2  0  0  0  0  0  0  0  0  0
   -4.5793   -7.2158    6.1545 N   0  3  0  0  0  0  0  0  0  0  0  0
   -3.4529   -9.3186    5.7141 C   0  0  1  0  0  0  0  0  0  0  0  0
   -4.1626  -10.0409    6.7085 O   0  0  0  0  0  0  0  0  0  0  0  0
   -2.9343  -10.2862    4.6615 C   0  0  2  0  0  0  0  0  0  0  0  0
   -1.9670  -11.1587    5.2269 O   0  0  0  0  0  0  0  0  0  0  0  0
   -1.8893  -10.5148    2.4473 C   0  0  0  0  0  0  0  0  0  0  0  0
   -1.7249   -9.8659    1.1594 N   0  3  0  0  0  0  0  0  0  0  0  0
   -2.1613   -3.0234    2.1345 C   0  0  2  0  0  0  0  0  0  0  0  0
   -0.9143   -3.7385    2.6158 C   0  0  0  0  0  0  0  0  0  0  0  0
   -1.2672   -4.7709    3.6704 C   0  0  1  0  0  0  0  0  0  0  0  0
   -2.2091   -5.8543    3.1431 C   0  0  2  0  0  0  0  0  0  0  0  0
   -3.4336   -5.2274    2.4372 C   0  0  1  0  0  0  0  0  0  0  0  0
   -3.1552   -4.0130    1.5415 C   0  0  1  0  0  0  0  0  0  0  0  0
   -1.7964   -2.0397    1.1329 N   0  3  0  0  0  0  0  0  0  0  0  0
   -0.0447   -5.3618    4.1791 N   0  3  0  0  0  0  0  0  0  0  0  0
   -4.1908   -6.2212    1.7038 O   0  0  0  0  0  0  0  0  0  0  0  0
   -4.3764   -3.3455    1.2414 O   0  0  0  0  0  0  0  0  0  0  0  0
  1  2  1  0  0  0  0
  3  2  1  1  0  0  0
  3  4  1  0  0  0  0
  3  5  1  0  0  0  0
  4  8  1  0  0  0  0
  5  6  1  0  0  0  0
  5 12  1  6  0  0  0
  6  7  1  6  0  0  0
  6  8  1  0  0  0  0
  8 41  1  1  0  0  0
  9 10  1  0  0  0  0
  9 17  1  0  0  0  0
  9 19  1  6  0  0  0
 10 11  1  0  0  0  0
 11 12  1  6  0  0  0
 11 13  1  0  0  0  0
 13 14  1  6  0  0  0
 13 15  1  0  0  0  0
 15 16  1  1  0  0  0
 15 17  1  0  0  0  0
 17 18  1  6  0  0  0
 19 20  1  0  0  0  0
 21 22  1  0  0  0  0
 21 29  1  0  0  0  0
 21 31  1  6  0  0  0
 22 23  1  0  0  0  0
 23 24  1  1  0  0  0
 23 25  1  0  0  0  0
 25 26  1  1  0  0  0
 25 27  1  0  0  0  0
 27 28  1  1  0  0  0
 27 29  1  0  0  0  0
 29 30  1  1  0  0  0
 31 32  1  0  0  0  0
 33 34  1  0  0  0  0
 33 38  1  0  0  0  0
 33 39  1  6  0  0  0
 34 35  1  0  0  0  0
 35 36  1  0  0  0  0
 35 40  1  6  0  0  0
 36 24  1  1  0  0  0
 36 37  1  0  0  0  0
 37 38  1  0  0  0  0
 37 41  1  6  0  0  0
 38 42  1  1  0  0  0
M  CHG  6  14   1  20   1  26   1  32   1  39   1  40   1
M  END
>  <CHROM.1>
70.30945999,-20.79289089,-131.34018383,59.15736692,-75.93612004,58.38085836
98.33230656,-143.35879269,-81.37651730,92.23532698,34.86829791,40.54326690
67.10382582,169.62251283,34.56123908,151.10426379,-165.80615228,-172.14015365
-80.84314983,-169.52040068,-68.58114461,149.06781414,-4.66357092,-7.47860932
0.79636388,-2.87187074,0.85677857,2.55642717

>  <Name>


>  <RI>
0

>  <Rbt.Current_Directory>
/home/itssahil/PROJECTS/Mol_Feturizer/New_Systems/rnas/1qd3

>  <Rbt.Executable>
rbdock ($Id: //depot/dev/client3/rdock/2013.1/src/exe/rbdock.cxx#4 $)

>  <Rbt.Library>
libRbt.so (2013.1, Build901 2013/11/27)

>  <Rbt.Parameter_File>
/export/apps/rDock/src/rDock_2013.1_src/data/scripts/dock_solv.prm

>  <Rbt.Receptor>
prm/blind_docking_60.prm

>  <SCORE>
-44.113

>  <SCORE.INTER>
-34.5363

>  <SCORE.INTER.CONST>
1

>  <SCORE.INTER.POLAR>
-5.76738

>  <SCORE.INTER.ROT>
9

>  <SCORE.INTER.SOLV>
27.8881

>  <SCORE.INTER.VDW>
-22.6956

>  <SCORE.INTER.norm>
-0.822293

>  <SCORE.INTRA>
-12.7431

>  <SCORE.INTRA.DIHEDRAL>
-0.767036

>  <SCORE.INTRA.DIHEDRAL.0>
40.6252

>  <SCORE.INTRA.POLAR>
-1.87774

>  <SCORE.INTRA.POLAR.0>
-1.20161

>  <SCORE.INTRA.REPUL>
-0.115675

>  <SCORE.INTRA.REPUL.0>
0.115675

>  <SCORE.INTRA.SOLV>
-4.98023

>  <SCORE.INTRA.SOLV.lig_0>
-154.895

>  <SCORE.INTRA.VDW>
-2.90676

>  <SCORE.INTRA.VDW.0>
2.2925

>  <SCORE.INTRA.norm>
-0.303407

>  <SCORE.RESTR>
3.16646

>  <SCORE.RESTR.CAVITY>
3.16646

>  <SCORE.RESTR.norm>
0.0753919

>  <SCORE.SYSTEM>
0

>  <SCORE.SYSTEM.CONST>
0

>  <SCORE.SYSTEM.DIHEDRAL>
0

>  <SCORE.SYSTEM.SOLV>
0

>  <SCORE.SYSTEM.norm>
0

>  <SCORE.heavy>
42

>  <SCORE.norm>
-1.05031

>  <RMSD>
14.981

$$$$

 OpenBabel11021811413D
libRbt.so/2013.1/901 2013/11/27
 42 45  0  0  0  0  0  0  0  0999 V2000
   -2.7229   -4.5129    5.1030 O   0  0  0  0  0  0  0  0  0  0  0  0
   -1.3919   -4.2292    4.6958 C   0  0  0  0  0  0  0  0  0  0  0  0
   -1.2220   -4.5626    3.2131 C   0  0  1  0  0  0  0  0  0  0  0  0
   -1.5297   -5.9485    2.9479 O   0  0  0  0  0  0  0  0  0  0  0  0
   -2.1348   -3.7557    2.3048 C   0  0  2  0  0  0  0  0  0  0  0  0
   -2.1143   -4.6185    1.0541 C   0  0  1  0  0  0  0  0  0  0  0  0
   -0.8946   -4.4148    0.3493 O   0  0  0  0  0  0  0  0  0  0  0  0
   -2.1490   -6.0446    1.6402 C   0  0  2  0  0  0  0  0  0  0  0  0
   -3.1173    0.7498    1.0907 C   0  0  2  0  0  0  0  0  0  0  0  0
   -2.1273   -0.1786    1.5592 O   0  0  0  0  0  0  0  0  0  0  0  0
   -2.6094   -1.5343    1.5390 C   0  0  2  0  0  0  0  0  0  0  0  0
   -1.6131   -2.4330    2.0694 O   0  0  0  0  0  0  0  0  0  0  0  0
   -2.9981   -1.9510    0.1101 C   0  0  2  0  0  0  0  0  0  0  0  0
   -1.8162   -2.2353   -0.6827 N   0  3  0  0  0  0  0  0  0  0  0  0
   -3.8830   -0.9173   -0.5963 C   0  0  1  0  0  0  0  0  0  0  0  0
   -5.2130   -1.0284   -0.1150 O   0  0  0  0  0  0  0  0  0  0  0  0
   -3.3825    0.5098   -0.3901 C   0  0  2  0  0  0  0  0  0  0  0  0
   -2.1926    0.7204   -1.1412 O   0  0  0  0  0  0  0  0  0  0  0  0
   -2.6659    2.1868    1.3359 C   0  0  0  0  0  0  0  0  0  0  0  0
   -3.6820    3.1205    0.8878 N   0  3  0  0  0  0  0  0  0  0  0  0
   -6.3177   -5.7965   -1.6401 C   0  0  1  0  0  0  0  0  0  0  0  0
   -6.1416   -6.3767   -0.3307 O   0  0  0  0  0  0  0  0  0  0  0  0
   -5.6300   -7.7288   -0.3674 C   0  0  2  0  0  0  0  0  0  0  0  0
   -4.2821   -7.7857   -0.8962 O   0  0  0  0  0  0  0  0  0  0  0  0
   -6.5735   -8.6424   -1.1592 C   0  0  2  0  0  0  0  0  0  0  0  0
   -5.9508   -9.9363   -1.3679 N   0  3  0  0  0  0  0  0  0  0  0  0
   -6.9416   -8.0397   -2.5104 C   0  0  1  0  0  0  0  0  0  0  0  0
   -7.9887   -8.7940   -3.1010 O   0  0  0  0  0  0  0  0  0  0  0  0
   -7.3591   -6.5798   -2.4227 C   0  0  2  0  0  0  0  0  0  0  0  0
   -7.5052   -6.0292   -3.7235 O   0  0  0  0  0  0  0  0  0  0  0  0
   -6.8180   -4.3605   -1.5121 C   0  0  0  0  0  0  0  0  0  0  0  0
   -5.9777   -3.6025   -0.6032 N   0  3  0  0  0  0  0  0  0  0  0  0
   -3.0482  -10.2261    2.3629 C   0  0  2  0  0  0  0  0  0  0  0  0
   -2.4472  -10.5027    0.9989 C   0  0  0  0  0  0  0  0  0  0  0  0
   -3.2709   -9.8392   -0.0893 C   0  0  1  0  0  0  0  0  0  0  0  0
   -3.3255   -8.3179    0.0573 C   0  0  2  0  0  0  0  0  0  0  0  0
   -3.7328   -7.9146    1.4933 C   0  0  1  0  0  0  0  0  0  0  0  0
   -3.1057   -8.7286    2.6329 C   0  0  1  0  0  0  0  0  0  0  0  0
   -2.2469  -10.8750    3.3831 N   0  3  0  0  0  0  0  0  0  0  0  0
   -2.7276  -10.2075   -1.3822 N   0  3  0  0  0  0  0  0  0  0  0  0
   -3.5302   -6.4990    1.7255 O   0  0  0  0  0  0  0  0  0  0  0  0
   -3.8132   -8.4860    3.8444 O   0  0  0  0  0  0  0  0  0  0  0  0
  1  2  1  0  0  0  0
  3  2  1  1  0  0  0
  3  4  1  0  0  0  0
  3  5  1  0  0  0  0
  4  8  1  0  0  0  0
  5  6  1  0  0  0  0
  5 12  1  6  0  0  0
  6  7  1  1  0  0  0
  6  8  1  0  0  0  0
  8 41  1  1  0  0  0
  9 10  1  0  0  0  0
  9 17  1  0  0  0  0
  9 19  1  6  0  0  0
 10 11  1  0  0  0  0
 11 12  1  6  0  0  0
 11 13  1  0  0  0  0
 13 14  1  6  0  0  0
 13 15  1  0  0  0  0
 15 16  1  1  0  0  0
 15 17  1  0  0  0  0
 17 18  1  6  0  0  0
 19 20  1  0  0  0  0
 21 22  1  0  0  0  0
 21 29  1  0  0  0  0
 21 31  1  1  0  0  0
 22 23  1  0  0  0  0
 23 24  1  6  0  0  0
 23 25  1  0  0  0  0
 25 26  1  6  0  0  0
 25 27  1  0  0  0  0
 27 28  1  1  0  0  0
 27 29  1  0  0  0  0
 29 30  1  6  0  0  0
 31 32  1  0  0  0  0
 33 34  1  0  0  0  0
 33 38  1  0  0  0  0
 33 39  1  1  0  0  0
 34 35  1  0  0  0  0
 35 36  1  0  0  0  0
 35 40  1  6  0  0  0
 36 24  1  6  0  0  0
 36 37  1  0  0  0  0
 37 38  1  0  0  0  0
 37 41  1  1  0  0  0
 38 42  1  1  0  0  0
M  CHG  6  14   1  20   1  26   1  32   1  39   1  40   1
M  END
>  <CHROM.1>
62.83138920,-58.21279931,-163.68513572,176.63748441,-97.49782245,-178.74630976
169.03464119,122.00441418,55.51130534,39.29715291,-36.40663591,51.24022266
118.96561455,88.76069629,60.00470401,-170.41050207,-63.24191635,-166.01463309
-61.25786869,-166.97455995,-63.14169095,-164.00542574,-3.76882005,-5.13416528
0.51924297,-1.27881507,0.84117444,3.01691928

>  <Name>


>  <RI>
0

>  <Rbt.Current_Directory>
/home/itssahil/PROJECTS/Mol_Feturizer/New_Systems/rnas/1qd3

>  <Rbt.Executable>
rbdock ($Id: //depot/dev/client3/rdock/2013.1/src/exe/rbdock.cxx#4 $)

>  <Rbt.Library>
libRbt.so (2013.1, Build901 2013/11/27)

>  <Rbt.Parameter_File>
/export/apps/rDock/src/rDock_2013.1_src/data/scripts/dock_solv.prm

>  <Rbt.Receptor>
prm/blind_docking_60.prm

>  <SCORE>
-63.1865

>  <SCORE.INTER>
-55.8649

>  <SCORE.INTER.CONST>
1

>  <SCORE.INTER.POLAR>
-7.45556

>  <SCORE.INTER.ROT>
9

>  <SCORE.INTER.SOLV>
26.9642

>  <SCORE.INTER.VDW>
-30.9795

>  <SCORE.INTER.norm>
-1.33012

>  <SCORE.INTRA>
-8.98005

>  <SCORE.INTRA.DIHEDRAL>
-12.2554

>  <SCORE.INTRA.DIHEDRAL.0>
40.6252

>  <SCORE.INTRA.POLAR>
0.766248

>  <SCORE.INTRA.POLAR.0>
-1.20161

>  <SCORE.INTRA.REPUL>
-0.0916933

>  <SCORE.INTRA.REPUL.0>
0.115675

>  <SCORE.INTRA.SOLV>
1.13686

>  <SCORE.INTRA.SOLV.lig_0>
-154.895

>  <SCORE.INTRA.VDW>
-5.56755

>  <SCORE.INTRA.VDW.0>
2.2925

>  <SCORE.INTRA.norm>
-0.213811

>  <SCORE.RESTR>
1.65843

>  <SCORE.RESTR.CAVITY>
1.65843

>  <SCORE.RESTR.norm>
0.0394864

>  <SCORE.SYSTEM>
0

>  <SCORE.SYSTEM.CONST>
0

>  <SCORE.SYSTEM.DIHEDRAL>
0

>  <SCORE.SYSTEM.SOLV>
0

>  <SCORE.SYSTEM.norm>
0

>  <SCORE.heavy>
42

>  <SCORE.norm>
-1.50444

>  <RMSD>
14.992

$$$$

 OpenBabel11021811413D
libRbt.so/2013.1/901 2013/11/27
 42 45  0  0  0  0  0  0  0  0999 V2000
   -3.8290   -1.7881   -4.4145 O   0  0  0  0  0  0  0  0  0  0  0  0
   -4.0852   -1.9873   -3.0316 C   0  0  0  0  0  0  0  0  0  0  0  0
   -5.5648   -2.3112   -2.8207 C   0  0  1  0  0  0  0  0  0  0  0  0
   -5.8295   -3.7157   -3.0277 O   0  0  0  0  0  0  0  0  0  0  0  0
   -6.0561   -2.0009   -1.4165 C   0  0  2  0  0  0  0  0  0  0  0  0
   -7.3124   -2.8543   -1.3676 C   0  0  1  0  0  0  0  0  0  0  0  0
   -8.3564   -2.2153   -2.0941 O   0  0  0  0  0  0  0  0  0  0  0  0
   -6.8675   -4.1335   -2.1054 C   0  0  2  0  0  0  0  0  0  0  0  0
   -3.6824   -0.1382    1.2156 C   0  0  2  0  0  0  0  0  0  0  0  0
   -4.3653   -0.6420    0.0574 O   0  0  0  0  0  0  0  0  0  0  0  0
   -5.6552   -0.0278   -0.1155 C   0  0  2  0  0  0  0  0  0  0  0  0
   -6.3377   -0.5971   -1.2521 O   0  0  0  0  0  0  0  0  0  0  0  0
   -5.5133    1.4945   -0.2851 C   0  0  2  0  0  0  0  0  0  0  0  0
   -5.0475    1.8226   -1.6199 N   0  3  0  0  0  0  0  0  0  0  0  0
   -4.6060    2.1338    0.7727 C   0  0  1  0  0  0  0  0  0  0  0  0
   -5.3186    2.2545    1.9935 O   0  0  0  0  0  0  0  0  0  0  0  0
   -3.3300    1.3285    1.0032 C   0  0  2  0  0  0  0  0  0  0  0  0
   -2.4602    1.4665   -0.1143 O   0  0  0  0  0  0  0  0  0  0  0  0
   -2.4300   -0.9618    1.5020 C   0  0  0  0  0  0  0  0  0  0  0  0
   -1.6052   -1.0600    0.3125 N   0  3  0  0  0  0  0  0  0  0  0  0
   -3.0836   -6.6513    1.9894 C   0  0  1  0  0  0  0  0  0  0  0  0
   -3.9485   -5.6219    1.4656 O   0  0  0  0  0  0  0  0  0  0  0  0
   -3.4914   -5.0755    0.2070 C   0  0  2  0  0  0  0  0  0  0  0  0
   -3.5282   -6.0580   -0.8574 O   0  0  0  0  0  0  0  0  0  0  0  0
   -2.0885   -4.4745    0.3564 C   0  0  2  0  0  0  0  0  0  0  0  0
   -1.5587   -4.1229   -0.9480 N   0  3  0  0  0  0  0  0  0  0  0  0
   -1.1298   -5.4413    1.0426 C   0  0  1  0  0  0  0  0  0  0  0  0
    0.0752   -4.7671    1.3709 O   0  0  0  0  0  0  0  0  0  0  0  0
   -1.7116   -6.0742    2.2972 C   0  0  2  0  0  0  0  0  0  0  0  0
   -0.8512   -7.0961    2.7790 O   0  0  0  0  0  0  0  0  0  0  0  0
   -3.6571   -7.2024    3.2918 C   0  0  0  0  0  0  0  0  0  0  0  0
   -4.0875   -6.1230    4.1614 N   0  3  0  0  0  0  0  0  0  0  0  0
   -6.4688   -8.6711   -2.4773 C   0  0  2  0  0  0  0  0  0  0  0  0
   -5.5347   -9.2204   -1.4172 C   0  0  0  0  0  0  0  0  0  0  0  0
   -4.3280   -8.3154   -1.2514 C   0  0  1  0  0  0  0  0  0  0  0  0
   -4.7071   -6.9035   -0.8023 C   0  0  2  0  0  0  0  0  0  0  0  0
   -5.8190   -6.3164   -1.7022 C   0  0  1  0  0  0  0  0  0  0  0  0
   -6.9481   -7.2752   -2.1024 C   0  0  1  0  0  0  0  0  0  0  0  0
   -7.6092   -9.5560   -2.6201 N   0  3  0  0  0  0  0  0  0  0  0  0
   -3.4104   -8.9216   -0.3065 N   0  3  0  0  0  0  0  0  0  0  0  0
   -6.3753   -5.1039   -1.1370 O   0  0  0  0  0  0  0  0  0  0  0  0
   -7.6941   -6.7183   -3.1797 O   0  0  0  0  0  0  0  0  0  0  0  0
  1  2  1  0  0  0  0
  3  2  1  1  0  0  0
  3  4  1  0  0  0  0
  3  5  1  0  0  0  0
  4  8  1  0  0  0  0
  5  6  1  0  0  0  0
  5 12  1  6  0  0  0
  6  7  1  6  0  0  0
  6  8  1  0  0  0  0
  8 41  1  1  0  0  0
  9 10  1  0  0  0  0
  9 17  1  0  0  0  0
  9 19  1  6  0  0  0
 10 11  1  0  0  0  0
 11 12  1  6  0  0  0
 11 13  1  0  0  0  0
 13 14  1  6  0  0  0
 13 15  1  0  0  0  0
 15 16  1  1  0  0  0
 15 17  1  0  0  0  0
 17 18  1  6  0  0  0
 19 20  1  0  0  0  0
 21 22  1  0  0  0  0
 21 29  1  0  0  0  0
 21 31  1  1  0  0  0
 22 23  1  0  0  0  0
 23 24  1  6  0  0  0
 23 25  1  0  0  0  0
 25 26  1  6  0  0  0
 25 27  1  0  0  0  0
 27 28  1  1  0  0  0
 27 29  1  0  0  0  0
 29 30  1  6  0  0  0
 31 32  1  0  0  0  0
 33 34  1  0  0  0  0
 33 38  1  0  0  0  0
 33 39  1  1  0  0  0
 34 35  1  0  0  0  0
 35 36  1  0  0  0  0
 35 40  1  1  0  0  0
 36 24  1  6  0  0  0
 36 37  1  0  0  0  0
 37 38  1  0  0  0  0
 37 41  1  1  0  0  0
 38 42  1  6  0  0  0
M  CHG  6  14   1  20   1  26   1  32   1  39   1  40   1
M  END
>  <CHROM.1>
-175.20747694,83.89562518,-126.82275348,-60.44240328,-58.23926574,52.18122155
34.80005929,79.75169907,66.21935066,58.30263395,73.90134323,-45.84893138
39.95148375,-144.46453593,54.93601410,63.73107989,176.33024244,-173.58274251
179.92346126,54.20834610,149.69092564,70.08772310,-4.40976484,-3.78451101
-0.40440168,1.51840864,-0.73848930,0.00188330

>  <Name>


>  <RI>
0

>  <Rbt.Current_Directory>
/home/itssahil/PROJECTS/Mol_Feturizer/New_Systems/rnas/1qd3

>  <Rbt.Executable>
rbdock ($Id: //depot/dev/client3/rdock/2013.1/src/exe/rbdock.cxx#4 $)

>  <Rbt.Library>
libRbt.so (2013.1, Build901 2013/11/27)

>  <Rbt.Parameter_File>
/export/apps/rDock/src/rDock_2013.1_src/data/scripts/dock_solv.prm

>  <Rbt.Receptor>
prm/blind_docking_20.prm

>  <SCORE>
-66.7425

>  <SCORE.INTER>
-50.8798

>  <SCORE.INTER.CONST>
1

>  <SCORE.INTER.POLAR>
-6.82749

>  <SCORE.INTER.ROT>
9

>  <SCORE.INTER.SOLV>
31.7514

>  <SCORE.INTER.VDW>
-31.3454

>  <SCORE.INTER.norm>
-1.21142

>  <SCORE.INTRA>
-15.8834

>  <SCORE.INTRA.DIHEDRAL>
-14.0539

>  <SCORE.INTRA.DIHEDRAL.0>
40.6252

>  <SCORE.INTRA.POLAR>
0.987537

>  <SCORE.INTRA.POLAR.0>
-1.20161

>  <SCORE.INTRA.REPUL>
-0.115675

>  <SCORE.INTRA.REPUL.0>
0.115675

>  <SCORE.INTRA.SOLV>
-2.47279

>  <SCORE.INTRA.SOLV.lig_0>
-154.895

>  <SCORE.INTRA.VDW>
-10.3993

>  <SCORE.INTRA.VDW.0>
2.2925

>  <SCORE.INTRA.norm>
-0.378176

>  <SCORE.RESTR>
0.020591

>  <SCORE.RESTR.CAVITY>
0.020591

>  <SCORE.RESTR.norm>
0.000490262

>  <SCORE.SYSTEM>
0

>  <SCORE.SYSTEM.CONST>
0

>  <SCORE.SYSTEM.DIHEDRAL>
0

>  <SCORE.SYSTEM.SOLV>
0

>  <SCORE.SYSTEM.norm>
0

>  <SCORE.heavy>
42

>  <SCORE.norm>
-1.58911

>  <RMSD>
14.996

$$$$

 OpenBabel11021811413D
libRbt.so/2013.1/901 2013/11/27
 42 45  0  0  0  0  0  0  0  0999 V2000
   -1.7711   -1.3240    3.6420 O   0  0  0  0  0  0  0  0  0  0  0  0
   -1.9875   -2.7271    3.6874 C   0  0  0  0  0  0  0  0  0  0  0  0
   -3.4147   -3.0456    3.2402 C   0  0  1  0  0  0  0  0  0  0  0  0
   -3.7333   -2.3891    1.9939 O   0  0  0  0  0  0  0  0  0  0  0  0
   -3.6556   -4.5267    3.0003 C   0  0  2  0  0  0  0  0  0  0  0  0
   -4.8988   -4.4677    2.1287 C   0  0  1  0  0  0  0  0  0  0  0  0
   -6.0406   -4.2044    2.9368 O   0  0  0  0  0  0  0  0  0  0  0  0
   -4.6062   -3.2537    1.2236 C   0  0  2  0  0  0  0  0  0  0  0  0
   -2.0136   -8.1881    3.1741 C   0  0  2  0  0  0  0  0  0  0  0  0
   -2.3561   -6.8030    3.3339 O   0  0  0  0  0  0  0  0  0  0  0  0
   -3.5331   -6.6302    4.1435 C   0  0  2  0  0  0  0  0  0  0  0  0
   -3.8826   -5.2334    4.2356 O   0  0  0  0  0  0  0  0  0  0  0  0
   -3.3178   -7.2207    5.5475 C   0  0  2  0  0  0  0  0  0  0  0  0
   -2.4909   -6.3422    6.3543 N   0  3  0  0  0  0  0  0  0  0  0  0
   -2.7291   -8.6361    5.5190 C   0  0  1  0  0  0  0  0  0  0  0  0
   -3.7518   -9.5651    5.1965 O   0  0  0  0  0  0  0  0  0  0  0  0
   -1.5855   -8.7667    4.5167 C   0  0  2  0  0  0  0  0  0  0  0  0
   -0.4354   -8.0828    5.0004 O   0  0  0  0  0  0  0  0  0  0  0  0
   -0.9086   -8.3525    2.1345 C   0  0  0  0  0  0  0  0  0  0  0  0
   -0.8013   -9.7399    1.7242 N   0  3  0  0  0  0  0  0  0  0  0  0
   -8.1946   -4.7128   -3.7464 C   0  0  1  0  0  0  0  0  0  0  0  0
   -8.2109   -4.0446   -2.4676 O   0  0  0  0  0  0  0  0  0  0  0  0
   -6.9899   -4.2217   -1.7132 C   0  0  2  0  0  0  0  0  0  0  0  0
   -5.8561   -3.5909   -2.3583 O   0  0  0  0  0  0  0  0  0  0  0  0
   -6.7232   -5.7102   -1.4583 C   0  0  2  0  0  0  0  0  0  0  0  0
   -5.3995   -5.8862   -0.8903 N   0  3  0  0  0  0  0  0  0  0  0  0
   -6.8324   -6.5312   -2.7383 C   0  0  1  0  0  0  0  0  0  0  0  0
   -6.8143   -7.9146   -2.4220 O   0  0  0  0  0  0  0  0  0  0  0  0
   -8.0799   -6.2155   -3.5492 C   0  0  2  0  0  0  0  0  0  0  0  0
   -8.0280   -6.8687   -4.8090 O   0  0  0  0  0  0  0  0  0  0  0  0
   -9.4971   -4.4419   -4.4939 C   0  0  0  0  0  0  0  0  0  0  0  0
   -9.5342   -3.0761   -4.9839 N   0  3  0  0  0  0  0  0  0  0  0  0
   -3.2045   -0.3453   -1.6270 C   0  0  2  0  0  0  0  0  0  0  0  0
   -4.6552   -0.0253   -1.9287 C   0  0  0  0  0  0  0  0  0  0  0  0
   -5.3466   -1.2256   -2.5485 C   0  0  1  0  0  0  0  0  0  0  0  0
   -5.3571   -2.4430   -1.6230 C   0  0  2  0  0  0  0  0  0  0  0  0
   -3.9391   -2.7394   -1.0823 C   0  0  1  0  0  0  0  0  0  0  0  0
   -3.1007   -1.5231   -0.6675 C   0  0  1  0  0  0  0  0  0  0  0  0
   -2.5660    0.8181   -1.0416 N   0  3  0  0  0  0  0  0  0  0  0  0
   -6.6988   -0.8528   -2.9158 N   0  3  0  0  0  0  0  0  0  0  0  0
   -3.9724   -3.7089   -0.0063 O   0  0  0  0  0  0  0  0  0  0  0  0
   -1.7368   -1.9050   -0.5219 O   0  0  0  0  0  0  0  0  0  0  0  0
  1  2  1  0  0  0  0
  3  2  1  6  0  0  0
  3  4  1  0  0  0  0
  3  5  1  0  0  0  0
  4  8  1  0  0  0  0
  5  6  1  0  0  0  0
  5 12  1  1  0  0  0
  6  7  1  1  0  0  0
  6  8  1  0  0  0  0
  8 41  1  6  0  0  0
  9 10  1  0  0  0  0
  9 17  1  0  0  0  0
  9 19  1  6  0  0  0
 10 11  1  0  0  0  0
 11 12  1  1  0  0  0
 11 13  1  0  0  0  0
 13 14  1  1  0  0  0
 13 15  1  0  0  0  0
 15 16  1  6  0  0  0
 15 17  1  0  0  0  0
 17 18  1  1  0  0  0
 19 20  1  0  0  0  0
 21 22  1  0  0  0  0
 21 29  1  0  0  0  0
 21 31  1  1  0  0  0
 22 23  1  0  0  0  0
 23 24  1  6  0  0  0
 23 25  1  0  0  0  0
 25 26  1  6  0  0  0
 25 27  1  0  0  0  0
 27 28  1  1  0  0  0
 27 29  1  0  0  0  0
 29 30  1  6  0  0  0
 31 32  1  0  0  0  0
 33 34  1  0  0  0  0
 33 38  1  0  0  0  0
 33 39  1  1  0  0  0
 34 35  1  0  0  0  0
 35 36  1  0  0  0  0
 35 40  1  1  0  0  0
 36 24  1  6  0  0  0
 36 37  1  0  0  0  0
 37 38  1  0  0  0  0
 37 41  1  1  0  0  0
 38 42  1  6  0  0  0
M  CHG  6  14   1  20   1  26   1  32   1  39   1  40   1
M  END
>  <CHROM.1>
-59.68574531,49.77970673,-154.36666609,69.65496642,-77.75496225,-165.40931419
37.59151429,-77.75973451,-162.33957706,-49.51947412,134.59096378,72.92038783
111.43396051,-124.62693368,-73.60969760,66.28602975,-176.18943472,-168.23617666
52.95450312,73.95562610,-67.57346029,63.10170024,-4.47751410,-4.68858825
0.55313098,-0.68074849,-0.88213833,-0.34707884

>  <Name>


>  <RI>
0

>  <Rbt.Current_Directory>
/home/itssahil/PROJECTS/Mol_Feturizer/New_Systems/rnas/1qd3

>  <Rbt.Executable>
rbdock ($Id: //depot/dev/client3/rdock/2013.1/src/exe/rbdock.cxx#4 $)

>  <Rbt.Library>
libRbt.so (2013.1, Build901 2013/11/27)

>  <Rbt.Parameter_File>
/export/apps/rDock/src/rDock_2013.1_src/data/scripts/dock_solv.prm

>  <Rbt.Receptor>
prm/blind_docking_80.prm

>  <SCORE>
-44.2707

>  <SCORE.INTER>
-28.3365

>  <SCORE.INTER.CONST>
1

>  <SCORE.INTER.POLAR>
-3.25532

>  <SCORE.INTER.ROT>
9

>  <SCORE.INTER.SOLV>
20.7152

>  <SCORE.INTER.VDW>
-24.545

>  <SCORE.INTER.norm>
-0.674678

>  <SCORE.INTRA>
-18.9885

>  <SCORE.INTRA.DIHEDRAL>
-9.35317

>  <SCORE.INTRA.DIHEDRAL.0>
40.6252

>  <SCORE.INTRA.POLAR>
-0.533285

>  <SCORE.INTRA.POLAR.0>
-1.20161

>  <SCORE.INTRA.REPUL>
-0.115675

>  <SCORE.INTRA.REPUL.0>
0.115675

>  <SCORE.INTRA.SOLV>
-8.45113

>  <SCORE.INTRA.SOLV.lig_0>
-154.895

>  <SCORE.INTRA.VDW>
-7.6948

>  <SCORE.INTRA.VDW.0>
2.2925

>  <SCORE.INTRA.norm>
-0.452107

>  <SCORE.RESTR>
3.05426

>  <SCORE.RESTR.CAVITY>
3.05426

>  <SCORE.RESTR.norm>
0.0727206

>  <SCORE.SYSTEM>
0

>  <SCORE.SYSTEM.CONST>
0

>  <SCORE.SYSTEM.DIHEDRAL>
0

>  <SCORE.SYSTEM.SOLV>
0

>  <SCORE.SYSTEM.norm>
0

>  <SCORE.heavy>
42

>  <SCORE.norm>
-1.05406

>  <RMSD>
14.996

$$$$

 OpenBabel11021811413D
libRbt.so/2013.1/901 2013/11/27
 42 45  0  0  0  0  0  0  0  0999 V2000
   -6.1952   -9.7914   -2.8370 O   0  0  0  0  0  0  0  0  0  0  0  0
   -7.3264   -9.0470   -2.4080 C   0  0  0  0  0  0  0  0  0  0  0  0
   -6.8911   -7.9721   -1.4113 C   0  0  1  0  0  0  0  0  0  0  0  0
   -5.8937   -8.4769   -0.4969 O   0  0  0  0  0  0  0  0  0  0  0  0
   -6.2670   -6.7540   -2.0719 C   0  0  2  0  0  0  0  0  0  0  0  0
   -5.5177   -6.1536   -0.8942 C   0  0  1  0  0  0  0  0  0  0  0  0
   -6.4308   -5.4753   -0.0386 O   0  0  0  0  0  0  0  0  0  0  0  0
   -4.9664   -7.4068   -0.1842 C   0  0  2  0  0  0  0  0  0  0  0  0
   -7.1324   -3.3275   -5.2237 C   0  0  2  0  0  0  0  0  0  0  0  0
   -7.6799   -4.3316   -4.3558 O   0  0  0  0  0  0  0  0  0  0  0  0
   -6.7064   -4.8168   -3.4136 C   0  0  2  0  0  0  0  0  0  0  0  0
   -7.2712   -5.8636   -2.5970 O   0  0  0  0  0  0  0  0  0  0  0  0
   -6.1885   -3.6698   -2.5289 C   0  0  2  0  0  0  0  0  0  0  0  0
   -7.1668   -3.3189   -1.5160 N   0  3  0  0  0  0  0  0  0  0  0  0
   -5.7794   -2.4301   -3.3329 C   0  0  1  0  0  0  0  0  0  0  0  0
   -4.5108   -2.6523   -3.9281 O   0  0  0  0  0  0  0  0  0  0  0  0
   -6.7973   -2.0807   -4.4151 C   0  0  2  0  0  0  0  0  0  0  0  0
   -7.9764   -1.5514   -3.8200 O   0  0  0  0  0  0  0  0  0  0  0  0
   -8.1091   -2.9988   -6.3493 C   0  0  0  0  0  0  0  0  0  0  0  0
   -8.8541   -4.1824   -6.7352 N   0  3  0  0  0  0  0  0  0  0  0  0
   -4.0433   -6.4411    3.5023 C   0  0  1  0  0  0  0  0  0  0  0  0
   -3.9120   -5.9320    2.1586 O   0  0  0  0  0  0  0  0  0  0  0  0
   -2.5377   -5.7524    1.7458 C   0  0  2  0  0  0  0  0  0  0  0  0
   -1.8295   -7.0131    1.6515 O   0  0  0  0  0  0  0  0  0  0  0  0
   -1.8137   -4.7806    2.6855 C   0  0  2  0  0  0  0  0  0  0  0  0
   -0.3929   -4.7721    2.3906 N   0  3  0  0  0  0  0  0  0  0  0  0
   -2.0193   -5.1518    4.1499 C   0  0  1  0  0  0  0  0  0  0  0  0
   -1.5385   -4.1059    4.9801 O   0  0  0  0  0  0  0  0  0  0  0  0
   -3.4710   -5.4442    4.4968 C   0  0  2  0  0  0  0  0  0  0  0  0
   -3.5686   -5.9622    5.8154 O   0  0  0  0  0  0  0  0  0  0  0  0
   -5.5172   -6.6413    3.8433 C   0  0  0  0  0  0  0  0  0  0  0  0
   -6.2942   -6.8856    2.6420 N   0  3  0  0  0  0  0  0  0  0  0  0
   -2.8258  -11.0767    0.8810 C   0  0  2  0  0  0  0  0  0  0  0  0
   -2.9261  -10.5776    2.3089 C   0  0  0  0  0  0  0  0  0  0  0  0
   -2.1687   -9.2726    2.4702 C   0  0  1  0  0  0  0  0  0  0  0  0
   -2.7218   -8.1562    1.5833 C   0  0  2  0  0  0  0  0  0  0  0  0
   -2.8597   -8.6304    0.1180 C   0  0  1  0  0  0  0  0  0  0  0  0
   -3.3978  -10.0523   -0.0896 C   0  0  1  0  0  0  0  0  0  0  0  0
   -3.5521  -12.3260    0.7551 N   0  3  0  0  0  0  0  0  0  0  0  0
   -2.2007   -8.8784    3.8651 N   0  3  0  0  0  0  0  0  0  0  0  0
   -3.6247   -7.6900   -0.6753 O   0  0  0  0  0  0  0  0  0  0  0  0
   -3.1521  -10.4698   -1.4284 O   0  0  0  0  0  0  0  0  0  0  0  0
  1  2  1  0  0  0  0
  3  2  1  6  0  0  0
  3  4  1  0  0  0  0
  3  5  1  0  0  0  0
  4  8  1  0  0  0  0
  5  6  1  0  0  0  0
  5 12  1  1  0  0  0
  6  7  1  1  0  0  0
  6  8  1  0  0  0  0
  8 41  1  6  0  0  0
  9 10  1  0  0  0  0
  9 17  1  0  0  0  0
  9 19  1  6  0  0  0
 10 11  1  0  0  0  0
 11 12  1  1  0  0  0
 11 13  1  0  0  0  0
 13 14  1  1  0  0  0
 13 15  1  0  0  0  0
 15 16  1  6  0  0  0
 15 17  1  0  0  0  0
 17 18  1  1  0  0  0
 19 20  1  0  0  0  0
 21 22  1  0  0  0  0
 21 29  1  0  0  0  0
 21 31  1  1  0  0  0
 22 23  1  0  0  0  0
 23 24  1  1  0  0  0
 23 25  1  0  0  0  0
 25 26  1  6  0  0  0
 25 27  1  0  0  0  0
 27 28  1  1  0  0  0
 27 29  1  0  0  0  0
 29 30  1  1  0  0  0
 31 32  1  0  0  0  0
 33 34  1  0  0  0  0
 33 38  1  0  0  0  0
 33 39  1  1  0  0  0
 34 35  1  0  0  0  0
 35 36  1  0  0  0  0
 35 40  1  1  0  0  0
 36 24  1  6  0  0  0
 36 37  1  0  0  0  0
 37 38  1  0  0  0  0
 37 41  1  6  0  0  0
 38 42  1  6  0  0  0
M  CHG  6  14   1  20   1  26   1  32   1  39   1  40   1
M  END
>  <CHROM.1>
-51.97387558,-40.65965697,-170.58486016,50.28956496,-77.40622200,-33.80995723
154.99100395,-62.59896750,-57.27931153,-176.34069734,1.83246269,26.85775156
17.74320341,-138.02368661,32.20992907,-179.39234151,52.27138091,-171.43818366
76.35575032,65.50209389,-57.31635261,-177.11704373,-4.78009000,-6.38467261
-0.20387195,2.85226226,-1.03723556,0.15385051

>  <Name>


>  <RI>
0

>  <Rbt.Current_Directory>
/home/itssahil/PROJECTS/Mol_Feturizer/New_Systems/rnas/1qd3

>  <Rbt.Executable>
rbdock ($Id: //depot/dev/client3/rdock/2013.1/src/exe/rbdock.cxx#4 $)

>  <Rbt.Library>
libRbt.so (2013.1, Build901 2013/11/27)

>  <Rbt.Parameter_File>
/export/apps/rDock/src/rDock_2013.1_src/data/scripts/dock_solv.prm

>  <Rbt.Receptor>
prm/blind_docking_100.prm

>  <SCORE>
-53.2846

>  <SCORE.INTER>
-42.4586

>  <SCORE.INTER.CONST>
1

>  <SCORE.INTER.POLAR>
-5.80699

>  <SCORE.INTER.ROT>
9

>  <SCORE.INTER.SOLV>
29.0566

>  <SCORE.INTER.VDW>
-28.2346

>  <SCORE.INTER.norm>
-1.01092

>  <SCORE.INTRA>
-13.3415

>  <SCORE.INTRA.DIHEDRAL>
-8.87165

>  <SCORE.INTRA.DIHEDRAL.0>
40.6252

>  <SCORE.INTRA.POLAR>
0.107277

>  <SCORE.INTRA.POLAR.0>
-1.20161

>  <SCORE.INTRA.REPUL>
-0.115675

>  <SCORE.INTRA.REPUL.0>
0.115675

>  <SCORE.INTRA.SOLV>
-0.920204

>  <SCORE.INTRA.SOLV.lig_0>
-154.895

>  <SCORE.INTRA.VDW>
-8.23198

>  <SCORE.INTRA.VDW.0>
2.2925

>  <SCORE.INTRA.norm>
-0.317656

>  <SCORE.RESTR>
2.51558

>  <SCORE.RESTR.CAVITY>
2.51558

>  <SCORE.RESTR.norm>
0.0598946

>  <SCORE.SYSTEM>
0

>  <SCORE.SYSTEM.CONST>
0

>  <SCORE.SYSTEM.DIHEDRAL>
0

>  <SCORE.SYSTEM.SOLV>
0

>  <SCORE.SYSTEM.norm>
0

>  <SCORE.heavy>
42

>  <SCORE.norm>
-1.26868

>  <RMSD>
14.998

$$$$

 OpenBabel11021811413D
libRbt.so/2013.1/901 2013/11/27
 42 45  0  0  0  0  0  0  0  0999 V2000
   -4.1725   -2.5597   -2.4729 O   0  0  0  0  0  0  0  0  0  0  0  0
   -5.2410   -3.3718   -2.0077 C   0  0  0  0  0  0  0  0  0  0  0  0
   -4.6976   -4.7200   -1.5327 C   0  0  1  0  0  0  0  0  0  0  0  0
   -3.9526   -4.5821   -0.3033 O   0  0  0  0  0  0  0  0  0  0  0  0
   -5.7854   -5.7412   -1.2442 C   0  0  2  0  0  0  0  0  0  0  0  0
   -5.0245   -6.7140   -0.3590 C   0  0  1  0  0  0  0  0  0  0  0  0
   -4.1822   -7.5353   -1.1601 O   0  0  0  0  0  0  0  0  0  0  0  0
   -4.1659   -5.7674    0.5044 C   0  0  2  0  0  0  0  0  0  0  0  0
   -9.4622   -7.9276   -3.2769 C   0  0  2  0  0  0  0  0  0  0  0  0
   -8.2241   -7.2256   -3.4659 O   0  0  0  0  0  0  0  0  0  0  0  0
   -7.4746   -7.1185   -2.2421 C   0  0  2  0  0  0  0  0  0  0  0  0
   -6.2665   -6.3589   -2.4542 O   0  0  0  0  0  0  0  0  0  0  0  0
   -7.1381   -8.5135   -1.6877 C   0  0  2  0  0  0  0  0  0  0  0  0
   -6.0520   -9.1173   -2.4377 N   0  3  0  0  0  0  0  0  0  0  0  0
   -8.3502   -9.4516   -1.6483 C   0  0  1  0  0  0  0  0  0  0  0  0
   -9.1677   -9.1182   -0.5377 O   0  0  0  0  0  0  0  0  0  0  0  0
   -9.1764   -9.3831   -2.9298 C   0  0  2  0  0  0  0  0  0  0  0  0
   -8.4732  -10.0117   -3.9951 O   0  0  0  0  0  0  0  0  0  0  0  0
  -10.3331   -7.8279   -4.5260 C   0  0  0  0  0  0  0  0  0  0  0  0
  -10.2853   -6.4841   -5.0710 N   0  3  0  0  0  0  0  0  0  0  0  0
   -2.0449   -9.1086    3.4206 C   0  0  1  0  0  0  0  0  0  0  0  0
   -2.9041   -8.3433    2.5499 O   0  0  0  0  0  0  0  0  0  0  0  0
   -3.7308   -7.3890    3.2552 C   0  0  2  0  0  0  0  0  0  0  0  0
   -2.9435   -6.3455    3.8804 O   0  0  0  0  0  0  0  0  0  0  0  0
   -4.6210   -8.1000    4.2818 C   0  0  2  0  0  0  0  0  0  0  0  0
   -5.2855   -7.1219    5.1230 N   0  3  0  0  0  0  0  0  0  0  0  0
   -3.8196   -9.0543    5.1601 C   0  0  1  0  0  0  0  0  0  0  0  0
   -4.7050   -9.8570    5.9256 O   0  0  0  0  0  0  0  0  0  0  0  0
   -2.8806   -9.9523    4.3693 C   0  0  2  0  0  0  0  0  0  0  0  0
   -2.0340  -10.6776    5.2490 O   0  0  0  0  0  0  0  0  0  0  0  0
   -1.1791  -10.0579    2.5972 C   0  0  0  0  0  0  0  0  0  0  0  0
   -0.0126   -9.3688    2.0766 N   0  3  0  0  0  0  0  0  0  0  0  0
   -3.2679   -2.2138    2.9193 C   0  0  2  0  0  0  0  0  0  0  0  0
   -1.8791   -2.8082    3.0467 C   0  0  0  0  0  0  0  0  0  0  0  0
   -1.9355   -4.1403    3.7713 C   0  0  1  0  0  0  0  0  0  0  0  0
   -2.7825   -5.1778    3.0329 C   0  0  2  0  0  0  0  0  0  0  0  0
   -4.1682   -4.5996    2.6638 C   0  0  1  0  0  0  0  0  0  0  0  0
   -4.1879   -3.1533    2.1516 C   0  0  1  0  0  0  0  0  0  0  0  0
   -3.1856   -0.9405    2.2295 N   0  3  0  0  0  0  0  0  0  0  0  0
   -0.5842   -4.6294    3.9641 N   0  3  0  0  0  0  0  0  0  0  0  0
   -4.8752   -5.4626    1.7395 O   0  0  0  0  0  0  0  0  0  0  0  0
   -5.5196   -2.6503    2.1796 O   0  0  0  0  0  0  0  0  0  0  0  0
  1  2  1  0  0  0  0
  3  2  1  1  0  0  0
  3  4  1  0  0  0  0
  3  5  1  0  0  0  0
  4  8  1  0  0  0  0
  5  6  1  0  0  0  0
  5 12  1  6  0  0  0
  6  7  1  6  0  0  0
  6  8  1  0  0  0  0
  8 41  1  1  0  0  0
  9 10  1  0  0  0  0
  9 17  1  0  0  0  0
  9 19  1  6  0  0  0
 10 11  1  0  0  0  0
 11 12  1  6  0  0  0
 11 13  1  0  0  0  0
 13 14  1  6  0  0  0
 13 15  1  0  0  0  0
 15 16  1  1  0  0  0
 15 17  1  0  0  0  0
 17 18  1  6  0  0  0
 19 20  1  0  0  0  0
 21 22  1  0  0  0  0
 21 29  1  0  0  0  0
 21 31  1  6  0  0  0
 22 23  1  0  0  0  0
 23 24  1  1  0  0  0
 23 25  1  0  0  0  0
 25 26  1  1  0  0  0
 25 27  1  0  0  0  0
 27 28  1  6  0  0  0
 27 29  1  0  0  0  0
 29 30  1  1  0  0  0
 31 32  1  0  0  0  0
 33 34  1  0  0  0  0
 33 38  1  0  0  0  0
 33 39  1  6  0  0  0
 34 35  1  0  0  0  0
 35 36  1  0  0  0  0
 35 40  1  6  0  0  0
 36 24  1  1  0  0  0
 36 37  1  0  0  0  0
 37 38  1  0  0  0  0
 37 41  1  6  0  0  0
 38 42  1  1  0  0  0
M  CHG  6  14   1  20   1  26   1  32   1  39   1  40   1
M  END
>  <CHROM.1>
-172.05141319,70.89256685,-168.00509588,-173.84079148,-64.35329945,-41.79812084
155.22191059,-177.36375204,-172.27891142,-58.74335119,62.25169926,82.74776412
92.49835626,-179.67389890,84.46512543,-59.03241435,-164.14638945,-77.83935903
-177.87838179,70.06929895,-56.07193884,86.09093091,-4.90472455,-6.68571013
0.76372222,-3.00641876,0.88193842,2.81554638

>  <Name>


>  <RI>
0

>  <Rbt.Current_Directory>
/home/itssahil/PROJECTS/Mol_Feturizer/New_Systems/rnas/1qd3

>  <Rbt.Executable>
rbdock ($Id: //depot/dev/client3/rdock/2013.1/src/exe/rbdock.cxx#4 $)

>  <Rbt.Library>
libRbt.so (2013.1, Build901 2013/11/27)

>  <Rbt.Parameter_File>
/export/apps/rDock/src/rDock_2013.1_src/data/scripts/dock_solv.prm

>  <Rbt.Receptor>
prm/blind_docking_60.prm

>  <SCORE>
-55.5073

>  <SCORE.INTER>
-35.1524

>  <SCORE.INTER.CONST>
1

>  <SCORE.INTER.POLAR>
-4.79585

>  <SCORE.INTER.ROT>
9

>  <SCORE.INTER.SOLV>
34.8796

>  <SCORE.INTER.VDW>
-28.6753

>  <SCORE.INTER.norm>
-0.836962

>  <SCORE.INTRA>
-23.2832

>  <SCORE.INTRA.DIHEDRAL>
-20.6703

>  <SCORE.INTRA.DIHEDRAL.0>
40.6252

>  <SCORE.INTRA.POLAR>
0.344625

>  <SCORE.INTRA.POLAR.0>
-1.20161

>  <SCORE.INTRA.REPUL>
-0.115675

>  <SCORE.INTRA.REPUL.0>
0.115675

>  <SCORE.INTRA.SOLV>
-11.6055

>  <SCORE.INTRA.SOLV.lig_0>
-154.895

>  <SCORE.INTRA.VDW>
-7.7386

>  <SCORE.INTRA.VDW.0>
2.2925

>  <SCORE.INTRA.norm>
-0.554361

>  <SCORE.RESTR>
2.92825

>  <SCORE.RESTR.CAVITY>
2.92825

>  <SCORE.RESTR.norm>
0.0697203

>  <SCORE.SYSTEM>
0

>  <SCORE.SYSTEM.CONST>
0

>  <SCORE.SYSTEM.DIHEDRAL>
0

>  <SCORE.SYSTEM.SOLV>
0

>  <SCORE.SYSTEM.norm>
0

>  <SCORE.heavy>
42

>  <SCORE.norm>
-1.3216

>  <RMSD>
15.000

$$$$

 OpenBabel11021811413D
libRbt.so/2013.1/901 2013/11/27
 42 45  0  0  0  0  0  0  0  0999 V2000
   -7.3650   -3.3877   -3.0562 O   0  0  0  0  0  0  0  0  0  0  0  0
   -6.8025   -4.3679   -3.9167 C   0  0  0  0  0  0  0  0  0  0  0  0
   -5.9921   -5.3727   -3.0969 C   0  0  1  0  0  0  0  0  0  0  0  0
   -5.0325   -4.7056   -2.2484 O   0  0  0  0  0  0  0  0  0  0  0  0
   -6.8449   -6.2211   -2.1683 C   0  0  2  0  0  0  0  0  0  0  0  0
   -5.7897   -6.7055   -1.1882 C   0  0  1  0  0  0  0  0  0  0  0  0
   -5.0290   -7.7532   -1.7794 O   0  0  0  0  0  0  0  0  0  0  0  0
   -4.9076   -5.4527   -1.0119 C   0  0  2  0  0  0  0  0  0  0  0  0
   -9.1232   -9.9639   -0.9825 C   0  0  2  0  0  0  0  0  0  0  0  0
   -8.9753   -8.8151   -1.8309 O   0  0  0  0  0  0  0  0  0  0  0  0
   -7.5922   -8.4966   -2.0684 C   0  0  2  0  0  0  0  0  0  0  0  0
   -7.4790   -7.3055   -2.8747 O   0  0  0  0  0  0  0  0  0  0  0  0
   -6.8735   -9.6735   -2.7502 C   0  0  2  0  0  0  0  0  0  0  0  0
   -7.2209   -9.7432   -4.1577 N   0  3  0  0  0  0  0  0  0  0  0  0
   -7.1406  -11.0182   -2.0638 C   0  0  1  0  0  0  0  0  0  0  0  0
   -6.3517  -11.1117   -0.8883 O   0  0  0  0  0  0  0  0  0  0  0  0
   -8.6131  -11.2030   -1.7070 C   0  0  2  0  0  0  0  0  0  0  0  0
   -9.3742  -11.4281   -2.8879 O   0  0  0  0  0  0  0  0  0  0  0  0
  -10.5804  -10.1401   -0.5649 C   0  0  0  0  0  0  0  0  0  0  0  0
  -11.4423   -9.2865   -1.3609 N   0  3  0  0  0  0  0  0  0  0  0  0
   -2.0869   -6.4975    4.6214 C   0  0  1  0  0  0  0  0  0  0  0  0
   -1.8496   -6.6968    3.2122 O   0  0  0  0  0  0  0  0  0  0  0  0
   -3.0252   -6.4830    2.3975 C   0  0  2  0  0  0  0  0  0  0  0  0
   -3.4636   -5.1022    2.4279 O   0  0  0  0  0  0  0  0  0  0  0  0
   -4.1545   -7.4310    2.8189 C   0  0  2  0  0  0  0  0  0  0  0  0
   -5.3858   -7.0660    2.1433 N   0  3  0  0  0  0  0  0  0  0  0  0
   -4.3827   -7.4033    4.3261 C   0  0  1  0  0  0  0  0  0  0  0  0
   -5.2607   -8.4551    4.6960 O   0  0  0  0  0  0  0  0  0  0  0  0
   -3.0963   -7.5138    5.1300 C   0  0  2  0  0  0  0  0  0  0  0  0
   -3.3555   -7.2936    6.5088 O   0  0  0  0  0  0  0  0  0  0  0  0
   -0.7919   -6.7000    5.4029 C   0  0  0  0  0  0  0  0  0  0  0  0
   -0.1677   -7.9607    5.0457 N   0  3  0  0  0  0  0  0  0  0  0  0
   -3.0895   -1.6431   -0.0204 C   0  0  2  0  0  0  0  0  0  0  0  0
   -1.8316   -2.4237    0.3060 C   0  0  0  0  0  0  0  0  0  0  0  0
   -2.0727   -3.3530    1.4812 C   0  0  1  0  0  0  0  0  0  0  0  0
   -3.1621   -4.3888    1.2000 C   0  0  2  0  0  0  0  0  0  0  0  0
   -4.4416   -3.7124    0.6558 C   0  0  1  0  0  0  0  0  0  0  0  0
   -4.2346   -2.5857   -0.3650 C   0  0  1  0  0  0  0  0  0  0  0  0
   -2.8311   -0.7597   -1.1415 N   0  3  0  0  0  0  0  0  0  0  0  0
   -0.8258   -4.0063    1.8289 N   0  3  0  0  0  0  0  0  0  0  0  0
   -5.3779   -4.6876    0.1349 O   0  0  0  0  0  0  0  0  0  0  0  0
   -5.4399   -1.8427   -0.5137 O   0  0  0  0  0  0  0  0  0  0  0  0
  1  2  1  0  0  0  0
  3  2  1  1  0  0  0
  3  4  1  0  0  0  0
  3  5  1  0  0  0  0
  4  8  1  0  0  0  0
  5  6  1  0  0  0  0
  5 12  1  6  0  0  0
  6  7  1  6  0  0  0
  6  8  1  0  0  0  0
  8 41  1  1  0  0  0
  9 10  1  0  0  0  0
  9 17  1  0  0  0  0
  9 19  1  6  0  0  0
 10 11  1  0  0  0  0
 11 12  1  6  0  0  0
 11 13  1  0  0  0  0
 13 14  1  6  0  0  0
 13 15  1  0  0  0  0
 15 16  1  1  0  0  0
 15 17  1  0  0  0  0
 17 18  1  6  0  0  0
 19 20  1  0  0  0  0
 21 22  1  0  0  0  0
 21 29  1  0  0  0  0
 21 31  1  1  0  0  0
 22 23  1  0  0  0  0
 23 24  1  1  0  0  0
 23 25  1  0  0  0  0
 25 26  1  6  0  0  0
 25 27  1  0  0  0  0
 27 28  1  1  0  0  0
 27 29  1  0  0  0  0
 29 30  1  1  0  0  0
 31 32  1  0  0  0  0
 33 34  1  0  0  0  0
 33 38  1  0  0  0  0
 33 39  1  6  0  0  0
 34 35  1  0  0  0  0
 35 36  1  0  0  0  0
 35 40  1  6  0  0  0
 36 24  1  1  0  0  0
 36 37  1  0  0  0  0
 37 38  1  0  0  0  0
 37 41  1  6  0  0  0
 38 42  1  1  0  0  0
M  CHG  6  14   1  20   1  26   1  32   1  39   1  40   1
M  END
>  <CHROM.1>
68.88035386,-52.42268343,145.23139303,-170.07555133,-80.10588841,12.30295872
115.65049342,45.75599778,63.81968328,48.78952548,49.87599303,-51.05828924
105.95782629,-110.66615145,133.72120942,-162.37726358,72.03786988,87.59865357
159.62524271,-161.80528479,-63.36503117,-66.33103773,-5.22933827,-6.58537210
0.22609972,-3.13410766,0.83356765,2.46982494

>  <Name>


>  <RI>
0

>  <Rbt.Current_Directory>
/home/itssahil/PROJECTS/Mol_Feturizer/New_Systems/rnas/1qd3

>  <Rbt.Executable>
rbdock ($Id: //depot/dev/client3/rdock/2013.1/src/exe/rbdock.cxx#4 $)

>  <Rbt.Library>
libRbt.so (2013.1, Build901 2013/11/27)

>  <Rbt.Parameter_File>
/export/apps/rDock/src/rDock_2013.1_src/data/scripts/dock_solv.prm

>  <Rbt.Receptor>
prm/blind_docking_60.prm

>  <SCORE>
-54.5694

>  <SCORE.INTER>
-49.2828

>  <SCORE.INTER.CONST>
1

>  <SCORE.INTER.POLAR>
-7.58429

>  <SCORE.INTER.ROT>
9

>  <SCORE.INTER.SOLV>
29.0363

>  <SCORE.INTER.VDW>
-26.853

>  <SCORE.INTER.norm>
-1.1734

>  <SCORE.INTRA>
-8.22331

>  <SCORE.INTRA.DIHEDRAL>
2.59345

>  <SCORE.INTRA.DIHEDRAL.0>
40.6252

>  <SCORE.INTRA.POLAR>
-0.364459

>  <SCORE.INTRA.POLAR.0>
-1.20161

>  <SCORE.INTRA.REPUL>
-0.109913

>  <SCORE.INTRA.REPUL.0>
0.115675

>  <SCORE.INTRA.SOLV>
-4.02581

>  <SCORE.INTRA.SOLV.lig_0>
-154.895

>  <SCORE.INTRA.VDW>
-5.7184

>  <SCORE.INTRA.VDW.0>
2.2925

>  <SCORE.INTRA.norm>
-0.195793

>  <SCORE.RESTR>
2.93671

>  <SCORE.RESTR.CAVITY>
2.93671

>  <SCORE.RESTR.norm>
0.0699217

>  <SCORE.SYSTEM>
0

>  <SCORE.SYSTEM.CONST>
0

>  <SCORE.SYSTEM.DIHEDRAL>
0

>  <SCORE.SYSTEM.SOLV>
0

>  <SCORE.SYSTEM.norm>
0

>  <SCORE.heavy>
42

>  <SCORE.norm>
-1.29927

>  <RMSD>
15.007

$$$$

 OpenBabel11021811413D
libRbt.so/2013.1/901 2013/11/27
 42 45  0  0  0  0  0  0  0  0999 V2000
   -5.9018   -2.9110    2.3278 O   0  0  0  0  0  0  0  0  0  0  0  0
   -5.2252   -4.1591    2.2829 C   0  0  0  0  0  0  0  0  0  0  0  0
   -4.2880   -4.2834    3.4848 C   0  0  1  0  0  0  0  0  0  0  0  0
   -4.1513   -5.6586    3.9041 O   0  0  0  0  0  0  0  0  0  0  0  0
   -2.8768   -3.7954    3.2025 C   0  0  2  0  0  0  0  0  0  0  0  0
   -2.1160   -4.4842    4.3231 C   0  0  1  0  0  0  0  0  0  0  0  0
   -2.3300   -3.7901    5.5472 O   0  0  0  0  0  0  0  0  0  0  0  0
   -2.7970   -5.8669    4.3788 C   0  0  2  0  0  0  0  0  0  0  0  0
   -4.3789    0.3572    1.4237 C   0  0  2  0  0  0  0  0  0  0  0  0
   -3.6593   -0.3107    2.4714 O   0  0  0  0  0  0  0  0  0  0  0  0
   -3.4612   -1.7064    2.1824 C   0  0  2  0  0  0  0  0  0  0  0  0
   -2.7878   -2.3590    3.2789 O   0  0  0  0  0  0  0  0  0  0  0  0
   -2.6589   -1.8829    0.8818 C   0  0  2  0  0  0  0  0  0  0  0  0
   -1.2511   -1.6084    1.1040 N   0  3  0  0  0  0  0  0  0  0  0  0
   -3.1961   -1.0314   -0.2745 C   0  0  1  0  0  0  0  0  0  0  0  0
   -4.3569   -1.6453   -0.8117 O   0  0  0  0  0  0  0  0  0  0  0  0
   -3.5269    0.3934    0.1615 C   0  0  2  0  0  0  0  0  0  0  0  0
   -2.3266    1.1188    0.4014 O   0  0  0  0  0  0  0  0  0  0  0  0
   -4.7712    1.7674    1.8551 C   0  0  0  0  0  0  0  0  0  0  0  0
   -3.6392    2.6670    1.7358 N   0  3  0  0  0  0  0  0  0  0  0  0
   -5.6906   -6.9791   -0.9566 C   0  0  1  0  0  0  0  0  0  0  0  0
   -4.6844   -8.0096   -1.0447 O   0  0  0  0  0  0  0  0  0  0  0  0
   -3.4113   -7.6165   -0.4823 C   0  0  2  0  0  0  0  0  0  0  0  0
   -3.4910   -7.4071    0.9493 O   0  0  0  0  0  0  0  0  0  0  0  0
   -2.8675   -6.3717   -1.1938 C   0  0  2  0  0  0  0  0  0  0  0  0
   -1.7046   -5.8661   -0.4883 N   0  3  0  0  0  0  0  0  0  0  0  0
   -3.9167   -5.2692   -1.2849 C   0  0  1  0  0  0  0  0  0  0  0  0
   -3.4558   -4.2408   -2.1475 O   0  0  0  0  0  0  0  0  0  0  0  0
   -5.2693   -5.7668   -1.7709 C   0  0  2  0  0  0  0  0  0  0  0  0
   -6.2437   -4.7403   -1.6543 O   0  0  0  0  0  0  0  0  0  0  0  0
   -7.0100   -7.4870   -1.5310 C   0  0  0  0  0  0  0  0  0  0  0  0
   -6.7947   -8.1527   -2.8027 N   0  3  0  0  0  0  0  0  0  0  0  0
   -2.8316  -10.5282    3.7641 C   0  0  2  0  0  0  0  0  0  0  0  0
   -2.5135  -10.8040    2.3078 C   0  0  0  0  0  0  0  0  0  0  0  0
   -3.1697   -9.7673    1.4148 C   0  0  1  0  0  0  0  0  0  0  0  0
   -2.6800   -8.3471    1.7016 C   0  0  2  0  0  0  0  0  0  0  0  0
   -2.7660   -8.0265    3.2118 C   0  0  1  0  0  0  0  0  0  0  0  0
   -2.3395   -9.1458    4.1708 C   0  0  1  0  0  0  0  0  0  0  0  0
   -2.1984  -11.5348    4.5946 N   0  3  0  0  0  0  0  0  0  0  0  0
   -2.9294  -10.1191    0.0289 N   0  3  0  0  0  0  0  0  0  0  0  0
   -2.0637   -6.8015    3.5359 O   0  0  0  0  0  0  0  0  0  0  0  0
   -2.7850   -8.8463    5.4895 O   0  0  0  0  0  0  0  0  0  0  0  0
  1  2  1  0  0  0  0
  3  2  1  6  0  0  0
  3  4  1  0  0  0  0
  3  5  1  0  0  0  0
  4  8  1  0  0  0  0
  5  6  1  0  0  0  0
  5 12  1  1  0  0  0
  6  7  1  1  0  0  0
  6  8  1  0  0  0  0
  8 41  1  6  0  0  0
  9 10  1  0  0  0  0
  9 17  1  0  0  0  0
  9 19  1  1  0  0  0
 10 11  1  0  0  0  0
 11 12  1  1  0  0  0
 11 13  1  0  0  0  0
 13 14  1  1  0  0  0
 13 15  1  0  0  0  0
 15 16  1  1  0  0  0
 15 17  1  0  0  0  0
 17 18  1  1  0  0  0
 19 20  1  0  0  0  0
 21 22  1  0  0  0  0
 21 29  1  0  0  0  0
 21 31  1  6  0  0  0
 22 23  1  0  0  0  0
 23 24  1  1  0  0  0
 23 25  1  0  0  0  0
 25 26  1  1  0  0  0
 25 27  1  0  0  0  0
 27 28  1  6  0  0  0
 27 29  1  0  0  0  0
 29 30  1  1  0  0  0
 31 32  1  0  0  0  0
 33 34  1  0  0  0  0
 33 38  1  0  0  0  0
 33 39  1  1  0  0  0
 34 35  1  0  0  0  0
 35 36  1  0  0  0  0
 35 40  1  6  0  0  0
 36 24  1  6  0  0  0
 36 37  1  0  0  0  0
 37 38  1  0  0  0  0
 37 41  1  6  0  0  0
 38 42  1  1  0  0  0
M  CHG  6  14   1  20   1  26   1  32   1  39   1  40   1
M  END
>  <CHROM.1>
-81.27427703,148.77327368,-70.47510564,-27.57948269,-47.73072678,79.10538561
164.72036992,152.48711714,-63.17991981,50.72454553,171.90717921,-46.42714475
115.80016430,-60.59407105,57.39717583,59.09265714,-66.03089845,117.45091837
-30.73705688,42.68080061,132.61290281,-64.57782322,-3.58124079,-4.99429982
1.40519467,-1.66126926,1.18620544,3.14134866

>  <Name>


>  <RI>
0

>  <Rbt.Current_Directory>
/home/itssahil/PROJECTS/Mol_Feturizer/New_Systems/rnas/1qd3

>  <Rbt.Executable>
rbdock ($Id: //depot/dev/client3/rdock/2013.1/src/exe/rbdock.cxx#4 $)

>  <Rbt.Library>
libRbt.so (2013.1, Build901 2013/11/27)

>  <Rbt.Parameter_File>
/export/apps/rDock/src/rDock_2013.1_src/data/scripts/dock_solv.prm

>  <Rbt.Receptor>
prm/blind_docking_60.prm

>  <SCORE>
-76.3435

>  <SCORE.INTER>
-65.8891

>  <SCORE.INTER.CONST>
1

>  <SCORE.INTER.POLAR>
-9.07826

>  <SCORE.INTER.ROT>
9

>  <SCORE.INTER.SOLV>
36.311

>  <SCORE.INTER.VDW>
-35.3689

>  <SCORE.INTER.norm>
-1.56879

>  <SCORE.INTRA>
-11.7232

>  <SCORE.INTRA.DIHEDRAL>
-3.90483

>  <SCORE.INTRA.DIHEDRAL.0>
40.6252

>  <SCORE.INTRA.POLAR>
-0.604913

>  <SCORE.INTRA.POLAR.0>
-1.20161

>  <SCORE.INTRA.REPUL>
-0.115675

>  <SCORE.INTRA.REPUL.0>
0.115675

>  <SCORE.INTRA.SOLV>
-4.7708

>  <SCORE.INTRA.SOLV.lig_0>
-154.895

>  <SCORE.INTRA.VDW>
-4.75028

>  <SCORE.INTRA.VDW.0>
2.2925

>  <SCORE.INTRA.norm>
-0.279123

>  <SCORE.RESTR>
1.26881

>  <SCORE.RESTR.CAVITY>
1.26881

>  <SCORE.RESTR.norm>
0.0302098

>  <SCORE.SYSTEM>
0

>  <SCORE.SYSTEM.CONST>
0

>  <SCORE.SYSTEM.DIHEDRAL>
0

>  <SCORE.SYSTEM.SOLV>
0

>  <SCORE.SYSTEM.norm>
0

>  <SCORE.heavy>
42

>  <SCORE.norm>
-1.8177

>  <RMSD>
15.009

$$$$

 OpenBabel11021811413D
libRbt.so/2013.1/901 2013/11/27
 42 45  0  0  0  0  0  0  0  0999 V2000
   -4.4195   -1.9928    1.8854 O   0  0  0  0  0  0  0  0  0  0  0  0
   -4.9708   -2.6815    0.7722 C   0  0  0  0  0  0  0  0  0  0  0  0
   -5.6084   -3.9912    1.2376 C   0  0  1  0  0  0  0  0  0  0  0  0
   -6.2340   -4.6899    0.1395 O   0  0  0  0  0  0  0  0  0  0  0  0
   -4.6103   -4.9694    1.8347 C   0  0  2  0  0  0  0  0  0  0  0  0
   -5.3923   -6.2672    1.7209 C   0  0  1  0  0  0  0  0  0  0  0  0
   -6.3756   -6.3278    2.7483 O   0  0  0  0  0  0  0  0  0  0  0  0
   -6.0779   -6.1165    0.3476 C   0  0  2  0  0  0  0  0  0  0  0  0
   -1.1444   -4.6490    5.0534 C   0  0  2  0  0  0  0  0  0  0  0  0
   -2.4843   -4.2852    4.6872 O   0  0  0  0  0  0  0  0  0  0  0  0
   -2.9695   -5.0652    3.5796 C   0  0  2  0  0  0  0  0  0  0  0  0
   -4.2936   -4.6356    3.2004 O   0  0  0  0  0  0  0  0  0  0  0  0
   -2.9741   -6.5629    3.9310 C   0  0  2  0  0  0  0  0  0  0  0  0
   -4.0917   -6.8846    4.7992 N   0  3  0  0  0  0  0  0  0  0  0  0
   -1.6559   -7.0366    4.5544 C   0  0  1  0  0  0  0  0  0  0  0  0
   -0.6829   -7.1959    3.5342 O   0  0  0  0  0  0  0  0  0  0  0  0
   -1.1343   -6.0665    5.6110 C   0  0  2  0  0  0  0  0  0  0  0  0
   -1.9439   -6.1393    6.7789 O   0  0  0  0  0  0  0  0  0  0  0  0
   -0.5775   -3.6614    6.0693 C   0  0  0  0  0  0  0  0  0  0  0  0
    0.7189   -4.1092    6.5421 N   0  3  0  0  0  0  0  0  0  0  0  0
   -6.3737   -2.6755   -4.5414 C   0  0  1  0  0  0  0  0  0  0  0  0
   -6.6369   -2.8269   -3.1307 O   0  0  0  0  0  0  0  0  0  0  0  0
   -6.3890   -4.1653   -2.6422 C   0  0  2  0  0  0  0  0  0  0  0  0
   -4.9861   -4.5203   -2.7178 O   0  0  0  0  0  0  0  0  0  0  0  0
   -7.2579   -5.1834   -3.3907 C   0  0  2  0  0  0  0  0  0  0  0  0
   -6.8510   -6.5323   -3.0434 N   0  3  0  0  0  0  0  0  0  0  0  0
   -7.1628   -5.0048   -4.9019 C   0  0  1  0  0  0  0  0  0  0  0  0
   -8.1509   -5.7988   -5.5401 O   0  0  0  0  0  0  0  0  0  0  0  0
   -7.3140   -3.5580   -5.3459 C   0  0  2  0  0  0  0  0  0  0  0  0
   -7.0299   -3.4348   -6.7318 O   0  0  0  0  0  0  0  0  0  0  0  0
   -6.6180   -1.2303   -4.9661 C   0  0  0  0  0  0  0  0  0  0  0  0
   -5.4850   -0.3932   -4.6164 N   0  3  0  0  0  0  0  0  0  0  0  0
   -1.7797   -5.2773   -0.0261 C   0  0  2  0  0  0  0  0  0  0  0  0
   -2.2127   -3.8390   -0.2310 C   0  0  0  0  0  0  0  0  0  0  0  0
   -3.0583   -3.7119   -1.4846 C   0  0  1  0  0  0  0  0  0  0  0  0
   -4.3405   -4.5429   -1.4177 C   0  0  2  0  0  0  0  0  0  0  0  0
   -4.0338   -6.0017   -1.0070 C   0  0  1  0  0  0  0  0  0  0  0  0
   -2.9906   -6.1917    0.1020 C   0  0  1  0  0  0  0  0  0  0  0  0
   -0.9695   -5.3704    1.1734 N   0  3  0  0  0  0  0  0  0  0  0  0
   -3.3686   -2.3127   -1.7038 N   0  3  0  0  0  0  0  0  0  0  0  0
   -5.2441   -6.7271   -0.6788 O   0  0  0  0  0  0  0  0  0  0  0  0
   -2.5650   -7.5500    0.1357 O   0  0  0  0  0  0  0  0  0  0  0  0
  1  2  1  0  0  0  0
  3  2  1  6  0  0  0
  3  4  1  0  0  0  0
  3  5  1  0  0  0  0
  4  8  1  0  0  0  0
  5  6  1  0  0  0  0
  5 12  1  1  0  0  0
  6  7  1  1  0  0  0
  6  8  1  0  0  0  0
  8 41  1  6  0  0  0
  9 10  1  0  0  0  0
  9 17  1  0  0  0  0
  9 19  1  1  0  0  0
 10 11  1  0  0  0  0
 11 12  1  1  0  0  0
 11 13  1  0  0  0  0
 13 14  1  1  0  0  0
 13 15  1  0  0  0  0
 15 16  1  6  0  0  0
 15 17  1  0  0  0  0
 17 18  1  1  0  0  0
 19 20  1  0  0  0  0
 21 22  1  0  0  0  0
 21 29  1  0  0  0  0
 21 31  1  6  0  0  0
 22 23  1  0  0  0  0
 23 24  1  6  0  0  0
 23 25  1  0  0  0  0
 25 26  1  6  0  0  0
 25 27  1  0  0  0  0
 27 28  1  6  0  0  0
 27 29  1  0  0  0  0
 29 30  1  6  0  0  0
 31 32  1  0  0  0  0
 33 34  1  0  0  0  0
 33 38  1  0  0  0  0
 33 39  1  1  0  0  0
 34 35  1  0  0  0  0
 35 36  1  0  0  0  0
 35 40  1  1  0  0  0
 36 24  1  6  0  0  0
 36 37  1  0  0  0  0
 37 38  1  0  0  0  0
 37 41  1  1  0  0  0
 38 42  1  6  0  0  0
M  CHG  6  14   1  20   1  26   1  32   1  39   1  40   1
M  END
>  <CHROM.1>
-174.95085254,177.35690581,-151.77479335,-41.09296894,44.82596521,173.99201792
156.74397768,99.88767995,-70.95648130,56.64371010,167.24801669,79.91434101
106.85469218,-129.52829004,159.05559635,-171.40752954,57.33597376,172.73332579
-100.22135684,-14.48953920,-55.27842360,-179.39106913,-4.22170212,-4.76223483
0.30844140,-0.75735829,-0.88666745,-0.69020571

>  <Name>


>  <RI>
0

>  <Rbt.Current_Directory>
/home/itssahil/PROJECTS/Mol_Feturizer/New_Systems/rnas/1qd3

>  <Rbt.Executable>
rbdock ($Id: //depot/dev/client3/rdock/2013.1/src/exe/rbdock.cxx#4 $)

>  <Rbt.Library>
libRbt.so (2013.1, Build901 2013/11/27)

>  <Rbt.Parameter_File>
/export/apps/rDock/src/rDock_2013.1_src/data/scripts/dock_solv.prm

>  <Rbt.Receptor>
prm/blind_docking_40.prm

>  <SCORE>
-33.6704

>  <SCORE.INTER>
-25.3869

>  <SCORE.INTER.CONST>
1

>  <SCORE.INTER.POLAR>
-1.63495

>  <SCORE.INTER.ROT>
9

>  <SCORE.INTER.SOLV>
23.5795

>  <SCORE.INTER.VDW>
-28.9346

>  <SCORE.INTER.norm>
-0.60445

>  <SCORE.INTRA>
-10.1483

>  <SCORE.INTRA.DIHEDRAL>
-6.59098

>  <SCORE.INTRA.DIHEDRAL.0>
40.6252

>  <SCORE.INTRA.POLAR>
-0.968332

>  <SCORE.INTRA.POLAR.0>
-1.20161

>  <SCORE.INTRA.REPUL>
-0.115675

>  <SCORE.INTRA.REPUL.0>
0.115675

>  <SCORE.INTRA.SOLV>
2.42405

>  <SCORE.INTRA.SOLV.lig_0>
-154.895

>  <SCORE.INTRA.VDW>
-4.19414

>  <SCORE.INTRA.VDW.0>
2.2925

>  <SCORE.INTRA.norm>
-0.241626

>  <SCORE.RESTR>
1.86478

>  <SCORE.RESTR.CAVITY>
1.86478

>  <SCORE.RESTR.norm>
0.0443994

>  <SCORE.SYSTEM>
0

>  <SCORE.SYSTEM.CONST>
0

>  <SCORE.SYSTEM.DIHEDRAL>
0

>  <SCORE.SYSTEM.SOLV>
0

>  <SCORE.SYSTEM.norm>
0

>  <SCORE.heavy>
42

>  <SCORE.norm>
-0.801677

>  <RMSD>
15.024

$$$$

 OpenBabel11021811413D
libRbt.so/2013.1/901 2013/11/27
 42 45  0  0  0  0  0  0  0  0999 V2000
   -3.0891   -3.9687    4.3725 O   0  0  0  0  0  0  0  0  0  0  0  0
   -3.8149   -3.5635    3.2207 C   0  0  0  0  0  0  0  0  0  0  0  0
   -4.8907   -4.6005    2.8954 C   0  0  1  0  0  0  0  0  0  0  0  0
   -5.5497   -4.2992    1.6462 O   0  0  0  0  0  0  0  0  0  0  0  0
   -4.3438   -6.0102    2.7445 C   0  0  2  0  0  0  0  0  0  0  0  0
   -5.4727   -6.6634    1.9649 C   0  0  1  0  0  0  0  0  0  0  0  0
   -6.5548   -6.9580    2.8414 O   0  0  0  0  0  0  0  0  0  0  0  0
   -5.8821   -5.5458    0.9841 C   0  0  2  0  0  0  0  0  0  0  0  0
   -2.1933   -9.3497    2.5291 C   0  0  2  0  0  0  0  0  0  0  0  0
   -3.0946   -8.2356    2.6192 O   0  0  0  0  0  0  0  0  0  0  0  0
   -3.1706   -7.7126    3.9577 C   0  0  2  0  0  0  0  0  0  0  0  0
   -4.1266   -6.6341    4.0253 O   0  0  0  0  0  0  0  0  0  0  0  0
   -1.7885   -7.2319    4.4321 C   0  0  2  0  0  0  0  0  0  0  0  0
   -1.4515   -5.9565    3.8270 N   0  3  0  0  0  0  0  0  0  0  0  0
   -0.6772   -8.2572    4.1781 C   0  0  1  0  0  0  0  0  0  0  0  0
   -0.7477   -9.2805    5.1583 O   0  0  0  0  0  0  0  0  0  0  0  0
   -0.7684   -8.8761    2.7859 C   0  0  2  0  0  0  0  0  0  0  0  0
   -0.3853   -7.9206    1.8038 O   0  0  0  0  0  0  0  0  0  0  0  0
   -2.3045  -10.0223    1.1638 C   0  0  0  0  0  0  0  0  0  0  0  0
   -3.6273  -10.5909    0.9854 N   0  3  0  0  0  0  0  0  0  0  0  0
   -7.1211   -6.1925   -2.8645 C   0  0  1  0  0  0  0  0  0  0  0  0
   -5.7667   -5.6954   -2.8422 O   0  0  0  0  0  0  0  0  0  0  0  0
   -5.6761   -4.2697   -3.0671 C   0  0  2  0  0  0  0  0  0  0  0  0
   -6.2843   -3.5103   -1.9932 O   0  0  0  0  0  0  0  0  0  0  0  0
   -6.2875   -3.8966   -4.4231 C   0  0  2  0  0  0  0  0  0  0  0  0
   -6.3817   -2.4536   -4.5439 N   0  3  0  0  0  0  0  0  0  0  0  0
   -7.6731   -4.5062   -4.6052 C   0  0  1  0  0  0  0  0  0  0  0  0
   -8.0972   -4.3364   -5.9489 O   0  0  0  0  0  0  0  0  0  0  0  0
   -7.7324   -5.9815   -4.2401 C   0  0  2  0  0  0  0  0  0  0  0  0
   -9.0768   -6.4387   -4.2501 O   0  0  0  0  0  0  0  0  0  0  0  0
   -7.1321   -7.6913   -2.5779 C   0  0  0  0  0  0  0  0  0  0  0  0
   -6.6479   -7.9618   -1.2366 N   0  3  0  0  0  0  0  0  0  0  0  0
   -2.4969   -2.9771   -0.1301 C   0  0  2  0  0  0  0  0  0  0  0  0
   -3.4984   -1.8423   -0.0447 C   0  0  0  0  0  0  0  0  0  0  0  0
   -4.5988   -2.0259   -1.0734 C   0  0  1  0  0  0  0  0  0  0  0  0
   -5.3914   -3.3170   -0.8649 C   0  0  2  0  0  0  0  0  0  0  0  0
   -4.4446   -4.5317   -0.7281 C   0  0  1  0  0  0  0  0  0  0  0  0
   -3.1787   -4.3170    0.1120 C   0  0  1  0  0  0  0  0  0  0  0  0
   -1.4543   -2.7751    0.8579 N   0  3  0  0  0  0  0  0  0  0  0  0
   -5.4795   -0.8748   -1.0320 N   0  3  0  0  0  0  0  0  0  0  0  0
   -5.1526   -5.7082   -0.2660 O   0  0  0  0  0  0  0  0  0  0  0  0
   -2.2565   -5.3750   -0.1269 O   0  0  0  0  0  0  0  0  0  0  0  0
  1  2  1  0  0  0  0
  3  2  1  6  0  0  0
  3  4  1  0  0  0  0
  3  5  1  0  0  0  0
  4  8  1  0  0  0  0
  5  6  1  0  0  0  0
  5 12  1  1  0  0  0
  6  7  1  1  0  0  0
  6  8  1  0  0  0  0
  8 41  1  6  0  0  0
  9 10  1  0  0  0  0
  9 17  1  0  0  0  0
  9 19  1  6  0  0  0
 10 11  1  0  0  0  0
 11 12  1  6  0  0  0
 11 13  1  0  0  0  0
 13 14  1  6  0  0  0
 13 15  1  0  0  0  0
 15 16  1  1  0  0  0
 15 17  1  0  0  0  0
 17 18  1  6  0  0  0
 19 20  1  0  0  0  0
 21 22  1  0  0  0  0
 21 29  1  0  0  0  0
 21 31  1  6  0  0  0
 22 23  1  0  0  0  0
 23 24  1  1  0  0  0
 23 25  1  0  0  0  0
 25 26  1  1  0  0  0
 25 27  1  0  0  0  0
 27 28  1  6  0  0  0
 27 29  1  0  0  0  0
 29 30  1  1  0  0  0
 31 32  1  0  0  0  0
 33 34  1  0  0  0  0
 33 38  1  0  0  0  0
 33 39  1  1  0  0  0
 34 35  1  0  0  0  0
 35 36  1  0  0  0  0
 35 40  1  1  0  0  0
 36 24  1  6  0  0  0
 36 37  1  0  0  0  0
 37 38  1  0  0  0  0
 37 41  1  1  0  0  0
 38 42  1  6  0  0  0
M  CHG  6  14   1  20   1  26   1  32   1  39   1  40   1
M  END
>  <CHROM.1>
-56.63196934,-173.54947060,-157.87616263,170.73886727,-10.66847542,-64.05879916
-23.29770841,-178.02901517,-177.10965873,-51.01612279,-59.96493226,64.04799898
83.51740979,89.85360325,-174.57930765,-57.71328563,-63.76515928,84.23631116
10.55496604,57.55422619,-55.56758820,-69.81297050,-4.42508115,-5.68061195
0.29196424,-0.49657504,-0.92962410,-0.15183777

>  <Name>


>  <RI>
0

>  <Rbt.Current_Directory>
/home/itssahil/PROJECTS/Mol_Feturizer/New_Systems/rnas/1qd3

>  <Rbt.Executable>
rbdock ($Id: //depot/dev/client3/rdock/2013.1/src/exe/rbdock.cxx#4 $)

>  <Rbt.Library>
libRbt.so (2013.1, Build901 2013/11/27)

>  <Rbt.Parameter_File>
/export/apps/rDock/src/rDock_2013.1_src/data/scripts/dock_solv.prm

>  <Rbt.Receptor>
prm/blind_docking_40.prm

>  <SCORE>
-53.1324

>  <SCORE.INTER>
-41.2216

>  <SCORE.INTER.CONST>
1

>  <SCORE.INTER.POLAR>
-5.03724

>  <SCORE.INTER.ROT>
9

>  <SCORE.INTER.SOLV>
25.0668

>  <SCORE.INTER.VDW>
-28.6459

>  <SCORE.INTER.norm>
-0.981466

>  <SCORE.INTRA>
-14.9605

>  <SCORE.INTRA.DIHEDRAL>
-13.4429

>  <SCORE.INTRA.DIHEDRAL.0>
40.6252

>  <SCORE.INTRA.POLAR>
-1.24578

>  <SCORE.INTRA.POLAR.0>
-1.20161

>  <SCORE.INTRA.REPUL>
-0.01777

>  <SCORE.INTRA.REPUL.0>
0.115675

>  <SCORE.INTRA.SOLV>
-0.802215

>  <SCORE.INTRA.SOLV.lig_0>
-154.895

>  <SCORE.INTRA.VDW>
-3.51341

>  <SCORE.INTRA.VDW.0>
2.2925

>  <SCORE.INTRA.norm>
-0.356202

>  <SCORE.RESTR>
3.04966

>  <SCORE.RESTR.CAVITY>
3.04966

>  <SCORE.RESTR.norm>
0.0726109

>  <SCORE.SYSTEM>
0

>  <SCORE.SYSTEM.CONST>
0

>  <SCORE.SYSTEM.DIHEDRAL>
0

>  <SCORE.SYSTEM.SOLV>
0

>  <SCORE.SYSTEM.norm>
0

>  <SCORE.heavy>
42

>  <SCORE.norm>
-1.26506

>  <RMSD>
15.026

$$$$

 OpenBabel11021811413D
libRbt.so/2013.1/901 2013/11/27
 42 45  0  0  0  0  0  0  0  0999 V2000
   -3.2445   -2.6153    3.4454 O   0  0  0  0  0  0  0  0  0  0  0  0
   -3.0301   -4.0065    3.6357 C   0  0  0  0  0  0  0  0  0  0  0  0
   -4.1920   -4.7967    3.0323 C   0  0  1  0  0  0  0  0  0  0  0  0
   -4.6414   -4.2060    1.7935 O   0  0  0  0  0  0  0  0  0  0  0  0
   -3.8341   -6.2353    2.6981 C   0  0  2  0  0  0  0  0  0  0  0  0
   -4.9378   -6.5729    1.7097 C   0  0  1  0  0  0  0  0  0  0  0  0
   -6.1511   -6.8228    2.4106 O   0  0  0  0  0  0  0  0  0  0  0  0
   -5.0607   -5.2670    0.8984 C   0  0  2  0  0  0  0  0  0  0  0  0
   -2.7409   -9.9409    1.9021 C   0  0  2  0  0  0  0  0  0  0  0  0
   -3.1931   -8.6105    2.1972 O   0  0  0  0  0  0  0  0  0  0  0  0
   -3.3580   -8.4000    3.6111 C   0  0  2  0  0  0  0  0  0  0  0  0
   -3.8680   -7.0752    3.8688 O   0  0  0  0  0  0  0  0  0  0  0  0
   -2.0261   -8.6129    4.3507 C   0  0  2  0  0  0  0  0  0  0  0  0
   -1.1461   -7.4738    4.1646 N   0  3  0  0  0  0  0  0  0  0  0  0
   -1.3169   -9.9110    3.9472 C   0  0  1  0  0  0  0  0  0  0  0  0
   -1.9432  -11.0094    4.5909 O   0  0  0  0  0  0  0  0  0  0  0  0
   -1.3271  -10.1303    2.4368 C   0  0  2  0  0  0  0  0  0  0  0  0
   -0.4385   -9.2145    1.8072 O   0  0  0  0  0  0  0  0  0  0  0  0
   -2.7938  -10.2062    0.4002 C   0  0  0  0  0  0  0  0  0  0  0  0
   -4.0979  -10.7171    0.0216 N   0  3  0  0  0  0  0  0  0  0  0  0
   -8.3103   -3.8615   -3.9352 C   0  0  1  0  0  0  0  0  0  0  0  0
   -8.2222   -3.8146   -2.4957 O   0  0  0  0  0  0  0  0  0  0  0  0
   -7.0691   -4.5107   -1.9694 C   0  0  2  0  0  0  0  0  0  0  0  0
   -5.8263   -3.8758   -2.3594 O   0  0  0  0  0  0  0  0  0  0  0  0
   -7.0911   -5.9860   -2.3875 C   0  0  2  0  0  0  0  0  0  0  0  0
   -5.8338   -6.6194   -2.0359 N   0  3  0  0  0  0  0  0  0  0  0  0
   -7.3312   -6.1456   -3.8846 C   0  0  1  0  0  0  0  0  0  0  0  0
   -7.5786   -7.5101   -4.1863 O   0  0  0  0  0  0  0  0  0  0  0  0
   -8.4834   -5.2978   -4.4014 C   0  0  2  0  0  0  0  0  0  0  0  0
   -8.5340   -5.3459   -5.8198 O   0  0  0  0  0  0  0  0  0  0  0  0
   -9.5260   -3.0708   -4.4102 C   0  0  0  0  0  0  0  0  0  0  0  0
   -9.5363   -2.9640   -5.8577 N   0  3  0  0  0  0  0  0  0  0  0  0
   -2.5595   -1.9186   -0.4627 C   0  0  2  0  0  0  0  0  0  0  0  0
   -3.8683   -1.1633   -0.5849 C   0  0  0  0  0  0  0  0  0  0  0  0
   -4.7686   -1.8228   -1.6132 C   0  0  1  0  0  0  0  0  0  0  0  0
   -5.1336   -3.2607   -1.2416 C   0  0  2  0  0  0  0  0  0  0  0  0
   -3.8699   -4.0792   -0.8899 C   0  0  1  0  0  0  0  0  0  0  0  0
   -2.8072   -3.3623   -0.0466 C   0  0  1  0  0  0  0  0  0  0  0  0
   -1.7164   -1.2657    0.5205 N   0  3  0  0  0  0  0  0  0  0  0  0
   -5.9644   -1.0194   -1.7768 N   0  3  0  0  0  0  0  0  0  0  0  0
   -4.2113   -5.3492   -0.2820 O   0  0  0  0  0  0  0  0  0  0  0  0
   -1.5849   -4.0910   -0.0905 O   0  0  0  0  0  0  0  0  0  0  0  0
  1  2  1  0  0  0  0
  3  2  1  6  0  0  0
  3  4  1  0  0  0  0
  3  5  1  0  0  0  0
  4  8  1  0  0  0  0
  5  6  1  0  0  0  0
  5 12  1  1  0  0  0
  6  7  1  1  0  0  0
  6  8  1  0  0  0  0
  8 41  1  6  0  0  0
  9 10  1  0  0  0  0
  9 17  1  0  0  0  0
  9 19  1  6  0  0  0
 10 11  1  0  0  0  0
 11 12  1  6  0  0  0
 11 13  1  0  0  0  0
 13 14  1  6  0  0  0
 13 15  1  0  0  0  0
 15 16  1  1  0  0  0
 15 17  1  0  0  0  0
 17 18  1  6  0  0  0
 19 20  1  0  0  0  0
 21 22  1  0  0  0  0
 21 29  1  0  0  0  0
 21 31  1  1  0  0  0
 22 23  1  0  0  0  0
 23 24  1  6  0  0  0
 23 25  1  0  0  0  0
 25 26  1  6  0  0  0
 25 27  1  0  0  0  0
 27 28  1  1  0  0  0
 27 29  1  0  0  0  0
 29 30  1  6  0  0  0
 31 32  1  0  0  0  0
 33 34  1  0  0  0  0
 33 38  1  0  0  0  0
 33 39  1  1  0  0  0
 34 35  1  0  0  0  0
 35 36  1  0  0  0  0
 35 40  1  1  0  0  0
 36 24  1  6  0  0  0
 36 37  1  0  0  0  0
 37 38  1  0  0  0  0
 37 41  1  1  0  0  0
 38 42  1  6  0  0  0
M  CHG  6  14   1  20   1  26   1  32   1  39   1  40   1
M  END
>  <CHROM.1>
162.97168238,38.54254719,-172.12893701,78.21027587,-43.31580159,-88.28042502
-11.15905171,-13.31430255,-177.04454661,-39.23136364,50.72650538,172.76237984
111.36370747,-129.63085338,17.67864510,-67.31120044,61.98759089,177.66585129
-67.56973540,-69.78579695,-55.25644516,-61.66963738,-4.59553943,-5.67256199
0.04729430,-0.57395832,-0.87444892,-0.09829424

>  <Name>


>  <RI>
0

>  <Rbt.Current_Directory>
/home/itssahil/PROJECTS/Mol_Feturizer/New_Systems/rnas/1qd3

>  <Rbt.Executable>
rbdock ($Id: //depot/dev/client3/rdock/2013.1/src/exe/rbdock.cxx#4 $)

>  <Rbt.Library>
libRbt.so (2013.1, Build901 2013/11/27)

>  <Rbt.Parameter_File>
/export/apps/rDock/src/rDock_2013.1_src/data/scripts/dock_solv.prm

>  <Rbt.Receptor>
prm/blind_docking_80.prm

>  <SCORE>
-53.1513

>  <SCORE.INTER>
-45.8502

>  <SCORE.INTER.CONST>
1

>  <SCORE.INTER.POLAR>
-6.5665

>  <SCORE.INTER.ROT>
9

>  <SCORE.INTER.SOLV>
24.8856

>  <SCORE.INTER.VDW>
-26.5737

>  <SCORE.INTER.norm>
-1.09167

>  <SCORE.INTRA>
-8.14007

>  <SCORE.INTRA.DIHEDRAL>
-1.73936

>  <SCORE.INTRA.DIHEDRAL.0>
40.6252

>  <SCORE.INTRA.POLAR>
-0.058873

>  <SCORE.INTRA.POLAR.0>
-1.20161

>  <SCORE.INTRA.REPUL>
-0.0993419

>  <SCORE.INTRA.REPUL.0>
0.115675

>  <SCORE.INTRA.SOLV>
-4.04852

>  <SCORE.INTRA.SOLV.lig_0>
-154.895

>  <SCORE.INTRA.VDW>
-4.54926

>  <SCORE.INTRA.VDW.0>
2.2925

>  <SCORE.INTRA.norm>
-0.193811

>  <SCORE.RESTR>
0.83892

>  <SCORE.RESTR.CAVITY>
0.83892

>  <SCORE.RESTR.norm>
0.0199743

>  <SCORE.SYSTEM>
0

>  <SCORE.SYSTEM.CONST>
0

>  <SCORE.SYSTEM.DIHEDRAL>
0

>  <SCORE.SYSTEM.SOLV>
0

>  <SCORE.SYSTEM.norm>
0

>  <SCORE.heavy>
42

>  <SCORE.norm>
-1.26551

>  <RMSD>
15.034

$$$$

 OpenBabel11021811413D
libRbt.so/2013.1/901 2013/11/27
 42 45  0  0  0  0  0  0  0  0999 V2000
   -7.9609   -7.6957   -1.6581 O   0  0  0  0  0  0  0  0  0  0  0  0
   -6.6922   -7.1152   -1.9250 C   0  0  0  0  0  0  0  0  0  0  0  0
   -6.8296   -5.5957   -2.0284 C   0  0  1  0  0  0  0  0  0  0  0  0
   -6.5496   -4.9560   -0.7642 O   0  0  0  0  0  0  0  0  0  0  0  0
   -5.8722   -4.9700   -3.0290 C   0  0  2  0  0  0  0  0  0  0  0  0
   -5.8799   -3.5265   -2.5545 C   0  0  1  0  0  0  0  0  0  0  0  0
   -7.0742   -2.8844   -2.9871 O   0  0  0  0  0  0  0  0  0  0  0  0
   -5.8971   -3.6866   -1.0206 C   0  0  2  0  0  0  0  0  0  0  0  0
   -9.1211   -3.0030   -5.5043 C   0  0  2  0  0  0  0  0  0  0  0  0
   -7.7823   -3.5074   -5.3831 O   0  0  0  0  0  0  0  0  0  0  0  0
   -7.7182   -4.6621   -4.5269 C   0  0  2  0  0  0  0  0  0  0  0  0
   -6.3538   -5.1077   -4.3803 O   0  0  0  0  0  0  0  0  0  0  0  0
   -8.5945   -5.7984   -5.0814 C   0  0  2  0  0  0  0  0  0  0  0  0
   -7.9443   -6.4490   -6.2041 N   0  3  0  0  0  0  0  0  0  0  0  0
  -10.0026   -5.3339   -5.4716 C   0  0  1  0  0  0  0  0  0  0  0  0
  -10.7913   -5.1873   -4.3014 O   0  0  0  0  0  0  0  0  0  0  0  0
   -9.9842   -4.0175   -6.2437 C   0  0  2  0  0  0  0  0  0  0  0  0
   -9.4747   -4.2307   -7.5550 O   0  0  0  0  0  0  0  0  0  0  0  0
   -9.1259   -1.6578   -6.2249 C   0  0  0  0  0  0  0  0  0  0  0  0
   -8.1851   -1.6713   -7.3292 N   0  3  0  0  0  0  0  0  0  0  0  0
   -2.5963   -6.3192    3.9338 C   0  0  1  0  0  0  0  0  0  0  0  0
   -2.6013   -6.1827    2.4974 O   0  0  0  0  0  0  0  0  0  0  0  0
   -3.8651   -5.7170    1.9707 C   0  0  2  0  0  0  0  0  0  0  0  0
   -4.1649   -4.3640    2.3942 O   0  0  0  0  0  0  0  0  0  0  0  0
   -4.9968   -6.6791    2.3516 C   0  0  2  0  0  0  0  0  0  0  0  0
   -6.2798   -6.0978    2.0026 N   0  3  0  0  0  0  0  0  0  0  0  0
   -4.9833   -7.0061    3.8407 C   0  0  1  0  0  0  0  0  0  0  0  0
   -5.8855   -8.0693    4.1048 O   0  0  0  0  0  0  0  0  0  0  0  0
   -3.6028   -7.3748    4.3617 C   0  0  2  0  0  0  0  0  0  0  0  0
   -3.6221   -7.4826    5.7775 O   0  0  0  0  0  0  0  0  0  0  0  0
   -1.2193   -6.7721    4.4107 C   0  0  0  0  0  0  0  0  0  0  0  0
   -0.2451   -5.7077    4.2534 N   0  3  0  0  0  0  0  0  0  0  0  0
   -3.2788   -0.4257    1.0510 C   0  0  2  0  0  0  0  0  0  0  0  0
   -2.2748   -1.1120    1.9560 C   0  0  0  0  0  0  0  0  0  0  0  0
   -2.9113   -2.3016    2.6505 C   0  0  1  0  0  0  0  0  0  0  0  0
   -3.4028   -3.3649    1.6672 C   0  0  2  0  0  0  0  0  0  0  0  0
   -4.2811   -2.7332    0.5624 C   0  0  1  0  0  0  0  0  0  0  0  0
   -3.8007   -1.3909   -0.0048 C   0  0  1  0  0  0  0  0  0  0  0  0
   -2.6480    0.7093    0.4047 N   0  3  0  0  0  0  0  0  0  0  0  0
   -1.9560   -2.8707    3.5810 N   0  3  0  0  0  0  0  0  0  0  0  0
   -4.5306   -3.6668   -0.5169 O   0  0  0  0  0  0  0  0  0  0  0  0
   -4.8523   -0.7747   -0.7407 O   0  0  0  0  0  0  0  0  0  0  0  0
  1  2  1  0  0  0  0
  3  2  1  1  0  0  0
  3  4  1  0  0  0  0
  3  5  1  0  0  0  0
  4  8  1  0  0  0  0
  5  6  1  0  0  0  0
  5 12  1  6  0  0  0
  6  7  1  6  0  0  0
  6  8  1  0  0  0  0
  8 41  1  6  0  0  0
  9 10  1  0  0  0  0
  9 17  1  0  0  0  0
  9 19  1  6  0  0  0
 10 11  1  0  0  0  0
 11 12  1  6  0  0  0
 11 13  1  0  0  0  0
 13 14  1  6  0  0  0
 13 15  1  0  0  0  0
 15 16  1  1  0  0  0
 15 17  1  0  0  0  0
 17 18  1  6  0  0  0
 19 20  1  0  0  0  0
 21 22  1  0  0  0  0
 21 29  1  0  0  0  0
 21 31  1  6  0  0  0
 22 23  1  0  0  0  0
 23 24  1  1  0  0  0
 23 25  1  0  0  0  0
 25 26  1  1  0  0  0
 25 27  1  0  0  0  0
 27 28  1  6  0  0  0
 27 29  1  0  0  0  0
 29 30  1  1  0  0  0
 31 32  1  0  0  0  0
 33 34  1  0  0  0  0
 33 38  1  0  0  0  0
 33 39  1  6  0  0  0
 34 35  1  0  0  0  0
 35 36  1  0  0  0  0
 35 40  1  1  0  0  0
 36 24  1  1  0  0  0
 36 37  1  0  0  0  0
 37 38  1  0  0  0  0
 37 41  1  6  0  0  0
 38 42  1  1  0  0  0
M  CHG  6  14   1  20   1  26   1  32   1  39   1  40   1
M  END
>  <CHROM.1>
174.31710928,94.35989601,50.90394771,-80.23795530,-114.68672767,40.50411859
114.74727816,167.54798138,-177.68222260,46.38955074,83.12981864,70.30578507
76.45782900,-137.67419939,-163.44847578,178.53540852,-78.56875272,121.94289595
43.94604313,95.05145182,137.25102828,-174.24656939,-5.62221354,-4.45603447
-0.76873988,2.54013489,-0.87160231,-0.61425155

>  <Name>


>  <RI>
0

>  <Rbt.Current_Directory>
/home/itssahil/PROJECTS/Mol_Feturizer/New_Systems/rnas/1qd3

>  <Rbt.Executable>
rbdock ($Id: //depot/dev/client3/rdock/2013.1/src/exe/rbdock.cxx#4 $)

>  <Rbt.Library>
libRbt.so (2013.1, Build901 2013/11/27)

>  <Rbt.Parameter_File>
/export/apps/rDock/src/rDock_2013.1_src/data/scripts/dock_solv.prm

>  <Rbt.Receptor>
prm/blind_docking_100.prm

>  <SCORE>
-49.079

>  <SCORE.INTER>
-47.8998

>  <SCORE.INTER.CONST>
1

>  <SCORE.INTER.POLAR>
-7.71479

>  <SCORE.INTER.ROT>
9

>  <SCORE.INTER.SOLV>
37.9753

>  <SCORE.INTER.VDW>
-28.4756

>  <SCORE.INTER.norm>
-1.14047

>  <SCORE.INTRA>
-2.93858

>  <SCORE.INTRA.DIHEDRAL>
5.3846

>  <SCORE.INTRA.DIHEDRAL.0>
40.6252

>  <SCORE.INTRA.POLAR>
-0.124873

>  <SCORE.INTRA.POLAR.0>
-1.20161

>  <SCORE.INTRA.REPUL>
-0.115675

>  <SCORE.INTRA.REPUL.0>
0.115675

>  <SCORE.INTRA.SOLV>
-2.90412

>  <SCORE.INTRA.SOLV.lig_0>
-154.895

>  <SCORE.INTRA.VDW>
-3.17587

>  <SCORE.INTRA.VDW.0>
2.2925

>  <SCORE.INTRA.norm>
-0.0699661

>  <SCORE.RESTR>
1.75935

>  <SCORE.RESTR.CAVITY>
1.75935

>  <SCORE.RESTR.norm>
0.0418893

>  <SCORE.SYSTEM>
0

>  <SCORE.SYSTEM.CONST>
0

>  <SCORE.SYSTEM.DIHEDRAL>
0

>  <SCORE.SYSTEM.SOLV>
0

>  <SCORE.SYSTEM.norm>
0

>  <SCORE.heavy>
42

>  <SCORE.norm>
-1.16855

>  <RMSD>
15.041

$$$$

 OpenBabel11021811413D
libRbt.so/2013.1/901 2013/11/27
 42 45  0  0  0  0  0  0  0  0999 V2000
   -5.4170   -9.6293   -1.9478 O   0  0  0  0  0  0  0  0  0  0  0  0
   -5.4501   -8.7356   -0.8442 C   0  0  0  0  0  0  0  0  0  0  0  0
   -4.2297   -7.8152   -0.8867 C   0  0  1  0  0  0  0  0  0  0  0  0
   -4.4397   -6.7060   -1.7874 O   0  0  0  0  0  0  0  0  0  0  0  0
   -3.8937   -7.1960    0.4598 C   0  0  2  0  0  0  0  0  0  0  0  0
   -3.0374   -6.0209    0.0186 C   0  0  1  0  0  0  0  0  0  0  0  0
   -1.7342   -6.4780   -0.3257 O   0  0  0  0  0  0  0  0  0  0  0  0
   -3.7741   -5.5365   -1.2468 C   0  0  2  0  0  0  0  0  0  0  0  0
   -2.8979   -8.0129    4.9433 C   0  0  2  0  0  0  0  0  0  0  0  0
   -3.1186   -8.5475    3.6292 O   0  0  0  0  0  0  0  0  0  0  0  0
   -2.8860   -7.5656    2.6033 C   0  0  2  0  0  0  0  0  0  0  0  0
   -3.1724   -8.1173    1.3013 O   0  0  0  0  0  0  0  0  0  0  0  0
   -1.4362   -7.0545    2.6596 C   0  0  2  0  0  0  0  0  0  0  0  0
   -0.5235   -8.0317    2.0953 N   0  3  0  0  0  0  0  0  0  0  0  0
   -0.9939   -6.6601    4.0737 C   0  0  1  0  0  0  0  0  0  0  0  0
   -1.5394   -5.3921    4.4013 O   0  0  0  0  0  0  0  0  0  0  0  0
   -1.4206   -7.6859    5.1203 C   0  0  2  0  0  0  0  0  0  0  0  0
   -0.6383   -8.8672    4.9896 O   0  0  0  0  0  0  0  0  0  0  0  0
   -3.3681   -8.9973    6.0104 C   0  0  0  0  0  0  0  0  0  0  0  0
   -4.6748   -9.5278    5.6697 N   0  3  0  0  0  0  0  0  0  0  0  0
   -7.7299   -4.8767   -2.9352 C   0  0  1  0  0  0  0  0  0  0  0  0
   -6.3033   -4.6988   -2.8121 O   0  0  0  0  0  0  0  0  0  0  0  0
   -5.8585   -3.3707   -3.1722 C   0  0  2  0  0  0  0  0  0  0  0  0
   -6.3588   -2.3636   -2.2583 O   0  0  0  0  0  0  0  0  0  0  0  0
   -6.2459   -3.0450   -4.6198 C   0  0  2  0  0  0  0  0  0  0  0  0
   -5.9847   -1.6452   -4.8995 N   0  3  0  0  0  0  0  0  0  0  0  0
   -7.7157   -3.3447   -4.8926 C   0  0  1  0  0  0  0  0  0  0  0  0
   -7.9710   -3.2561   -6.2858 O   0  0  0  0  0  0  0  0  0  0  0  0
   -8.1539   -4.7100   -4.3853 C   0  0  2  0  0  0  0  0  0  0  0  0
   -9.5624   -4.8500   -4.4993 O   0  0  0  0  0  0  0  0  0  0  0  0
   -8.1203   -6.2856   -2.4977 C   0  0  0  0  0  0  0  0  0  0  0  0
   -7.1887   -7.2648   -3.0267 N   0  3  0  0  0  0  0  0  0  0  0  0
   -2.6899   -1.3053   -0.3825 C   0  0  2  0  0  0  0  0  0  0  0  0
   -3.9013   -0.4324   -0.1202 C   0  0  0  0  0  0  0  0  0  0  0  0
   -4.9820   -0.6992   -1.1516 C   0  0  1  0  0  0  0  0  0  0  0  0
   -5.4787   -2.1454   -1.1246 C   0  0  2  0  0  0  0  0  0  0  0  0
   -4.2946   -3.1383   -1.1780 C   0  0  1  0  0  0  0  0  0  0  0  0
   -3.0667   -2.7798   -0.3306 C   0  0  1  0  0  0  0  0  0  0  0  0
   -1.6713   -1.0272    0.6120 N   0  3  0  0  0  0  0  0  0  0  0  0
   -6.0807    0.2211   -0.9319 N   0  3  0  0  0  0  0  0  0  0  0  0
   -4.7216   -4.4912   -0.8845 O   0  0  0  0  0  0  0  0  0  0  0  0
   -1.9552   -3.5736   -0.7326 O   0  0  0  0  0  0  0  0  0  0  0  0
  1  2  1  0  0  0  0
  3  2  1  1  0  0  0
  3  4  1  0  0  0  0
  3  5  1  0  0  0  0
  4  8  1  0  0  0  0
  5  6  1  0  0  0  0
  5 12  1  1  0  0  0
  6  7  1  6  0  0  0
  6  8  1  0  0  0  0
  8 41  1  1  0  0  0
  9 10  1  0  0  0  0
  9 17  1  0  0  0  0
  9 19  1  1  0  0  0
 10 11  1  0  0  0  0
 11 12  1  6  0  0  0
 11 13  1  0  0  0  0
 13 14  1  1  0  0  0
 13 15  1  0  0  0  0
 15 16  1  1  0  0  0
 15 17  1  0  0  0  0
 17 18  1  6  0  0  0
 19 20  1  0  0  0  0
 21 22  1  0  0  0  0
 21 29  1  0  0  0  0
 21 31  1  6  0  0  0
 22 23  1  0  0  0  0
 23 24  1  1  0  0  0
 23 25  1  0  0  0  0
 25 26  1  1  0  0  0
 25 27  1  0  0  0  0
 27 28  1  6  0  0  0
 27 29  1  0  0  0  0
 29 30  1  1  0  0  0
 31 32  1  0  0  0  0
 33 34  1  0  0  0  0
 33 38  1  0  0  0  0
 33 39  1  1  0  0  0
 34 35  1  0  0  0  0
 35 36  1  0  0  0  0
 35 40  1  1  0  0  0
 36 24  1  6  0  0  0
 36 37  1  0  0  0  0
 37 38  1  0  0  0  0
 37 41  1  1  0  0  0
 38 42  1  6  0  0  0
M  CHG  6  14   1  20   1  26   1  32   1  39   1  40   1
M  END
>  <CHROM.1>
-174.09903757,82.07102529,-177.89109673,-83.93635121,-141.17120295,-45.68998917
137.45676851,-175.79097509,-170.09666080,-168.65578659,25.61420373,-43.10376211
88.97089968,117.90012048,72.53586566,69.64230220,-175.94521100,-54.89119531
-76.45091398,77.67020480,164.59265515,-47.47896507,-4.39133886,-5.30231410
-0.28644884,0.79272136,0.85490264,2.77570341

>  <Name>


>  <RI>
0

>  <Rbt.Current_Directory>
/home/itssahil/PROJECTS/Mol_Feturizer/New_Systems/rnas/1qd3

>  <Rbt.Executable>
rbdock ($Id: //depot/dev/client3/rdock/2013.1/src/exe/rbdock.cxx#4 $)

>  <Rbt.Library>
libRbt.so (2013.1, Build901 2013/11/27)

>  <Rbt.Parameter_File>
/export/apps/rDock/src/rDock_2013.1_src/data/scripts/dock_solv.prm

>  <Rbt.Receptor>
prm/blind_docking_80.prm

>  <SCORE>
-53.414

>  <SCORE.INTER>
-48.0997

>  <SCORE.INTER.CONST>
1

>  <SCORE.INTER.POLAR>
-7.76544

>  <SCORE.INTER.ROT>
9

>  <SCORE.INTER.SOLV>
35.928

>  <SCORE.INTER.VDW>
-27.7577

>  <SCORE.INTER.norm>
-1.14523

>  <SCORE.INTRA>
-7.7889

>  <SCORE.INTRA.DIHEDRAL>
-5.64494

>  <SCORE.INTRA.DIHEDRAL.0>
40.6252

>  <SCORE.INTRA.POLAR>
-0.234546

>  <SCORE.INTRA.POLAR.0>
-1.20161

>  <SCORE.INTRA.REPUL>
0.126366

>  <SCORE.INTRA.REPUL.0>
0.115675

>  <SCORE.INTRA.SOLV>
-4.68956

>  <SCORE.INTRA.SOLV.lig_0>
-154.895

>  <SCORE.INTRA.VDW>
-2.45602

>  <SCORE.INTRA.VDW.0>
2.2925

>  <SCORE.INTRA.norm>
-0.18545

>  <SCORE.RESTR>
2.47456

>  <SCORE.RESTR.CAVITY>
2.47456

>  <SCORE.RESTR.norm>
0.0589181

>  <SCORE.SYSTEM>
0

>  <SCORE.SYSTEM.CONST>
0

>  <SCORE.SYSTEM.DIHEDRAL>
0

>  <SCORE.SYSTEM.SOLV>
0

>  <SCORE.SYSTEM.norm>
0

>  <SCORE.heavy>
42

>  <SCORE.norm>
-1.27176

>  <RMSD>
15.049

$$$$

 OpenBabel11021811413D
libRbt.so/2013.1/901 2013/11/27
 42 45  0  0  0  0  0  0  0  0999 V2000
   -9.7147   -2.5371   -1.8321 O   0  0  0  0  0  0  0  0  0  0  0  0
   -9.3025   -3.8932   -1.9259 C   0  0  0  0  0  0  0  0  0  0  0  0
   -7.8423   -3.9605   -2.3749 C   0  0  1  0  0  0  0  0  0  0  0  0
   -7.0073   -3.0929   -1.5776 O   0  0  0  0  0  0  0  0  0  0  0  0
   -7.2355   -5.3480   -2.2486 C   0  0  2  0  0  0  0  0  0  0  0  0
   -5.7552   -5.0056   -2.2638 C   0  0  1  0  0  0  0  0  0  0  0  0
   -5.3406   -4.7230   -3.5957 O   0  0  0  0  0  0  0  0  0  0  0  0
   -5.7088   -3.7179   -1.4161 C   0  0  2  0  0  0  0  0  0  0  0  0
   -8.5634   -9.3849   -1.8424 C   0  0  2  0  0  0  0  0  0  0  0  0
   -8.6529   -8.0060   -2.2326 O   0  0  0  0  0  0  0  0  0  0  0  0
   -7.5238   -7.5974   -3.0256 C   0  0  2  0  0  0  0  0  0  0  0  0
   -7.6158   -6.1948   -3.3511 O   0  0  0  0  0  0  0  0  0  0  0  0
   -7.4295   -8.4387   -4.3100 C   0  0  2  0  0  0  0  0  0  0  0  0
   -8.4173   -8.0072   -5.2818 N   0  3  0  0  0  0  0  0  0  0  0  0
   -7.5531   -9.9448   -4.0509 C   0  0  1  0  0  0  0  0  0  0  0  0
   -6.3241  -10.4373   -3.5411 O   0  0  0  0  0  0  0  0  0  0  0  0
   -8.6795  -10.2731   -3.0746 C   0  0  2  0  0  0  0  0  0  0  0  0
   -9.9403  -10.0755   -3.7038 O   0  0  0  0  0  0  0  0  0  0  0  0
   -9.6459   -9.7266   -0.8225 C   0  0  0  0  0  0  0  0  0  0  0  0
  -10.9431   -9.2755   -1.2901 N   0  3  0  0  0  0  0  0  0  0  0  0
   -2.5405   -5.7570    4.8766 C   0  0  1  0  0  0  0  0  0  0  0  0
   -2.0586   -6.0507    3.5486 O   0  0  0  0  0  0  0  0  0  0  0  0
   -3.1149   -6.1588    2.5668 C   0  0  2  0  0  0  0  0  0  0  0  0
   -3.7947   -4.8961    2.3587 O   0  0  0  0  0  0  0  0  0  0  0  0
   -4.1056   -7.2621    2.9580 C   0  0  2  0  0  0  0  0  0  0  0  0
   -5.2645   -7.2193    2.0858 N   0  3  0  0  0  0  0  0  0  0  0  0
   -4.5626   -7.1237    4.4059 C   0  0  1  0  0  0  0  0  0  0  0  0
   -5.2825   -8.2839    4.7929 O   0  0  0  0  0  0  0  0  0  0  0  0
   -3.4156   -6.8941    5.3780 C   0  0  2  0  0  0  0  0  0  0  0  0
   -3.9179   -6.5876    6.6704 O   0  0  0  0  0  0  0  0  0  0  0  0
   -1.3651   -5.6178    5.8398 C   0  0  0  0  0  0  0  0  0  0  0  0
   -0.7602   -4.3033    5.7261 N   0  3  0  0  0  0  0  0  0  0  0  0
   -2.7145   -1.4070    0.1772 C   0  0  2  0  0  0  0  0  0  0  0  0
   -1.6179   -2.3903    0.5358 C   0  0  0  0  0  0  0  0  0  0  0  0
   -2.0867   -3.3345    1.6273 C   0  0  1  0  0  0  0  0  0  0  0  0
   -3.2948   -4.1714    1.2043 C   0  0  2  0  0  0  0  0  0  0  0  0
   -4.4116   -3.2754    0.6206 C   0  0  1  0  0  0  0  0  0  0  0  0
   -3.9586   -2.1398   -0.3066 C   0  0  1  0  0  0  0  0  0  0  0  0
   -2.2398   -0.5138   -0.8624 N   0  3  0  0  0  0  0  0  0  0  0  0
   -0.9834   -4.1918    2.0148 N   0  3  0  0  0  0  0  0  0  0  0  0
   -5.4411   -4.0630   -0.0266 O   0  0  0  0  0  0  0  0  0  0  0  0
   -5.0228   -1.2115   -0.4872 O   0  0  0  0  0  0  0  0  0  0  0  0
  1  2  1  0  0  0  0
  3  2  1  1  0  0  0
  3  4  1  0  0  0  0
  3  5  1  0  0  0  0
  4  8  1  0  0  0  0
  5  6  1  0  0  0  0
  5 12  1  6  0  0  0
  6  7  1  6  0  0  0
  6  8  1  0  0  0  0
  8 41  1  1  0  0  0
  9 10  1  0  0  0  0
  9 17  1  0  0  0  0
  9 19  1  1  0  0  0
 10 11  1  0  0  0  0
 11 12  1  6  0  0  0
 11 13  1  0  0  0  0
 13 14  1  6  0  0  0
 13 15  1  0  0  0  0
 15 16  1  1  0  0  0
 15 17  1  0  0  0  0
 17 18  1  6  0  0  0
 19 20  1  0  0  0  0
 21 22  1  0  0  0  0
 21 29  1  0  0  0  0
 21 31  1  1  0  0  0
 22 23  1  0  0  0  0
 23 24  1  1  0  0  0
 23 25  1  0  0  0  0
 25 26  1  6  0  0  0
 25 27  1  0  0  0  0
 27 28  1  1  0  0  0
 27 29  1  0  0  0  0
 29 30  1  1  0  0  0
 31 32  1  0  0  0  0
 33 34  1  0  0  0  0
 33 38  1  0  0  0  0
 33 39  1  6  0  0  0
 34 35  1  0  0  0  0
 35 36  1  0  0  0  0
 35 40  1  6  0  0  0
 36 24  1  1  0  0  0
 36 37  1  0  0  0  0
 37 38  1  0  0  0  0
 37 41  1  6  0  0  0
 38 42  1  1  0  0  0
M  CHG  6  14   1  20   1  26   1  32   1  39   1  40   1
M  END
>  <CHROM.1>
66.68346638,49.84155194,-157.04931004,170.47953773,-110.38561992,49.89226509
77.90505223,-77.82170682,-64.53779966,-170.14487371,40.53205488,80.29326461
97.10169315,-86.08305171,141.20231387,-175.30949359,-68.58992062,-169.71046006
-60.85742776,73.46626421,-124.24936249,66.13172722,-5.52562216,-5.77028413
0.03901649,-2.99171687,0.88004971,2.47195188

>  <Name>


>  <RI>
0

>  <Rbt.Current_Directory>
/home/itssahil/PROJECTS/Mol_Feturizer/New_Systems/rnas/1qd3

>  <Rbt.Executable>
rbdock ($Id: //depot/dev/client3/rdock/2013.1/src/exe/rbdock.cxx#4 $)

>  <Rbt.Library>
libRbt.so (2013.1, Build901 2013/11/27)

>  <Rbt.Parameter_File>
/export/apps/rDock/src/rDock_2013.1_src/data/scripts/dock_solv.prm

>  <Rbt.Receptor>
prm/blind_docking_60.prm

>  <SCORE>
-60.8021

>  <SCORE.INTER>
-49.1717

>  <SCORE.INTER.CONST>
1

>  <SCORE.INTER.POLAR>
-7.58702

>  <SCORE.INTER.ROT>
9

>  <SCORE.INTER.SOLV>
30.3557

>  <SCORE.INTER.VDW>
-27.2096

>  <SCORE.INTER.norm>
-1.17075

>  <SCORE.INTRA>
-14.8272

>  <SCORE.INTRA.DIHEDRAL>
-5.57651

>  <SCORE.INTRA.DIHEDRAL.0>
40.6252

>  <SCORE.INTRA.POLAR>
-1.17739

>  <SCORE.INTRA.POLAR.0>
-1.20161

>  <SCORE.INTRA.REPUL>
-0.115675

>  <SCORE.INTRA.REPUL.0>
0.115675

>  <SCORE.INTRA.SOLV>
-6.02762

>  <SCORE.INTRA.SOLV.lig_0>
-154.895

>  <SCORE.INTRA.VDW>
-4.44369

>  <SCORE.INTRA.VDW.0>
2.2925

>  <SCORE.INTRA.norm>
-0.35303

>  <SCORE.RESTR>
3.19682

>  <SCORE.RESTR.CAVITY>
3.19682

>  <SCORE.RESTR.norm>
0.0761148

>  <SCORE.SYSTEM>
0

>  <SCORE.SYSTEM.CONST>
0

>  <SCORE.SYSTEM.DIHEDRAL>
0

>  <SCORE.SYSTEM.SOLV>
0

>  <SCORE.SYSTEM.norm>
0

>  <SCORE.heavy>
42

>  <SCORE.norm>
-1.44767

>  <RMSD>
15.052

$$$$

 OpenBabel11021811413D
libRbt.so/2013.1/901 2013/11/27
 42 45  0  0  0  0  0  0  0  0999 V2000
   -2.2096   -1.8113   -1.1490 O   0  0  0  0  0  0  0  0  0  0  0  0
   -2.7496   -3.1245   -1.1115 C   0  0  0  0  0  0  0  0  0  0  0  0
   -4.0742   -3.1616   -1.8747 C   0  0  1  0  0  0  0  0  0  0  0  0
   -4.3442   -4.4818   -2.3940 O   0  0  0  0  0  0  0  0  0  0  0  0
   -5.2754   -2.8017   -1.0163 C   0  0  2  0  0  0  0  0  0  0  0  0
   -6.3989   -3.3967   -1.8485 C   0  0  1  0  0  0  0  0  0  0  0  0
   -6.6788   -2.5474   -2.9559 O   0  0  0  0  0  0  0  0  0  0  0  0
   -5.7744   -4.7165   -2.3450 C   0  0  2  0  0  0  0  0  0  0  0  0
   -3.2964   -1.1060    2.1151 C   0  0  2  0  0  0  0  0  0  0  0  0
   -3.7109   -1.4863    0.7941 O   0  0  0  0  0  0  0  0  0  0  0  0
   -4.9917   -0.9272    0.4507 C   0  0  2  0  0  0  0  0  0  0  0  0
   -5.4044   -1.3751   -0.8572 O   0  0  0  0  0  0  0  0  0  0  0  0
   -4.9436    0.6096    0.4984 C   0  0  2  0  0  0  0  0  0  0  0  0
   -4.2670    1.1401   -0.6709 N   0  3  0  0  0  0  0  0  0  0  0  0
   -4.3017    1.1500    1.7816 C   0  0  1  0  0  0  0  0  0  0  0  0
   -5.2350    1.0652    2.8468 O   0  0  0  0  0  0  0  0  0  0  0  0
   -3.0299    0.3933    2.1551 C   0  0  2  0  0  0  0  0  0  0  0  0
   -1.9824    0.7288    1.2525 O   0  0  0  0  0  0  0  0  0  0  0  0
   -2.0566   -1.8897    2.5362 C   0  0  0  0  0  0  0  0  0  0  0  0
   -2.2418   -3.3060    2.2818 N   0  3  0  0  0  0  0  0  0  0  0  0
   -4.1335   -7.0165    2.1021 C   0  0  1  0  0  0  0  0  0  0  0  0
   -4.4569   -6.0345    1.0955 O   0  0  0  0  0  0  0  0  0  0  0  0
   -3.5194   -6.0127   -0.0055 C   0  0  2  0  0  0  0  0  0  0  0  0
   -3.5543   -7.2411   -0.7733 O   0  0  0  0  0  0  0  0  0  0  0  0
   -2.1016   -5.7153    0.4977 C   0  0  2  0  0  0  0  0  0  0  0  0
   -1.1448   -5.9039   -0.5769 N   0  3  0  0  0  0  0  0  0  0  0  0
   -1.7194   -6.6100    1.6716 C   0  0  1  0  0  0  0  0  0  0  0  0
   -0.5097   -6.1469    2.2514 O   0  0  0  0  0  0  0  0  0  0  0  0
   -2.7958   -6.6860    2.7436 C   0  0  2  0  0  0  0  0  0  0  0  0
   -2.4623   -7.6729    3.7087 O   0  0  0  0  0  0  0  0  0  0  0  0
   -5.1906   -7.0040    3.2026 C   0  0  0  0  0  0  0  0  0  0  0  0
   -6.5233   -7.1047    2.6365 N   0  3  0  0  0  0  0  0  0  0  0  0
   -6.7655   -9.3623   -2.5867 C   0  0  2  0  0  0  0  0  0  0  0  0
   -6.0698  -10.0012   -1.4011 C   0  0  0  0  0  0  0  0  0  0  0  0
   -4.7334   -9.3299   -1.1437 C   0  0  1  0  0  0  0  0  0  0  0  0
   -4.8745   -7.8437   -0.8113 C   0  0  2  0  0  0  0  0  0  0  0  0
   -5.7527   -7.1230   -1.8602 C   0  0  1  0  0  0  0  0  0  0  0  0
   -6.9997   -7.8783   -2.3386 C   0  0  1  0  0  0  0  0  0  0  0  0
   -8.0355  -10.0248   -2.8147 N   0  3  0  0  0  0  0  0  0  0  0  0
   -4.0532  -10.0296   -0.0714 N   0  3  0  0  0  0  0  0  0  0  0  0
   -6.1172   -5.7907   -1.4230 O   0  0  0  0  0  0  0  0  0  0  0  0
   -7.5086   -7.2684   -3.5203 O   0  0  0  0  0  0  0  0  0  0  0  0
  1  2  1  0  0  0  0
  3  2  1  1  0  0  0
  3  4  1  0  0  0  0
  3  5  1  0  0  0  0
  4  8  1  0  0  0  0
  5  6  1  0  0  0  0
  5 12  1  6  0  0  0
  6  7  1  6  0  0  0
  6  8  1  0  0  0  0
  8 41  1  1  0  0  0
  9 10  1  0  0  0  0
  9 17  1  0  0  0  0
  9 19  1  6  0  0  0
 10 11  1  0  0  0  0
 11 12  1  6  0  0  0
 11 13  1  0  0  0  0
 13 14  1  6  0  0  0
 13 15  1  0  0  0  0
 15 16  1  1  0  0  0
 15 17  1  0  0  0  0
 17 18  1  6  0  0  0
 19 20  1  0  0  0  0
 21 22  1  0  0  0  0
 21 29  1  0  0  0  0
 21 31  1  1  0  0  0
 22 23  1  0  0  0  0
 23 24  1  1  0  0  0
 23 25  1  0  0  0  0
 25 26  1  6  0  0  0
 25 27  1  0  0  0  0
 27 28  1  1  0  0  0
 27 29  1  0  0  0  0
 29 30  1  1  0  0  0
 31 32  1  0  0  0  0
 33 34  1  0  0  0  0
 33 38  1  0  0  0  0
 33 39  1  1  0  0  0
 34 35  1  0  0  0  0
 35 36  1  0  0  0  0
 35 40  1  1  0  0  0
 36 24  1  6  0  0  0
 36 37  1  0  0  0  0
 37 38  1  0  0  0  0
 37 41  1  1  0  0  0
 38 42  1  6  0  0  0
M  CHG  6  14   1  20   1  26   1  32   1  39   1  40   1
M  END
>  <CHROM.1>
-166.48660975,153.38940159,-104.76865565,-170.47258401,-71.28240805,-48.61037785
48.67499795,-51.74501344,-177.36401184,-178.57076459,28.59878566,51.09606433
32.43624550,-158.42581213,174.29216038,79.67760259,-58.59987637,66.25465003
-169.23312962,-49.66504501,125.01363682,-174.87504215,-4.31766948,-4.62915376
0.03110538,1.22383238,-0.85826969,-0.02764829

>  <Name>


>  <RI>
0

>  <Rbt.Current_Directory>
/home/itssahil/PROJECTS/Mol_Feturizer/New_Systems/rnas/1qd3

>  <Rbt.Executable>
rbdock ($Id: //depot/dev/client3/rdock/2013.1/src/exe/rbdock.cxx#4 $)

>  <Rbt.Library>
libRbt.so (2013.1, Build901 2013/11/27)

>  <Rbt.Parameter_File>
/export/apps/rDock/src/rDock_2013.1_src/data/scripts/dock_solv.prm

>  <Rbt.Receptor>
prm/blind_docking_60.prm

>  <SCORE>
-44.1229

>  <SCORE.INTER>
-34.7294

>  <SCORE.INTER.CONST>
1

>  <SCORE.INTER.POLAR>
-4.01503

>  <SCORE.INTER.ROT>
9

>  <SCORE.INTER.SOLV>
33.1622

>  <SCORE.INTER.VDW>
-30.4236

>  <SCORE.INTER.norm>
-0.826892

>  <SCORE.INTRA>
-11.7689

>  <SCORE.INTRA.DIHEDRAL>
-11.7691

>  <SCORE.INTRA.DIHEDRAL.0>
40.6252

>  <SCORE.INTRA.POLAR>
0.966926

>  <SCORE.INTRA.POLAR.0>
-1.20161

>  <SCORE.INTRA.REPUL>
-0.109164

>  <SCORE.INTRA.REPUL.0>
0.115675

>  <SCORE.INTRA.SOLV>
1.3236

>  <SCORE.INTRA.SOLV.lig_0>
-154.895

>  <SCORE.INTRA.VDW>
-9.28786

>  <SCORE.INTRA.VDW.0>
2.2925

>  <SCORE.INTRA.norm>
-0.280212

>  <SCORE.RESTR>
2.37548

>  <SCORE.RESTR.CAVITY>
2.37548

>  <SCORE.RESTR.norm>
0.056559

>  <SCORE.SYSTEM>
0

>  <SCORE.SYSTEM.CONST>
0

>  <SCORE.SYSTEM.DIHEDRAL>
0

>  <SCORE.SYSTEM.SOLV>
0

>  <SCORE.SYSTEM.norm>
0

>  <SCORE.heavy>
42

>  <SCORE.norm>
-1.05054

>  <RMSD>
15.060

$$$$

 OpenBabel11021811413D
libRbt.so/2013.1/901 2013/11/27
 42 45  0  0  0  0  0  0  0  0999 V2000
   -2.7094    0.7961    2.1135 O   0  0  0  0  0  0  0  0  0  0  0  0
   -3.0867    0.4479    0.7891 C   0  0  0  0  0  0  0  0  0  0  0  0
   -3.9815   -0.7919    0.8149 C   0  0  1  0  0  0  0  0  0  0  0  0
   -4.5056   -1.0886   -0.4978 O   0  0  0  0  0  0  0  0  0  0  0  0
   -3.2568   -2.0498    1.2643 C   0  0  2  0  0  0  0  0  0  0  0  0
   -4.1911   -3.1173    0.7197 C   0  0  1  0  0  0  0  0  0  0  0  0
   -5.3342   -3.2302    1.5602 O   0  0  0  0  0  0  0  0  0  0  0  0
   -4.6004   -2.5280   -0.6455 C   0  0  2  0  0  0  0  0  0  0  0  0
   -0.7186   -3.6528    4.9631 C   0  0  2  0  0  0  0  0  0  0  0  0
   -1.7890   -2.8055    4.5184 O   0  0  0  0  0  0  0  0  0  0  0  0
   -2.0958   -3.0121    3.1277 C   0  0  2  0  0  0  0  0  0  0  0  0
   -3.1337   -2.1062    2.6991 O   0  0  0  0  0  0  0  0  0  0  0  0
   -2.5209   -4.4689    2.8761 C   0  0  2  0  0  0  0  0  0  0  0  0
   -3.8807   -4.6942    3.3306 N   0  3  0  0  0  0  0  0  0  0  0  0
   -1.5672   -5.4896    3.5081 C   0  0  1  0  0  0  0  0  0  0  0  0
   -0.4027   -5.6055    2.7060 O   0  0  0  0  0  0  0  0  0  0  0  0
   -1.1712   -5.1070    4.9316 C   0  0  2  0  0  0  0  0  0  0  0  0
   -2.2747   -5.2957    5.8098 O   0  0  0  0  0  0  0  0  0  0  0  0
   -0.2649   -3.2553    6.3649 C   0  0  0  0  0  0  0  0  0  0  0  0
    0.8732   -4.0561    6.7752 N   0  3  0  0  0  0  0  0  0  0  0  0
   -6.3558   -8.1068   -1.8938 C   0  0  1  0  0  0  0  0  0  0  0  0
   -6.3029   -6.8924   -1.1163 O   0  0  0  0  0  0  0  0  0  0  0  0
   -5.0284   -6.2140   -1.1995 C   0  0  2  0  0  0  0  0  0  0  0  0
   -4.7630   -5.7181   -2.5349 O   0  0  0  0  0  0  0  0  0  0  0  0
   -3.8969   -7.1282   -0.7142 C   0  0  2  0  0  0  0  0  0  0  0  0
   -2.6111   -6.5186   -0.9986 N   0  3  0  0  0  0  0  0  0  0  0  0
   -3.9574   -8.5013   -1.3741 C   0  0  1  0  0  0  0  0  0  0  0  0
   -3.0497   -9.3817   -0.7297 O   0  0  0  0  0  0  0  0  0  0  0  0
   -5.3497   -9.1132   -1.3598 C   0  0  2  0  0  0  0  0  0  0  0  0
   -5.3780  -10.2940   -2.1481 O   0  0  0  0  0  0  0  0  0  0  0  0
   -7.7419   -8.7359   -1.7862 C   0  0  0  0  0  0  0  0  0  0  0  0
   -7.9397   -9.7256   -2.8294 N   0  3  0  0  0  0  0  0  0  0  0  0
   -5.6566   -2.2696   -4.8607 C   0  0  2  0  0  0  0  0  0  0  0  0
   -6.7906   -3.2209   -4.5331 C   0  0  0  0  0  0  0  0  0  0  0  0
   -6.2450   -4.5581   -4.0675 C   0  0  1  0  0  0  0  0  0  0  0  0
   -5.4005   -4.4406   -2.7979 C   0  0  2  0  0  0  0  0  0  0  0  0
   -4.3276   -3.3371   -2.9471 C   0  0  1  0  0  0  0  0  0  0  0  0
   -4.7736   -2.0433   -3.6410 C   0  0  1  0  0  0  0  0  0  0  0  0
   -6.2041   -1.0031   -5.3080 N   0  3  0  0  0  0  0  0  0  0  0  0
   -7.3513   -5.4723   -3.8609 N   0  3  0  0  0  0  0  0  0  0  0  0
   -3.7023   -3.0285   -1.6772 O   0  0  0  0  0  0  0  0  0  0  0  0
   -3.6322   -1.2764   -4.0103 O   0  0  0  0  0  0  0  0  0  0  0  0
  1  2  1  0  0  0  0
  3  2  1  6  0  0  0
  3  4  1  0  0  0  0
  3  5  1  0  0  0  0
  4  8  1  0  0  0  0
  5  6  1  0  0  0  0
  5 12  1  1  0  0  0
  6  7  1  1  0  0  0
  6  8  1  0  0  0  0
  8 41  1  6  0  0  0
  9 10  1  0  0  0  0
  9 17  1  0  0  0  0
  9 19  1  1  0  0  0
 10 11  1  0  0  0  0
 11 12  1  1  0  0  0
 11 13  1  0  0  0  0
 13 14  1  1  0  0  0
 13 15  1  0  0  0  0
 15 16  1  6  0  0  0
 15 17  1  0  0  0  0
 17 18  1  1  0  0  0
 19 20  1  0  0  0  0
 21 22  1  0  0  0  0
 21 29  1  0  0  0  0
 21 31  1  1  0  0  0
 22 23  1  0  0  0  0
 23 24  1  6  0  0  0
 23 25  1  0  0  0  0
 25 26  1  6  0  0  0
 25 27  1  0  0  0  0
 27 28  1  1  0  0  0
 27 29  1  0  0  0  0
 29 30  1  6  0  0  0
 31 32  1  0  0  0  0
 33 34  1  0  0  0  0
 33 38  1  0  0  0  0
 33 39  1  1  0  0  0
 34 35  1  0  0  0  0
 35 36  1  0  0  0  0
 35 40  1  1  0  0  0
 36 24  1  6  0  0  0
 36 37  1  0  0  0  0
 37 38  1  0  0  0  0
 37 41  1  1  0  0  0
 38 42  1  6  0  0  0
M  CHG  6  14   1  20   1  26   1  32   1  39   1  40   1
M  END
>  <CHROM.1>
177.41741232,173.61633900,-160.50839780,70.89118943,-101.65327356,-176.28540773
166.28502802,-176.02545110,-57.34248126,-176.09921788,-81.10132408,164.05532837
82.66310475,-125.92970722,84.84982846,-172.87400932,-176.44354658,55.05135698
43.24076710,-52.21046721,-60.96896148,-149.02711741,-3.97128605,-4.50163239
0.05118989,0.08499115,-1.04815707,-0.22021134

>  <Name>


>  <RI>
0

>  <Rbt.Current_Directory>
/home/itssahil/PROJECTS/Mol_Feturizer/New_Systems/rnas/1qd3

>  <Rbt.Executable>
rbdock ($Id: //depot/dev/client3/rdock/2013.1/src/exe/rbdock.cxx#4 $)

>  <Rbt.Library>
libRbt.so (2013.1, Build901 2013/11/27)

>  <Rbt.Parameter_File>
/export/apps/rDock/src/rDock_2013.1_src/data/scripts/dock_solv.prm

>  <Rbt.Receptor>
prm/blind_docking_20.prm

>  <SCORE>
-63.1301

>  <SCORE.INTER>
-42.593

>  <SCORE.INTER.CONST>
1

>  <SCORE.INTER.POLAR>
-4.02029

>  <SCORE.INTER.ROT>
9

>  <SCORE.INTER.SOLV>
22.638

>  <SCORE.INTER.VDW>
-32.1404

>  <SCORE.INTER.norm>
-1.01412

>  <SCORE.INTRA>
-20.6412

>  <SCORE.INTRA.DIHEDRAL>
-13.4165

>  <SCORE.INTRA.DIHEDRAL.0>
40.6252

>  <SCORE.INTRA.POLAR>
-0.754301

>  <SCORE.INTRA.POLAR.0>
-1.20161

>  <SCORE.INTRA.REPUL>
-0.114679

>  <SCORE.INTRA.REPUL.0>
0.115675

>  <SCORE.INTRA.SOLV>
-4.98883

>  <SCORE.INTRA.SOLV.lig_0>
-154.895

>  <SCORE.INTRA.VDW>
-8.30051

>  <SCORE.INTRA.VDW.0>
2.2925

>  <SCORE.INTRA.norm>
-0.491456

>  <SCORE.RESTR>
0.104061

>  <SCORE.RESTR.CAVITY>
0.104061

>  <SCORE.RESTR.norm>
0.00247765

>  <SCORE.SYSTEM>
0

>  <SCORE.SYSTEM.CONST>
0

>  <SCORE.SYSTEM.DIHEDRAL>
0

>  <SCORE.SYSTEM.SOLV>
0

>  <SCORE.SYSTEM.norm>
0

>  <SCORE.heavy>
42

>  <SCORE.norm>
-1.5031

>  <RMSD>
15.071

$$$$

 OpenBabel11021811413D
libRbt.so/2013.1/901 2013/11/27
 42 45  0  0  0  0  0  0  0  0999 V2000
   -6.9398   -7.2345    3.6315 O   0  0  0  0  0  0  0  0  0  0  0  0
   -6.1314   -6.3181    2.9072 C   0  0  0  0  0  0  0  0  0  0  0  0
   -4.9498   -5.8753    3.7710 C   0  0  1  0  0  0  0  0  0  0  0  0
   -4.2232   -7.0109    4.2887 O   0  0  0  0  0  0  0  0  0  0  0  0
   -3.9289   -5.0413    3.0151 C   0  0  2  0  0  0  0  0  0  0  0  0
   -2.7200   -5.1933    3.9230 C   0  0  1  0  0  0  0  0  0  0  0  0
   -2.8655   -4.3527    5.0623 O   0  0  0  0  0  0  0  0  0  0  0  0
   -2.8142   -6.6729    4.3480 C   0  0  2  0  0  0  0  0  0  0  0  0
   -3.9009   -1.0800    0.3521 C   0  0  2  0  0  0  0  0  0  0  0  0
   -4.3859   -1.7244    1.5400 O   0  0  0  0  0  0  0  0  0  0  0  0
   -3.8027   -3.0274    1.7210 C   0  0  2  0  0  0  0  0  0  0  0  0
   -4.3538   -3.6699    2.8894 O   0  0  0  0  0  0  0  0  0  0  0  0
   -2.2723   -2.9255    1.8393 C   0  0  2  0  0  0  0  0  0  0  0  0
   -1.8885   -2.4420    3.1528 N   0  3  0  0  0  0  0  0  0  0  0  0
   -1.6424   -2.0587    0.7427 C   0  0  1  0  0  0  0  0  0  0  0  0
   -1.5810   -2.7994   -0.4659 O   0  0  0  0  0  0  0  0  0  0  0  0
   -2.4188   -0.7654    0.5104 C   0  0  2  0  0  0  0  0  0  0  0  0
   -2.2207    0.1229    1.6041 O   0  0  0  0  0  0  0  0  0  0  0  0
   -4.6981    0.1892    0.0651 C   0  0  0  0  0  0  0  0  0  0  0  0
   -4.2385    0.8092   -1.1635 N   0  3  0  0  0  0  0  0  0  0  0  0
   -5.4396   -7.4910   -1.2692 C   0  0  1  0  0  0  0  0  0  0  0  0
   -4.2802   -8.3396   -1.4022 O   0  0  0  0  0  0  0  0  0  0  0  0
   -3.1194   -7.8375   -0.7008 C   0  0  2  0  0  0  0  0  0  0  0  0
   -3.3133   -7.8298    0.7352 O   0  0  0  0  0  0  0  0  0  0  0  0
   -2.7385   -6.4437   -1.2147 C   0  0  2  0  0  0  0  0  0  0  0  0
   -1.7123   -5.8663   -0.3666 N   0  3  0  0  0  0  0  0  0  0  0  0
   -3.9414   -5.5077   -1.2538 C   0  0  1  0  0  0  0  0  0  0  0  0
   -3.5995   -4.3188   -1.9495 O   0  0  0  0  0  0  0  0  0  0  0  0
   -5.1685   -6.1340   -1.8981 C   0  0  2  0  0  0  0  0  0  0  0  0
   -6.2975   -5.2882   -1.7350 O   0  0  0  0  0  0  0  0  0  0  0  0
   -6.6272   -8.1110   -1.9998 C   0  0  0  0  0  0  0  0  0  0  0  0
   -7.4333   -8.9043   -1.0901 N   0  3  0  0  0  0  0  0  0  0  0  0
   -2.7009  -11.2327    3.2141 C   0  0  2  0  0  0  0  0  0  0  0  0
   -2.3101  -11.3366    1.7531 C   0  0  0  0  0  0  0  0  0  0  0  0
   -2.9519  -10.2202    0.9504 C   0  0  1  0  0  0  0  0  0  0  0  0
   -2.5129   -8.8313    1.4164 C   0  0  2  0  0  0  0  0  0  0  0  0
   -2.6757   -8.6840    2.9470 C   0  0  1  0  0  0  0  0  0  0  0  0
   -2.2640   -9.8947    3.7950 C   0  0  1  0  0  0  0  0  0  0  0  0
   -2.0800  -12.3128    3.9570 N   0  3  0  0  0  0  0  0  0  0  0  0
   -2.6399  -10.4091   -0.4529 N   0  3  0  0  0  0  0  0  0  0  0  0
   -2.0212   -7.4887    3.4386 O   0  0  0  0  0  0  0  0  0  0  0  0
   -2.7766   -9.7545    5.1159 O   0  0  0  0  0  0  0  0  0  0  0  0
  1  2  1  0  0  0  0
  3  2  1  6  0  0  0
  3  4  1  0  0  0  0
  3  5  1  0  0  0  0
  4  8  1  0  0  0  0
  5  6  1  0  0  0  0
  5 12  1  1  0  0  0
  6  7  1  1  0  0  0
  6  8  1  0  0  0  0
  8 41  1  6  0  0  0
  9 10  1  0  0  0  0
  9 17  1  0  0  0  0
  9 19  1  1  0  0  0
 10 11  1  0  0  0  0
 11 12  1  1  0  0  0
 11 13  1  0  0  0  0
 13 14  1  1  0  0  0
 13 15  1  0  0  0  0
 15 16  1  6  0  0  0
 15 17  1  0  0  0  0
 17 18  1  1  0  0  0
 19 20  1  0  0  0  0
 21 22  1  0  0  0  0
 21 29  1  0  0  0  0
 21 31  1  6  0  0  0
 22 23  1  0  0  0  0
 23 24  1  1  0  0  0
 23 25  1  0  0  0  0
 25 26  1  1  0  0  0
 25 27  1  0  0  0  0
 27 28  1  6  0  0  0
 27 29  1  0  0  0  0
 29 30  1  1  0  0  0
 31 32  1  0  0  0  0
 33 34  1  0  0  0  0
 33 38  1  0  0  0  0
 33 39  1  1  0  0  0
 34 35  1  0  0  0  0
 35 36  1  0  0  0  0
 35 40  1  6  0  0  0
 36 24  1  6  0  0  0
 36 37  1  0  0  0  0
 37 38  1  0  0  0  0
 37 41  1  1  0  0  0
 38 42  1  1  0  0  0
M  CHG  6  14   1  20   1  26   1  32   1  39   1  40   1
M  END
>  <CHROM.1>
-168.64116853,53.06444586,-152.65915327,177.56835151,-16.32366215,-177.81862248
172.53687990,-64.01798209,65.46301979,38.30296769,-170.04587058,93.99782283
109.49524601,-63.09527935,-175.17171903,66.77037673,64.85545353,-34.40748892
-161.73288723,154.63429950,132.83750911,65.54074054,-3.59683659,-5.91390593
1.33077377,-1.53606708,-1.21175863,-0.16291212

>  <Name>


>  <RI>
0

>  <Rbt.Current_Directory>
/home/itssahil/PROJECTS/Mol_Feturizer/New_Systems/rnas/1qd3

>  <Rbt.Executable>
rbdock ($Id: //depot/dev/client3/rdock/2013.1/src/exe/rbdock.cxx#4 $)

>  <Rbt.Library>
libRbt.so (2013.1, Build901 2013/11/27)

>  <Rbt.Parameter_File>
/export/apps/rDock/src/rDock_2013.1_src/data/scripts/dock_solv.prm

>  <Rbt.Receptor>
prm/blind_docking_80.prm

>  <SCORE>
-64.1885

>  <SCORE.INTER>
-48.9402

>  <SCORE.INTER.CONST>
1

>  <SCORE.INTER.POLAR>
-6.00355

>  <SCORE.INTER.ROT>
9

>  <SCORE.INTER.SOLV>
30.1135

>  <SCORE.INTER.VDW>
-32.2528

>  <SCORE.INTER.norm>
-1.16524

>  <SCORE.INTRA>
-17.0487

>  <SCORE.INTRA.DIHEDRAL>
-5.73215

>  <SCORE.INTRA.DIHEDRAL.0>
40.6252

>  <SCORE.INTRA.POLAR>
-2.3619

>  <SCORE.INTRA.POLAR.0>
-1.20161

>  <SCORE.INTRA.REPUL>
-0.0101095

>  <SCORE.INTRA.REPUL.0>
0.115675

>  <SCORE.INTRA.SOLV>
-1.51652

>  <SCORE.INTRA.SOLV.lig_0>
-154.895

>  <SCORE.INTRA.VDW>
-5.34333

>  <SCORE.INTRA.VDW.0>
2.2925

>  <SCORE.INTRA.norm>
-0.405921

>  <SCORE.RESTR>
1.80031

>  <SCORE.RESTR.CAVITY>
1.80031

>  <SCORE.RESTR.norm>
0.0428644

>  <SCORE.SYSTEM>
0

>  <SCORE.SYSTEM.CONST>
0

>  <SCORE.SYSTEM.DIHEDRAL>
0

>  <SCORE.SYSTEM.SOLV>
0

>  <SCORE.SYSTEM.norm>
0

>  <SCORE.heavy>
42

>  <SCORE.norm>
-1.5283

>  <RMSD>
15.077

$$$$

 OpenBabel11021811413D
libRbt.so/2013.1/901 2013/11/27
 42 45  0  0  0  0  0  0  0  0999 V2000
    0.2277   -5.6734    4.3509 O   0  0  0  0  0  0  0  0  0  0  0  0
   -0.1811   -5.0800    3.1268 C   0  0  0  0  0  0  0  0  0  0  0  0
   -1.3431   -4.1188    3.3801 C   0  0  1  0  0  0  0  0  0  0  0  0
   -1.6566   -3.3509    2.1978 O   0  0  0  0  0  0  0  0  0  0  0  0
   -2.6330   -4.8211    3.7705 C   0  0  2  0  0  0  0  0  0  0  0  0
   -3.6463   -3.7323    3.4598 C   0  0  1  0  0  0  0  0  0  0  0  0
   -3.6292   -2.7510    4.4906 O   0  0  0  0  0  0  0  0  0  0  0  0
   -3.0891   -3.1302    2.1538 C   0  0  2  0  0  0  0  0  0  0  0  0
   -5.5307   -7.3653    4.6793 C   0  0  2  0  0  0  0  0  0  0  0  0
   -4.5453   -6.3601    4.3963 O   0  0  0  0  0  0  0  0  0  0  0  0
   -3.5730   -6.2485    5.4513 C   0  0  2  0  0  0  0  0  0  0  0  0
   -2.6335   -5.1922    5.1631 O   0  0  0  0  0  0  0  0  0  0  0  0
   -2.8327   -7.5821    5.6506 C   0  0  2  0  0  0  0  0  0  0  0  0
   -1.8474   -7.7854    4.6045 N   0  3  0  0  0  0  0  0  0  0  0  0
   -3.7784   -8.7857    5.7390 C   0  0  1  0  0  0  0  0  0  0  0  0
   -4.3684   -8.8272    7.0286 O   0  0  0  0  0  0  0  0  0  0  0  0
   -4.8738   -8.7397    4.6771 C   0  0  2  0  0  0  0  0  0  0  0  0
   -4.3199   -9.0159    3.3959 O   0  0  0  0  0  0  0  0  0  0  0  0
   -6.6676   -7.3050    3.6631 C   0  0  0  0  0  0  0  0  0  0  0  0
   -6.1393   -7.1557    2.3201 N   0  3  0  0  0  0  0  0  0  0  0  0
   -7.8839   -4.7045   -2.2067 C   0  0  1  0  0  0  0  0  0  0  0  0
   -7.3013   -4.6798   -0.8868 O   0  0  0  0  0  0  0  0  0  0  0  0
   -5.9959   -5.2990   -0.8252 C   0  0  2  0  0  0  0  0  0  0  0  0
   -5.0100   -4.5662   -1.5938 O   0  0  0  0  0  0  0  0  0  0  0  0
   -6.0706   -6.7633   -1.2747 C   0  0  2  0  0  0  0  0  0  0  0  0
   -4.7327   -7.3088   -1.4101 N   0  3  0  0  0  0  0  0  0  0  0  0
   -6.8083   -6.9104   -2.6008 C   0  0  1  0  0  0  0  0  0  0  0  0
   -7.0599   -8.2832   -2.8581 O   0  0  0  0  0  0  0  0  0  0  0  0
   -8.1190   -6.1401   -2.6471 C   0  0  2  0  0  0  0  0  0  0  0  0
   -8.6591   -6.1636   -3.9602 O   0  0  0  0  0  0  0  0  0  0  0  0
   -9.2357   -3.9966   -2.1943 C   0  0  0  0  0  0  0  0  0  0  0  0
   -9.2503   -2.9335   -1.2062 N   0  3  0  0  0  0  0  0  0  0  0  0
   -2.9732   -0.8438   -1.2867 C   0  0  2  0  0  0  0  0  0  0  0  0
   -4.3446   -0.8538   -1.9327 C   0  0  0  0  0  0  0  0  0  0  0  0
   -4.7389   -2.2667   -2.3212 C   0  0  1  0  0  0  0  0  0  0  0  0
   -4.8221   -3.2075   -1.1184 C   0  0  2  0  0  0  0  0  0  0  0  0
   -3.5391   -3.1225   -0.2596 C   0  0  1  0  0  0  0  0  0  0  0  0
   -2.9579   -1.7194   -0.0410 C   0  0  1  0  0  0  0  0  0  0  0  0
   -2.6182    0.5168   -0.9307 N   0  3  0  0  0  0  0  0  0  0  0  0
   -6.0060   -2.2258   -3.0248 N   0  3  0  0  0  0  0  0  0  0  0  0
   -3.7061   -3.7938    1.0134 O   0  0  0  0  0  0  0  0  0  0  0  0
   -1.6283   -1.8209    0.4581 O   0  0  0  0  0  0  0  0  0  0  0  0
  1  2  1  0  0  0  0
  3  2  1  6  0  0  0
  3  4  1  0  0  0  0
  3  5  1  0  0  0  0
  4  8  1  0  0  0  0
  5  6  1  0  0  0  0
  5 12  1  1  0  0  0
  6  7  1  1  0  0  0
  6  8  1  0  0  0  0
  8 41  1  6  0  0  0
  9 10  1  0  0  0  0
  9 17  1  0  0  0  0
  9 19  1  6  0  0  0
 10 11  1  0  0  0  0
 11 12  1  6  0  0  0
 11 13  1  0  0  0  0
 13 14  1  6  0  0  0
 13 15  1  0  0  0  0
 15 16  1  1  0  0  0
 15 17  1  0  0  0  0
 17 18  1  6  0  0  0
 19 20  1  0  0  0  0
 21 22  1  0  0  0  0
 21 29  1  0  0  0  0
 21 31  1  1  0  0  0
 22 23  1  0  0  0  0
 23 24  1  6  0  0  0
 23 25  1  0  0  0  0
 25 26  1  6  0  0  0
 25 27  1  0  0  0  0
 27 28  1  1  0  0  0
 27 29  1  0  0  0  0
 29 30  1  6  0  0  0
 31 32  1  0  0  0  0
 33 34  1  0  0  0  0
 33 38  1  0  0  0  0
 33 39  1  1  0  0  0
 34 35  1  0  0  0  0
 35 36  1  0  0  0  0
 35 40  1  1  0  0  0
 36 24  1  6  0  0  0
 36 37  1  0  0  0  0
 37 38  1  0  0  0  0
 37 41  1  1  0  0  0
 38 42  1  6  0  0  0
M  CHG  6  14   1  20   1  26   1  32   1  39   1  40   1
M  END
>  <CHROM.1>
28.83971311,171.52521303,-158.92705573,63.59859036,-77.86553835,44.31987535
-18.29211101,-139.01142113,91.89635304,-178.22199555,-64.93516730,31.09681165
60.91927309,-137.16388754,171.66105709,51.88222267,-81.48363102,-86.42955729
-170.13585807,66.41476634,-141.10770549,-52.42040068,-4.53415236,-5.01514704
1.19838014,-0.97020551,-0.73673367,-0.76513560

>  <Name>


>  <RI>
0

>  <Rbt.Current_Directory>
/home/itssahil/PROJECTS/Mol_Feturizer/New_Systems/rnas/1qd3

>  <Rbt.Executable>
rbdock ($Id: //depot/dev/client3/rdock/2013.1/src/exe/rbdock.cxx#4 $)

>  <Rbt.Library>
libRbt.so (2013.1, Build901 2013/11/27)

>  <Rbt.Parameter_File>
/export/apps/rDock/src/rDock_2013.1_src/data/scripts/dock_solv.prm

>  <Rbt.Receptor>
prm/blind_docking_80.prm

>  <SCORE>
-22.7344

>  <SCORE.INTER>
-22.9145

>  <SCORE.INTER.CONST>
1

>  <SCORE.INTER.POLAR>
-6.591

>  <SCORE.INTER.ROT>
9

>  <SCORE.INTER.SOLV>
34.4311

>  <SCORE.INTER.VDW>
-14.3834

>  <SCORE.INTER.norm>
-0.545582

>  <SCORE.INTRA>
-0.9737

>  <SCORE.INTRA.DIHEDRAL>
-0.365411

>  <SCORE.INTRA.DIHEDRAL.0>
40.6252

>  <SCORE.INTRA.POLAR>
0.0858893

>  <SCORE.INTRA.POLAR.0>
-1.20161

>  <SCORE.INTRA.REPUL>
-0.019348

>  <SCORE.INTRA.REPUL.0>
0.115675

>  <SCORE.INTRA.SOLV>
0.657033

>  <SCORE.INTRA.SOLV.lig_0>
-154.895

>  <SCORE.INTRA.VDW>
-1.31479

>  <SCORE.INTRA.VDW.0>
2.2925

>  <SCORE.INTRA.norm>
-0.0231833

>  <SCORE.RESTR>
1.15381

>  <SCORE.RESTR.CAVITY>
1.15381

>  <SCORE.RESTR.norm>
0.0274716

>  <SCORE.SYSTEM>
0

>  <SCORE.SYSTEM.CONST>
0

>  <SCORE.SYSTEM.DIHEDRAL>
0

>  <SCORE.SYSTEM.SOLV>
0

>  <SCORE.SYSTEM.norm>
0

>  <SCORE.heavy>
42

>  <SCORE.norm>
-0.541294

>  <RMSD>
15.084

$$$$

 OpenBabel11021811413D
libRbt.so/2013.1/901 2013/11/27
 42 45  0  0  0  0  0  0  0  0999 V2000
   -0.6847   -2.1177    5.1253 O   0  0  0  0  0  0  0  0  0  0  0  0
   -1.3524   -3.3558    4.9274 C   0  0  0  0  0  0  0  0  0  0  0  0
   -1.2177   -3.7888    3.4670 C   0  0  1  0  0  0  0  0  0  0  0  0
   -1.3038   -5.2244    3.3350 O   0  0  0  0  0  0  0  0  0  0  0  0
   -2.3056   -3.2254    2.5679 C   0  0  2  0  0  0  0  0  0  0  0  0
   -2.2154   -4.1821    1.3908 C   0  0  1  0  0  0  0  0  0  0  0  0
   -1.0914   -3.8475    0.5842 O   0  0  0  0  0  0  0  0  0  0  0  0
   -1.9752   -5.5366    2.0882 C   0  0  2  0  0  0  0  0  0  0  0  0
   -4.2976    0.8234    1.1969 C   0  0  2  0  0  0  0  0  0  0  0  0
   -3.1637    0.1779    1.7963 O   0  0  0  0  0  0  0  0  0  0  0  0
   -3.1459   -1.2357    1.5279 C   0  0  2  0  0  0  0  0  0  0  0  0
   -2.0283   -1.8621    2.1914 O   0  0  0  0  0  0  0  0  0  0  0  0
   -3.0845   -1.5001    0.0137 C   0  0  2  0  0  0  0  0  0  0  0  0
   -1.7456   -1.2673   -0.4958 N   0  3  0  0  0  0  0  0  0  0  0  0
   -4.1107   -0.6828   -0.7798 C   0  0  1  0  0  0  0  0  0  0  0  0
   -5.3917   -1.2777   -0.6457 O   0  0  0  0  0  0  0  0  0  0  0  0
   -4.1721    0.7714   -0.3203 C   0  0  2  0  0  0  0  0  0  0  0  0
   -3.0010    1.4627   -0.7390 O   0  0  0  0  0  0  0  0  0  0  0  0
   -4.4149    2.2651    1.6833 C   0  0  0  0  0  0  0  0  0  0  0  0
   -3.1742    2.9805    1.4515 N   0  3  0  0  0  0  0  0  0  0  0  0
   -6.1640   -9.3819   -1.5653 C   0  0  1  0  0  0  0  0  0  0  0  0
   -4.7294   -9.2788   -1.6815 O   0  0  0  0  0  0  0  0  0  0  0  0
   -4.1717   -8.1757   -0.9307 C   0  0  2  0  0  0  0  0  0  0  0  0
   -4.3375   -8.3518    0.4980 O   0  0  0  0  0  0  0  0  0  0  0  0
   -4.7742   -6.8450   -1.3974 C   0  0  2  0  0  0  0  0  0  0  0  0
   -4.3692   -5.7769   -0.5025 N   0  3  0  0  0  0  0  0  0  0  0  0
   -6.2968   -6.9024   -1.4523 C   0  0  1  0  0  0  0  0  0  0  0  0
   -6.7954   -5.7461   -2.1069 O   0  0  0  0  0  0  0  0  0  0  0  0
   -6.8257   -8.1453   -2.1513 C   0  0  2  0  0  0  0  0  0  0  0  0
   -8.2354   -8.2322   -2.0040 O   0  0  0  0  0  0  0  0  0  0  0  0
   -6.6659  -10.5912   -2.3490 C   0  0  0  0  0  0  0  0  0  0  0  0
   -5.6540  -11.0569   -3.2795 N   0  3  0  0  0  0  0  0  0  0  0  0
   -1.7846   -9.4180    3.7299 C   0  0  2  0  0  0  0  0  0  0  0  0
   -1.5069  -10.0306    2.3714 C   0  0  0  0  0  0  0  0  0  0  0  0
   -2.7113   -9.8742    1.4615 C   0  0  1  0  0  0  0  0  0  0  0  0
   -3.0728   -8.4099    1.2084 C   0  0  2  0  0  0  0  0  0  0  0  0
   -3.1791   -7.6282    2.5383 C   0  0  1  0  0  0  0  0  0  0  0  0
   -2.1117   -7.9368    3.5965 C   0  0  1  0  0  0  0  0  0  0  0  0
   -0.6220   -9.5857    4.5808 N   0  3  0  0  0  0  0  0  0  0  0  0
   -2.4486  -10.5579    0.2102 N   0  3  0  0  0  0  0  0  0  0  0  0
   -3.2531   -6.1994    2.3106 O   0  0  0  0  0  0  0  0  0  0  0  0
   -2.5208   -7.4199    4.8585 O   0  0  0  0  0  0  0  0  0  0  0  0
  1  2  1  0  0  0  0
  3  2  1  1  0  0  0
  3  4  1  0  0  0  0
  3  5  1  0  0  0  0
  4  8  1  0  0  0  0
  5  6  1  0  0  0  0
  5 12  1  6  0  0  0
  6  7  1  6  0  0  0
  6  8  1  0  0  0  0
  8 41  1  1  0  0  0
  9 10  1  0  0  0  0
  9 17  1  0  0  0  0
  9 19  1  1  0  0  0
 10 11  1  0  0  0  0
 11 12  1  1  0  0  0
 11 13  1  0  0  0  0
 13 14  1  6  0  0  0
 13 15  1  0  0  0  0
 15 16  1  1  0  0  0
 15 17  1  0  0  0  0
 17 18  1  1  0  0  0
 19 20  1  0  0  0  0
 21 22  1  0  0  0  0
 21 29  1  0  0  0  0
 21 31  1  6  0  0  0
 22 23  1  0  0  0  0
 23 24  1  1  0  0  0
 23 25  1  0  0  0  0
 25 26  1  1  0  0  0
 25 27  1  0  0  0  0
 27 28  1  6  0  0  0
 27 29  1  0  0  0  0
 29 30  1  1  0  0  0
 31 32  1  0  0  0  0
 33 34  1  0  0  0  0
 33 38  1  0  0  0  0
 33 39  1  1  0  0  0
 34 35  1  0  0  0  0
 35 36  1  0  0  0  0
 35 40  1  6  0  0  0
 36 24  1  1  0  0  0
 36 37  1  0  0  0  0
 37 38  1  0  0  0  0
 37 41  1  6  0  0  0
 38 42  1  1  0  0  0
M  CHG  6  14   1  20   1  26   1  32   1  39   1  40   1
M  END
>  <CHROM.1>
73.77065922,153.44081142,-170.29786477,-172.68893796,-82.73809142,54.43560718
149.30416297,-168.90247729,-61.49664447,-80.77046180,-7.83316920,-16.36571491
118.98663131,-98.33735998,80.06216969,-56.58559863,-167.02917782,177.67996158
-63.05714491,-171.55347286,-81.88939758,73.66110642,-3.46456753,-5.11632371
0.89524193,-1.33427403,0.89519492,3.10906289

>  <Name>


>  <RI>
0

>  <Rbt.Current_Directory>
/home/itssahil/PROJECTS/Mol_Feturizer/New_Systems/rnas/1qd3

>  <Rbt.Executable>
rbdock ($Id: //depot/dev/client3/rdock/2013.1/src/exe/rbdock.cxx#4 $)

>  <Rbt.Library>
libRbt.so (2013.1, Build901 2013/11/27)

>  <Rbt.Parameter_File>
/export/apps/rDock/src/rDock_2013.1_src/data/scripts/dock_solv.prm

>  <Rbt.Receptor>
prm/blind_docking_100.prm

>  <SCORE>
-64.1883

>  <SCORE.INTER>
-49.5151

>  <SCORE.INTER.CONST>
1

>  <SCORE.INTER.POLAR>
-6.0917

>  <SCORE.INTER.ROT>
9

>  <SCORE.INTER.SOLV>
28.7856

>  <SCORE.INTER.VDW>
-31.8996

>  <SCORE.INTER.norm>
-1.17893

>  <SCORE.INTRA>
-15.5388

>  <SCORE.INTRA.DIHEDRAL>
-2.57594

>  <SCORE.INTRA.DIHEDRAL.0>
40.6252

>  <SCORE.INTRA.POLAR>
-1.42162

>  <SCORE.INTRA.POLAR.0>
-1.20161

>  <SCORE.INTRA.REPUL>
-0.115675

>  <SCORE.INTRA.REPUL.0>
0.115675

>  <SCORE.INTRA.SOLV>
-0.604769

>  <SCORE.INTRA.SOLV.lig_0>
-154.895

>  <SCORE.INTRA.VDW>
-8.53657

>  <SCORE.INTRA.VDW.0>
2.2925

>  <SCORE.INTRA.norm>
-0.369972

>  <SCORE.RESTR>
0.865597

>  <SCORE.RESTR.CAVITY>
0.865597

>  <SCORE.RESTR.norm>
0.0206094

>  <SCORE.SYSTEM>
0

>  <SCORE.SYSTEM.CONST>
0

>  <SCORE.SYSTEM.DIHEDRAL>
0

>  <SCORE.SYSTEM.SOLV>
0

>  <SCORE.SYSTEM.norm>
0

>  <SCORE.heavy>
42

>  <SCORE.norm>
-1.52829

>  <RMSD>
15.088

$$$$

 OpenBabel11021811413D
libRbt.so/2013.1/901 2013/11/27
 42 45  0  0  0  0  0  0  0  0999 V2000
   -9.6758   -3.6798   -3.2459 O   0  0  0  0  0  0  0  0  0  0  0  0
   -8.8332   -2.9676   -2.3512 C   0  0  0  0  0  0  0  0  0  0  0  0
   -7.4364   -3.5901   -2.3495 C   0  0  1  0  0  0  0  0  0  0  0  0
   -6.5647   -2.9212   -1.4123 O   0  0  0  0  0  0  0  0  0  0  0  0
   -7.4293   -5.0554   -1.9468 C   0  0  2  0  0  0  0  0  0  0  0  0
   -5.9710   -5.2285   -1.5567 C   0  0  1  0  0  0  0  0  0  0  0  0
   -5.1694   -5.3358   -2.7279 O   0  0  0  0  0  0  0  0  0  0  0  0
   -5.6664   -3.9011   -0.8329 C   0  0  2  0  0  0  0  0  0  0  0  0
   -8.6248   -9.2177   -1.7272 C   0  0  2  0  0  0  0  0  0  0  0  0
   -8.7955   -7.8396   -2.0923 O   0  0  0  0  0  0  0  0  0  0  0  0
   -7.6279   -7.3075   -2.7438 C   0  0  2  0  0  0  0  0  0  0  0  0
   -7.8104   -5.9082   -3.0443 O   0  0  0  0  0  0  0  0  0  0  0  0
   -7.3175   -8.0938   -4.0290 C   0  0  2  0  0  0  0  0  0  0  0  0
   -8.2279   -7.7180   -5.0950 N   0  3  0  0  0  0  0  0  0  0  0  0
   -7.3319   -9.6128   -3.8209 C   0  0  1  0  0  0  0  0  0  0  0  0
   -6.1266  -10.0128   -3.1883 O   0  0  0  0  0  0  0  0  0  0  0  0
   -8.5241  -10.0708   -2.9852 C   0  0  2  0  0  0  0  0  0  0  0  0
   -9.7210   -9.9633   -3.7470 O   0  0  0  0  0  0  0  0  0  0  0  0
   -9.7771   -9.6866   -0.8435 C   0  0  0  0  0  0  0  0  0  0  0  0
  -10.6559  -10.5720   -1.5844 N   0  3  0  0  0  0  0  0  0  0  0  0
   -4.5618   -0.0506    1.5106 C   0  0  1  0  0  0  0  0  0  0  0  0
   -5.1131   -1.2293    0.8869 O   0  0  0  0  0  0  0  0  0  0  0  0
   -4.1049   -2.1569    0.4237 C   0  0  2  0  0  0  0  0  0  0  0  0
   -3.3505   -2.7314    1.5193 O   0  0  0  0  0  0  0  0  0  0  0  0
   -3.1762   -1.4823   -0.5932 C   0  0  2  0  0  0  0  0  0  0  0  0
   -2.0514   -2.3502   -0.8888 N   0  3  0  0  0  0  0  0  0  0  0  0
   -2.6555   -0.1437   -0.0818 C   0  0  1  0  0  0  0  0  0  0  0  0
   -2.0007    0.5479   -1.1339 O   0  0  0  0  0  0  0  0  0  0  0  0
   -3.7462    0.7413    0.5016 C   0  0  2  0  0  0  0  0  0  0  0  0
   -3.1751    1.8818    1.1258 O   0  0  0  0  0  0  0  0  0  0  0  0
   -5.6872    0.8524    2.0072 C   0  0  0  0  0  0  0  0  0  0  0  0
   -5.1592    1.9304    2.8232 N   0  3  0  0  0  0  0  0  0  0  0  0
   -4.3086   -6.6275    2.9342 C   0  0  2  0  0  0  0  0  0  0  0  0
   -3.8484   -5.5961    3.9454 C   0  0  0  0  0  0  0  0  0  0  0  0
   -3.1777   -4.4283    3.2459 C   0  0  1  0  0  0  0  0  0  0  0  0
   -4.1164   -3.6995    2.2834 C   0  0  2  0  0  0  0  0  0  0  0  0
   -4.8103   -4.6961    1.3262 C   0  0  1  0  0  0  0  0  0  0  0  0
   -5.2927   -6.0135    1.9477 C   0  0  1  0  0  0  0  0  0  0  0  0
   -4.9400   -7.7340    3.6278 N   0  3  0  0  0  0  0  0  0  0  0  0
   -2.6621   -3.5134    4.2456 N   0  3  0  0  0  0  0  0  0  0  0  0
   -5.8921   -4.0668    0.5964 O   0  0  0  0  0  0  0  0  0  0  0  0
   -5.5893   -6.9516    0.9186 O   0  0  0  0  0  0  0  0  0  0  0  0
  1  2  1  0  0  0  0
  3  2  1  1  0  0  0
  3  4  1  0  0  0  0
  3  5  1  0  0  0  0
  4  8  1  0  0  0  0
  5  6  1  0  0  0  0
  5 12  1  6  0  0  0
  6  7  1  6  0  0  0
  6  8  1  0  0  0  0
  8 41  1  1  0  0  0
  9 10  1  0  0  0  0
  9 17  1  0  0  0  0
  9 19  1  1  0  0  0
 10 11  1  0  0  0  0
 11 12  1  6  0  0  0
 11 13  1  0  0  0  0
 13 14  1  6  0  0  0
 13 15  1  0  0  0  0
 15 16  1  1  0  0  0
 15 17  1  0  0  0  0
 17 18  1  6  0  0  0
 19 20  1  0  0  0  0
 21 22  1  0  0  0  0
 21 29  1  0  0  0  0
 21 31  1  6  0  0  0
 22 23  1  0  0  0  0
 23 24  1  1  0  0  0
 23 25  1  0  0  0  0
 25 26  1  1  0  0  0
 25 27  1  0  0  0  0
 27 28  1  6  0  0  0
 27 29  1  0  0  0  0
 29 30  1  1  0  0  0
 31 32  1  0  0  0  0
 33 34  1  0  0  0  0
 33 38  1  0  0  0  0
 33 39  1  1  0  0  0
 34 35  1  0  0  0  0
 35 36  1  0  0  0  0
 35 40  1  1  0  0  0
 36 24  1  6  0  0  0
 36 37  1  0  0  0  0
 37 38  1  0  0  0  0
 37 41  1  1  0  0  0
 38 42  1  6  0  0  0
M  CHG  6  14   1  20   1  26   1  32   1  39   1  40   1
M  END
>  <CHROM.1>
-59.84522972,-177.86659538,171.73591617,-160.01973731,-162.04548720,107.29694307
87.01098241,77.30130066,56.50569131,173.91594176,62.37487026,170.80959545
72.71011104,169.96284154,159.55517304,75.00786191,178.28508252,37.27113453
-174.88149992,175.68856808,111.46279718,143.79302331,-5.88298937,-4.67006329
-0.45534484,2.58064263,0.98328908,2.69041080

>  <Name>


>  <RI>
0

>  <Rbt.Current_Directory>
/home/itssahil/PROJECTS/Mol_Feturizer/New_Systems/rnas/1qd3

>  <Rbt.Executable>
rbdock ($Id: //depot/dev/client3/rdock/2013.1/src/exe/rbdock.cxx#4 $)

>  <Rbt.Library>
libRbt.so (2013.1, Build901 2013/11/27)

>  <Rbt.Parameter_File>
/export/apps/rDock/src/rDock_2013.1_src/data/scripts/dock_solv.prm

>  <Rbt.Receptor>
prm/blind_docking_60.prm

>  <SCORE>
-46.6439

>  <SCORE.INTER>
-37.5491

>  <SCORE.INTER.CONST>
1

>  <SCORE.INTER.POLAR>
-5.83842

>  <SCORE.INTER.ROT>
9

>  <SCORE.INTER.SOLV>
41.2391

>  <SCORE.INTER.VDW>
-28.9177

>  <SCORE.INTER.norm>
-0.894026

>  <SCORE.INTRA>
-11.622

>  <SCORE.INTRA.DIHEDRAL>
-9.97889

>  <SCORE.INTRA.DIHEDRAL.0>
40.6252

>  <SCORE.INTRA.POLAR>
-0.373883

>  <SCORE.INTRA.POLAR.0>
-1.20161

>  <SCORE.INTRA.REPUL>
-0.0274588

>  <SCORE.INTRA.REPUL.0>
0.115675

>  <SCORE.INTRA.SOLV>
-8.43574

>  <SCORE.INTRA.SOLV.lig_0>
-154.895

>  <SCORE.INTRA.VDW>
-1.00624

>  <SCORE.INTRA.VDW.0>
2.2925

>  <SCORE.INTRA.norm>
-0.276715

>  <SCORE.RESTR>
2.52727

>  <SCORE.RESTR.CAVITY>
2.52727

>  <SCORE.RESTR.norm>
0.0601732

>  <SCORE.SYSTEM>
0

>  <SCORE.SYSTEM.CONST>
0

>  <SCORE.SYSTEM.DIHEDRAL>
0

>  <SCORE.SYSTEM.SOLV>
0

>  <SCORE.SYSTEM.norm>
0

>  <SCORE.heavy>
42

>  <SCORE.norm>
-1.11057

>  <RMSD>
15.090

$$$$

 OpenBabel11021811413D
libRbt.so/2013.1/901 2013/11/27
 42 45  0  0  0  0  0  0  0  0999 V2000
   -5.5111   -9.9653   -1.4188 O   0  0  0  0  0  0  0  0  0  0  0  0
   -4.2678  -10.6406   -1.2925 C   0  0  0  0  0  0  0  0  0  0  0  0
   -3.2303   -9.7033   -0.6733 C   0  0  1  0  0  0  0  0  0  0  0  0
   -2.9333   -8.5955   -1.5509 O   0  0  0  0  0  0  0  0  0  0  0  0
   -3.6844   -9.0819    0.6371 C   0  0  2  0  0  0  0  0  0  0  0  0
   -2.7404   -7.8943    0.7224 C   0  0  1  0  0  0  0  0  0  0  0  0
   -1.4526   -8.3328    1.1411 O   0  0  0  0  0  0  0  0  0  0  0  0
   -2.6810   -7.4179   -0.7432 C   0  0  2  0  0  0  0  0  0  0  0  0
   -3.7474   -8.0324    4.8146 C   0  0  2  0  0  0  0  0  0  0  0  0
   -4.1740   -8.7480    3.6452 O   0  0  0  0  0  0  0  0  0  0  0  0
   -3.0654   -9.3339    2.9392 C   0  0  2  0  0  0  0  0  0  0  0  0
   -3.5219   -9.9946    1.7405 O   0  0  0  0  0  0  0  0  0  0  0  0
   -2.3103  -10.3253    3.8410 C   0  0  2  0  0  0  0  0  0  0  0  0
   -3.0435  -11.5719    3.9627 N   0  3  0  0  0  0  0  0  0  0  0  0
   -1.9913   -9.7522    5.2269 C   0  0  1  0  0  0  0  0  0  0  0  0
   -0.8831   -8.8719    5.1288 O   0  0  0  0  0  0  0  0  0  0  0  0
   -3.1799   -9.0118    5.8341 C   0  0  2  0  0  0  0  0  0  0  0  0
   -4.1811   -9.9423    6.2295 O   0  0  0  0  0  0  0  0  0  0  0  0
   -4.9054   -7.2375    5.4110 C   0  0  0  0  0  0  0  0  0  0  0  0
   -5.9631   -7.0712    4.4319 N   0  3  0  0  0  0  0  0  0  0  0  0
   -7.2790   -5.2309   -2.9528 C   0  0  1  0  0  0  0  0  0  0  0  0
   -5.9206   -5.6427   -2.6934 O   0  0  0  0  0  0  0  0  0  0  0  0
   -5.0400   -4.5418   -2.3712 C   0  0  2  0  0  0  0  0  0  0  0  0
   -5.3979   -3.9084   -1.1180 O   0  0  0  0  0  0  0  0  0  0  0  0
   -5.0077   -3.5224   -3.5164 C   0  0  2  0  0  0  0  0  0  0  0  0
   -4.2938   -2.3302   -3.0985 N   0  3  0  0  0  0  0  0  0  0  0  0
   -6.4115   -3.1339   -3.9668 C   0  0  1  0  0  0  0  0  0  0  0  0
   -6.3371   -2.3822   -5.1683 O   0  0  0  0  0  0  0  0  0  0  0  0
   -7.3272   -4.3301   -4.1761 C   0  0  2  0  0  0  0  0  0  0  0  0
   -8.6595   -3.8970   -4.4088 O   0  0  0  0  0  0  0  0  0  0  0  0
   -8.1486   -6.4512   -3.2416 C   0  0  0  0  0  0  0  0  0  0  0  0
   -7.7228   -7.1082   -4.4638 N   0  3  0  0  0  0  0  0  0  0  0  0
   -1.6631   -3.7533    0.9133 C   0  0  2  0  0  0  0  0  0  0  0  0
   -2.8698   -3.1381    1.5941 C   0  0  0  0  0  0  0  0  0  0  0  0
   -3.9903   -2.9199    0.5943 C   0  0  1  0  0  0  0  0  0  0  0  0
   -4.4731   -4.2230   -0.0441 C   0  0  2  0  0  0  0  0  0  0  0  0
   -3.2839   -5.0427   -0.5960 C   0  0  1  0  0  0  0  0  0  0  0  0
   -2.0248   -5.0898    0.2797 C   0  0  1  0  0  0  0  0  0  0  0  0
   -0.6062   -3.9460    1.8879 N   0  3  0  0  0  0  0  0  0  0  0  0
   -5.0866   -2.2398    1.2561 N   0  3  0  0  0  0  0  0  0  0  0  0
   -3.6868   -6.3865   -0.9577 O   0  0  0  0  0  0  0  0  0  0  0  0
   -0.9244   -5.5725   -0.4841 O   0  0  0  0  0  0  0  0  0  0  0  0
  1  2  1  0  0  0  0
  3  2  1  6  0  0  0
  3  4  1  0  0  0  0
  3  5  1  0  0  0  0
  4  8  1  0  0  0  0
  5  6  1  0  0  0  0
  5 12  1  1  0  0  0
  6  7  1  6  0  0  0
  6  8  1  0  0  0  0
  8 41  1  1  0  0  0
  9 10  1  0  0  0  0
  9 17  1  0  0  0  0
  9 19  1  1  0  0  0
 10 11  1  0  0  0  0
 11 12  1  6  0  0  0
 11 13  1  0  0  0  0
 13 14  1  1  0  0  0
 13 15  1  0  0  0  0
 15 16  1  6  0  0  0
 15 17  1  0  0  0  0
 17 18  1  6  0  0  0
 19 20  1  0  0  0  0
 21 22  1  0  0  0  0
 21 29  1  0  0  0  0
 21 31  1  6  0  0  0
 22 23  1  0  0  0  0
 23 24  1  1  0  0  0
 23 25  1  0  0  0  0
 25 26  1  1  0  0  0
 25 27  1  0  0  0  0
 27 28  1  6  0  0  0
 27 29  1  0  0  0  0
 29 30  1  1  0  0  0
 31 32  1  0  0  0  0
 33 34  1  0  0  0  0
 33 38  1  0  0  0  0
 33 39  1  1  0  0  0
 34 35  1  0  0  0  0
 35 36  1  0  0  0  0
 35 40  1  1  0  0  0
 36 24  1  6  0  0  0
 36 37  1  0  0  0  0
 37 38  1  0  0  0  0
 37 41  1  1  0  0  0
 38 42  1  6  0  0  0
M  CHG  6  14   1  20   1  26   1  32   1  39   1  40   1
M  END
>  <CHROM.1>
-58.00247562,-65.62847823,141.07680347,-171.06028236,-158.65695503,-18.38478135
83.17866814,95.67114739,-71.90030624,61.74336845,-87.99124040,-64.72006806
106.47921306,127.39622857,-36.90701496,-168.27211055,-179.88434426,61.35097011
-68.77919119,-52.12311697,-145.99016398,132.41649226,-4.14935331,-6.58397110
0.31010959,0.89758262,0.99980561,2.77217737

>  <Name>


>  <RI>
0

>  <Rbt.Current_Directory>
/home/itssahil/PROJECTS/Mol_Feturizer/New_Systems/rnas/1qd3

>  <Rbt.Executable>
rbdock ($Id: //depot/dev/client3/rdock/2013.1/src/exe/rbdock.cxx#4 $)

>  <Rbt.Library>
libRbt.so (2013.1, Build901 2013/11/27)

>  <Rbt.Parameter_File>
/export/apps/rDock/src/rDock_2013.1_src/data/scripts/dock_solv.prm

>  <Rbt.Receptor>
prm/blind_docking_80.prm

>  <SCORE>
-30.8938

>  <SCORE.INTER>
-39.9474

>  <SCORE.INTER.CONST>
1

>  <SCORE.INTER.POLAR>
-7.59109

>  <SCORE.INTER.ROT>
9

>  <SCORE.INTER.SOLV>
38.7774

>  <SCORE.INTER.VDW>
-23.8538

>  <SCORE.INTER.norm>
-0.951129

>  <SCORE.INTRA>
7.35844

>  <SCORE.INTRA.DIHEDRAL>
3.37889

>  <SCORE.INTRA.DIHEDRAL.0>
40.6252

>  <SCORE.INTRA.POLAR>
1.11158

>  <SCORE.INTRA.POLAR.0>
-1.20161

>  <SCORE.INTRA.REPUL>
-0.115675

>  <SCORE.INTRA.REPUL.0>
0.115675

>  <SCORE.INTRA.SOLV>
-10.0585

>  <SCORE.INTRA.SOLV.lig_0>
-154.895

>  <SCORE.INTRA.VDW>
7.49725

>  <SCORE.INTRA.VDW.0>
2.2925

>  <SCORE.INTRA.norm>
0.175201

>  <SCORE.RESTR>
1.69518

>  <SCORE.RESTR.CAVITY>
1.69518

>  <SCORE.RESTR.norm>
0.0403615

>  <SCORE.SYSTEM>
0

>  <SCORE.SYSTEM.CONST>
0

>  <SCORE.SYSTEM.DIHEDRAL>
0

>  <SCORE.SYSTEM.SOLV>
0

>  <SCORE.SYSTEM.norm>
0

>  <SCORE.heavy>
42

>  <SCORE.norm>
-0.735567

>  <RMSD>
15.090

$$$$

 OpenBabel11021811413D
libRbt.so/2013.1/901 2013/11/27
 42 45  0  0  0  0  0  0  0  0999 V2000
   -0.6895   -5.6645    1.4362 O   0  0  0  0  0  0  0  0  0  0  0  0
   -0.7366   -4.5578    2.3254 C   0  0  0  0  0  0  0  0  0  0  0  0
   -2.1899   -4.1450    2.5616 C   0  0  1  0  0  0  0  0  0  0  0  0
   -2.7391   -3.4732    1.4071 O   0  0  0  0  0  0  0  0  0  0  0  0
   -3.1142   -5.3200    2.8343 C   0  0  2  0  0  0  0  0  0  0  0  0
   -4.4619   -4.6902    2.5243 C   0  0  1  0  0  0  0  0  0  0  0  0
   -4.8648   -3.8591    3.6073 O   0  0  0  0  0  0  0  0  0  0  0  0
   -4.1414   -3.8234    1.2896 C   0  0  2  0  0  0  0  0  0  0  0  0
   -3.2895   -9.3275    3.4381 C   0  0  2  0  0  0  0  0  0  0  0  0
   -2.8520   -7.9637    3.3384 O   0  0  0  0  0  0  0  0  0  0  0  0
   -3.4295   -7.1374    4.3653 C   0  0  2  0  0  0  0  0  0  0  0  0
   -3.0161   -5.7648    4.2016 O   0  0  0  0  0  0  0  0  0  0  0  0
   -3.0357   -7.6511    5.7608 C   0  0  2  0  0  0  0  0  0  0  0  0
   -1.6660   -7.2884    6.0753 N   0  3  0  0  0  0  0  0  0  0  0  0
   -3.2425   -9.1614    5.9243 C   0  0  1  0  0  0  0  0  0  0  0  0
   -4.6212   -9.4288    6.1258 O   0  0  0  0  0  0  0  0  0  0  0  0
   -2.7406   -9.9480    4.7165 C   0  0  2  0  0  0  0  0  0  0  0  0
   -1.3180   -9.9439    4.6913 O   0  0  0  0  0  0  0  0  0  0  0  0
   -2.8480  -10.1249    2.2141 C   0  0  0  0  0  0  0  0  0  0  0  0
   -1.4749   -9.8064    1.8703 N   0  3  0  0  0  0  0  0  0  0  0  0
   -5.3459   -7.2881   -1.2269 C   0  0  1  0  0  0  0  0  0  0  0  0
   -5.1516   -6.2039   -2.1590 O   0  0  0  0  0  0  0  0  0  0  0  0
   -6.3836   -5.5511   -2.5431 C   0  0  2  0  0  0  0  0  0  0  0  0
   -7.0081   -4.8693   -1.4273 O   0  0  0  0  0  0  0  0  0  0  0  0
   -7.3481   -6.5536   -3.1883 C   0  0  2  0  0  0  0  0  0  0  0  0
   -8.6495   -5.9393   -3.3748 N   0  3  0  0  0  0  0  0  0  0  0  0
   -7.5047   -7.8120   -2.3419 C   0  0  1  0  0  0  0  0  0  0  0  0
   -8.2088   -8.7994   -3.0792 O   0  0  0  0  0  0  0  0  0  0  0  0
   -6.1781   -8.3861   -1.8689 C   0  0  2  0  0  0  0  0  0  0  0  0
   -6.3983   -9.4362   -0.9386 O   0  0  0  0  0  0  0  0  0  0  0  0
   -3.9990   -7.8932   -0.8415 C   0  0  0  0  0  0  0  0  0  0  0  0
   -2.9715   -6.8694   -0.7893 N   0  3  0  0  0  0  0  0  0  0  0  0
   -4.4899   -1.5263   -2.1909 C   0  0  2  0  0  0  0  0  0  0  0  0
   -5.9714   -1.2716   -1.9947 C   0  0  0  0  0  0  0  0  0  0  0  0
   -6.7563   -2.5624   -2.1381 C   0  0  1  0  0  0  0  0  0  0  0  0
   -6.3583   -3.6129   -1.1004 C   0  0  2  0  0  0  0  0  0  0  0  0
   -4.8244   -3.8057   -1.0683 C   0  0  1  0  0  0  0  0  0  0  0  0
   -3.9758   -2.5313   -1.1690 C   0  0  1  0  0  0  0  0  0  0  0  0
   -3.7641   -0.2779   -2.0547 N   0  3  0  0  0  0  0  0  0  0  0  0
   -8.1725   -2.2655   -2.0455 N   0  3  0  0  0  0  0  0  0  0  0  0
   -4.4109   -4.5875    0.0792 O   0  0  0  0  0  0  0  0  0  0  0  0
   -2.6266   -2.8733   -1.4687 O   0  0  0  0  0  0  0  0  0  0  0  0
  1  2  1  0  0  0  0
  3  2  1  6  0  0  0
  3  4  1  0  0  0  0
  3  5  1  0  0  0  0
  4  8  1  0  0  0  0
  5  6  1  0  0  0  0
  5 12  1  1  0  0  0
  6  7  1  1  0  0  0
  6  8  1  0  0  0  0
  8 41  1  6  0  0  0
  9 10  1  0  0  0  0
  9 17  1  0  0  0  0
  9 19  1  6  0  0  0
 10 11  1  0  0  0  0
 11 12  1  6  0  0  0
 11 13  1  0  0  0  0
 13 14  1  6  0  0  0
 13 15  1  0  0  0  0
 15 16  1  6  0  0  0
 15 17  1  0  0  0  0
 17 18  1  6  0  0  0
 19 20  1  0  0  0  0
 21 22  1  0  0  0  0
 21 29  1  0  0  0  0
 21 31  1  6  0  0  0
 22 23  1  0  0  0  0
 23 24  1  1  0  0  0
 23 25  1  0  0  0  0
 25 26  1  1  0  0  0
 25 27  1  0  0  0  0
 27 28  1  6  0  0  0
 27 29  1  0  0  0  0
 29 30  1  1  0  0  0
 31 32  1  0  0  0  0
 33 34  1  0  0  0  0
 33 38  1  0  0  0  0
 33 39  1  1  0  0  0
 34 35  1  0  0  0  0
 35 36  1  0  0  0  0
 35 40  1  1  0  0  0
 36 24  1  6  0  0  0
 36 37  1  0  0  0  0
 37 38  1  0  0  0  0
 37 41  1  1  0  0  0
 38 42  1  6  0  0  0
M  CHG  6  14   1  20   1  26   1  32   1  39   1  40   1
M  END
>  <CHROM.1>
61.22386507,-73.53295064,-156.77145075,60.36423075,-93.44273907,43.46630605
45.55407935,91.61681669,89.66295615,-66.60903757,-120.94584247,34.59520270
76.75245472,75.84634540,-46.54179829,-61.90130723,-177.51931051,-172.19326065
-54.07664984,-29.19861770,-88.52073409,164.65830735,-4.33630505,-5.96536641
0.75647785,-0.82134421,-0.89913941,-0.36181762

>  <Name>


>  <RI>
0

>  <Rbt.Current_Directory>
/home/itssahil/PROJECTS/Mol_Feturizer/New_Systems/rnas/1qd3

>  <Rbt.Executable>
rbdock ($Id: //depot/dev/client3/rdock/2013.1/src/exe/rbdock.cxx#4 $)

>  <Rbt.Library>
libRbt.so (2013.1, Build901 2013/11/27)

>  <Rbt.Parameter_File>
/export/apps/rDock/src/rDock_2013.1_src/data/scripts/dock_solv.prm

>  <Rbt.Receptor>
prm/blind_docking_40.prm

>  <SCORE>
-33.258

>  <SCORE.INTER>
-26.3024

>  <SCORE.INTER.CONST>
1

>  <SCORE.INTER.POLAR>
-2.91323

>  <SCORE.INTER.ROT>
9

>  <SCORE.INTER.SOLV>
21.2269

>  <SCORE.INTER.VDW>
-24.4998

>  <SCORE.INTER.norm>
-0.626248

>  <SCORE.INTRA>
-14.3071

>  <SCORE.INTRA.DIHEDRAL>
-11.2193

>  <SCORE.INTRA.DIHEDRAL.0>
40.6252

>  <SCORE.INTRA.POLAR>
-0.069407

>  <SCORE.INTRA.POLAR.0>
-1.20161

>  <SCORE.INTRA.REPUL>
-0.111956

>  <SCORE.INTRA.REPUL.0>
0.115675

>  <SCORE.INTRA.SOLV>
-3.03463

>  <SCORE.INTRA.SOLV.lig_0>
-154.895

>  <SCORE.INTRA.VDW>
-6.38436

>  <SCORE.INTRA.VDW.0>
2.2925

>  <SCORE.INTRA.norm>
-0.340645

>  <SCORE.RESTR>
7.35155

>  <SCORE.RESTR.CAVITY>
7.35155

>  <SCORE.RESTR.norm>
0.175037

>  <SCORE.SYSTEM>
0

>  <SCORE.SYSTEM.CONST>
0

>  <SCORE.SYSTEM.DIHEDRAL>
0

>  <SCORE.SYSTEM.SOLV>
0

>  <SCORE.SYSTEM.norm>
0

>  <SCORE.heavy>
42

>  <SCORE.norm>
-0.791856

>  <RMSD>
15.096

$$$$

 OpenBabel11021811413D
libRbt.so/2013.1/901 2013/11/27
 42 45  0  0  0  0  0  0  0  0999 V2000
   -1.6214   -2.0295    3.2752 O   0  0  0  0  0  0  0  0  0  0  0  0
   -2.1854   -1.6153    2.0390 C   0  0  0  0  0  0  0  0  0  0  0  0
   -3.6173   -2.1392    1.9219 C   0  0  1  0  0  0  0  0  0  0  0  0
   -4.1851   -1.8311    0.6303 O   0  0  0  0  0  0  0  0  0  0  0  0
   -3.7217   -3.6480    2.0698 C   0  0  2  0  0  0  0  0  0  0  0  0
   -5.0768   -3.8962    1.4287 C   0  0  1  0  0  0  0  0  0  0  0  0
   -6.1117   -3.5311    2.3351 O   0  0  0  0  0  0  0  0  0  0  0  0
   -5.0573   -2.9200    0.2348 C   0  0  2  0  0  0  0  0  0  0  0  0
   -2.7031   -7.5288    2.9337 C   0  0  2  0  0  0  0  0  0  0  0  0
   -2.6668   -6.0964    2.8426 O   0  0  0  0  0  0  0  0  0  0  0  0
   -3.7151   -5.4820    3.6135 C   0  0  2  0  0  0  0  0  0  0  0  0
   -3.6861   -4.0483    3.4538 O   0  0  0  0  0  0  0  0  0  0  0  0
   -3.5869   -5.8566    5.1000 C   0  0  2  0  0  0  0  0  0  0  0  0
   -2.5199   -5.1017    5.7309 N   0  3  0  0  0  0  0  0  0  0  0  0
   -3.3867   -7.3600    5.3244 C   0  0  1  0  0  0  0  0  0  0  0  0
   -4.6303   -8.0274    5.1798 O   0  0  0  0  0  0  0  0  0  0  0  0
   -2.3698   -7.9589    4.3566 C   0  0  2  0  0  0  0  0  0  0  0  0
   -1.0582   -7.5298    4.7034 O   0  0  0  0  0  0  0  0  0  0  0  0
   -1.7341   -8.1560    1.9354 C   0  0  0  0  0  0  0  0  0  0  0  0
   -0.5129   -7.3767    1.8569 N   0  3  0  0  0  0  0  0  0  0  0  0
   -4.0679   -6.8583   -0.7986 C   0  0  1  0  0  0  0  0  0  0  0  0
   -4.5863   -6.3113   -2.0292 O   0  0  0  0  0  0  0  0  0  0  0  0
   -6.0187   -6.4586   -2.1629 C   0  0  2  0  0  0  0  0  0  0  0  0
   -6.7395   -5.6848   -1.1723 O   0  0  0  0  0  0  0  0  0  0  0  0
   -6.4174   -7.9383   -2.1059 C   0  0  2  0  0  0  0  0  0  0  0  0
   -7.8614   -8.0597   -2.0287 N   0  3  0  0  0  0  0  0  0  0  0  0
   -5.7904   -8.6468   -0.9103 C   0  0  1  0  0  0  0  0  0  0  0  0
   -5.9886  -10.0473   -1.0268 O   0  0  0  0  0  0  0  0  0  0  0  0
   -4.3052   -8.3590   -0.7533 C   0  0  2  0  0  0  0  0  0  0  0  0
   -3.8266   -8.8900    0.4737 O   0  0  0  0  0  0  0  0  0  0  0  0
   -2.5621   -6.6249   -0.7167 C   0  0  0  0  0  0  0  0  0  0  0  0
   -2.2726   -5.3602   -0.0661 N   0  3  0  0  0  0  0  0  0  0  0  0
   -6.6925   -2.3883   -3.8613 C   0  0  2  0  0  0  0  0  0  0  0  0
   -8.0098   -2.7540   -3.2062 C   0  0  0  0  0  0  0  0  0  0  0  0
   -7.9418   -4.1519   -2.6197 C   0  0  1  0  0  0  0  0  0  0  0  0
   -6.8701   -4.2857   -1.5370 C   0  0  2  0  0  0  0  0  0  0  0  0
   -5.5107   -3.7415   -2.0337 C   0  0  1  0  0  0  0  0  0  0  0  0
   -5.5545   -2.4437   -2.8511 C   0  0  1  0  0  0  0  0  0  0  0  0
   -6.7857   -1.0521   -4.4179 N   0  3  0  0  0  0  0  0  0  0  0  0
   -9.2455   -4.5058   -2.0929 N   0  3  0  0  0  0  0  0  0  0  0  0
   -4.5612   -3.6114   -0.9473 O   0  0  0  0  0  0  0  0  0  0  0  0
   -4.3111   -2.2517   -3.5176 O   0  0  0  0  0  0  0  0  0  0  0  0
  1  2  1  0  0  0  0
  3  2  1  6  0  0  0
  3  4  1  0  0  0  0
  3  5  1  0  0  0  0
  4  8  1  0  0  0  0
  5  6  1  0  0  0  0
  5 12  1  1  0  0  0
  6  7  1  1  0  0  0
  6  8  1  0  0  0  0
  8 41  1  6  0  0  0
  9 10  1  0  0  0  0
  9 17  1  0  0  0  0
  9 19  1  6  0  0  0
 10 11  1  0  0  0  0
 11 12  1  1  0  0  0
 11 13  1  0  0  0  0
 13 14  1  6  0  0  0
 13 15  1  0  0  0  0
 15 16  1  6  0  0  0
 15 17  1  0  0  0  0
 17 18  1  1  0  0  0
 19 20  1  0  0  0  0
 21 22  1  0  0  0  0
 21 29  1  0  0  0  0
 21 31  1  6  0  0  0
 22 23  1  0  0  0  0
 23 24  1  1  0  0  0
 23 25  1  0  0  0  0
 25 26  1  1  0  0  0
 25 27  1  0  0  0  0
 27 28  1  6  0  0  0
 27 29  1  0  0  0  0
 29 30  1  1  0  0  0
 31 32  1  0  0  0  0
 33 34  1  0  0  0  0
 33 38  1  0  0  0  0
 33 39  1  1  0  0  0
 34 35  1  0  0  0  0
 35 36  1  0  0  0  0
 35 40  1  1  0  0  0
 36 24  1  6  0  0  0
 36 37  1  0  0  0  0
 37 38  1  0  0  0  0
 37 41  1  1  0  0  0
 38 42  1  6  0  0  0
M  CHG  6  14   1  20   1  26   1  32   1  39   1  40   1
M  END
>  <CHROM.1>
177.15587615,-175.25195870,-177.03667263,91.81015274,-127.16070329,38.77633799
53.77703079,-35.53340345,-65.49880125,-176.09164505,171.67793137,90.15462326
81.16652930,75.73709147,-38.27519916,60.98205492,79.75784013,-152.43860378
-64.90904027,-94.71683656,-49.13097348,179.86660188,-4.50077596,-5.29956663
0.51596539,-0.41633385,-0.98596345,-0.10686735

>  <Name>


>  <RI>
0

>  <Rbt.Current_Directory>
/home/itssahil/PROJECTS/Mol_Feturizer/New_Systems/rnas/1qd3

>  <Rbt.Executable>
rbdock ($Id: //depot/dev/client3/rdock/2013.1/src/exe/rbdock.cxx#4 $)

>  <Rbt.Library>
libRbt.so (2013.1, Build901 2013/11/27)

>  <Rbt.Parameter_File>
/export/apps/rDock/src/rDock_2013.1_src/data/scripts/dock_solv.prm

>  <Rbt.Receptor>
prm/blind_docking_40.prm

>  <SCORE>
-60.1407

>  <SCORE.INTER>
-43.5965

>  <SCORE.INTER.CONST>
1

>  <SCORE.INTER.POLAR>
-6.05528

>  <SCORE.INTER.ROT>
9

>  <SCORE.INTER.SOLV>
28.5774

>  <SCORE.INTER.VDW>
-28.0058

>  <SCORE.INTER.norm>
-1.03801

>  <SCORE.INTRA>
-18.2733

>  <SCORE.INTRA.DIHEDRAL>
-13.0413

>  <SCORE.INTRA.DIHEDRAL.0>
40.6252

>  <SCORE.INTRA.POLAR>
-1.26989

>  <SCORE.INTRA.POLAR.0>
-1.20161

>  <SCORE.INTRA.REPUL>
-0.103066

>  <SCORE.INTRA.REPUL.0>
0.115675

>  <SCORE.INTRA.SOLV>
1.98016

>  <SCORE.INTRA.SOLV.lig_0>
-154.895

>  <SCORE.INTRA.VDW>
-7.90977

>  <SCORE.INTRA.VDW.0>
2.2925

>  <SCORE.INTRA.norm>
-0.435079

>  <SCORE.RESTR>
1.72906

>  <SCORE.RESTR.CAVITY>
1.72906

>  <SCORE.RESTR.norm>
0.0411681

>  <SCORE.SYSTEM>
0

>  <SCORE.SYSTEM.CONST>
0

>  <SCORE.SYSTEM.DIHEDRAL>
0

>  <SCORE.SYSTEM.SOLV>
0

>  <SCORE.SYSTEM.norm>
0

>  <SCORE.heavy>
42

>  <SCORE.norm>
-1.43192

>  <RMSD>
15.099

$$$$

 OpenBabel11021811413D
libRbt.so/2013.1/901 2013/11/27
 42 45  0  0  0  0  0  0  0  0999 V2000
   -1.2659   -0.8170    2.0527 O   0  0  0  0  0  0  0  0  0  0  0  0
   -2.1428   -1.1445    0.9843 C   0  0  0  0  0  0  0  0  0  0  0  0
   -3.3868   -1.8452    1.5319 C   0  0  1  0  0  0  0  0  0  0  0  0
   -4.3622   -2.0724    0.4914 O   0  0  0  0  0  0  0  0  0  0  0  0
   -3.0955   -3.2114    2.1304 C   0  0  2  0  0  0  0  0  0  0  0  0
   -4.4845   -3.8268    2.1051 C   0  0  1  0  0  0  0  0  0  0  0  0
   -5.2639   -3.2992    3.1729 O   0  0  0  0  0  0  0  0  0  0  0  0
   -5.0388   -3.3276    0.7553 C   0  0  2  0  0  0  0  0  0  0  0  0
   -3.2041   -6.6032    4.2958 C   0  0  2  0  0  0  0  0  0  0  0  0
   -3.3578   -5.3257    3.6586 O   0  0  0  0  0  0  0  0  0  0  0  0
   -2.3486   -4.3902    4.0795 C   0  0  2  0  0  0  0  0  0  0  0  0
   -2.5661   -3.1024    3.4664 O   0  0  0  0  0  0  0  0  0  0  0  0
   -0.9442   -4.9152    3.7354 C   0  0  2  0  0  0  0  0  0  0  0  0
   -0.6678   -4.7564    2.3195 N   0  3  0  0  0  0  0  0  0  0  0  0
   -0.7261   -6.3707    4.1653 C   0  0  1  0  0  0  0  0  0  0  0  0
   -0.4900   -6.4184    5.5635 O   0  0  0  0  0  0  0  0  0  0  0  0
   -1.9160   -7.2610    3.8175 C   0  0  2  0  0  0  0  0  0  0  0  0
   -1.9680   -7.4747    2.4117 O   0  0  0  0  0  0  0  0  0  0  0  0
   -4.4086   -7.4954    4.0096 C   0  0  0  0  0  0  0  0  0  0  0  0
   -4.5880   -8.4620    5.0765 N   0  3  0  0  0  0  0  0  0  0  0  0
   -4.3236   -7.1225   -0.8961 C   0  0  1  0  0  0  0  0  0  0  0  0
   -4.9270   -6.5681   -2.0838 O   0  0  0  0  0  0  0  0  0  0  0  0
   -6.3547   -6.7869   -2.1565 C   0  0  2  0  0  0  0  0  0  0  0  0
   -7.0666   -6.0813   -1.1101 O   0  0  0  0  0  0  0  0  0  0  0  0
   -6.6738   -8.2865   -2.1279 C   0  0  2  0  0  0  0  0  0  0  0  0
   -8.1043   -8.4861   -1.9887 N   0  3  0  0  0  0  0  0  0  0  0  0
   -5.9554   -8.9954   -0.9852 C   0  0  1  0  0  0  0  0  0  0  0  0
   -6.0867  -10.4005   -1.1365 O   0  0  0  0  0  0  0  0  0  0  0  0
   -4.4812   -8.6343   -0.8872 C   0  0  2  0  0  0  0  0  0  0  0  0
   -3.9184   -9.1748    0.2993 O   0  0  0  0  0  0  0  0  0  0  0  0
   -2.8296   -6.8125   -0.8758 C   0  0  0  0  0  0  0  0  0  0  0  0
   -2.5520   -5.6760   -0.0167 N   0  3  0  0  0  0  0  0  0  0  0  0
   -6.3185   -2.4651   -3.2227 C   0  0  2  0  0  0  0  0  0  0  0  0
   -7.7465   -2.7687   -2.8144 C   0  0  0  0  0  0  0  0  0  0  0  0
   -7.8947   -4.2340   -2.4489 C   0  0  1  0  0  0  0  0  0  0  0  0
   -7.0130   -4.6390   -1.2668 C   0  0  2  0  0  0  0  0  0  0  0  0
   -5.5507   -4.1869   -1.4867 C   0  0  1  0  0  0  0  0  0  0  0  0
   -5.3535   -2.7902   -2.0905 C   0  0  1  0  0  0  0  0  0  0  0  0
   -6.2051   -1.0618   -3.5720 N   0  3  0  0  0  0  0  0  0  0  0  0
   -9.2892   -4.5095   -2.1625 N   0  3  0  0  0  0  0  0  0  0  0  0
   -4.7658   -4.3191   -0.2762 O   0  0  0  0  0  0  0  0  0  0  0  0
   -4.0124   -2.6474   -2.5469 O   0  0  0  0  0  0  0  0  0  0  0  0
  1  2  1  0  0  0  0
  3  2  1  6  0  0  0
  3  4  1  0  0  0  0
  3  5  1  0  0  0  0
  4  8  1  0  0  0  0
  5  6  1  0  0  0  0
  5 12  1  1  0  0  0
  6  7  1  1  0  0  0
  6  8  1  0  0  0  0
  8 41  1  6  0  0  0
  9 10  1  0  0  0  0
  9 17  1  0  0  0  0
  9 19  1  6  0  0  0
 10 11  1  0  0  0  0
 11 12  1  6  0  0  0
 11 13  1  0  0  0  0
 13 14  1  6  0  0  0
 13 15  1  0  0  0  0
 15 16  1  1  0  0  0
 15 17  1  0  0  0  0
 17 18  1  6  0  0  0
 19 20  1  0  0  0  0
 21 22  1  0  0  0  0
 21 29  1  0  0  0  0
 21 31  1  6  0  0  0
 22 23  1  0  0  0  0
 23 24  1  1  0  0  0
 23 25  1  0  0  0  0
 25 26  1  1  0  0  0
 25 27  1  0  0  0  0
 27 28  1  6  0  0  0
 27 29  1  0  0  0  0
 29 30  1  1  0  0  0
 31 32  1  0  0  0  0
 33 34  1  0  0  0  0
 33 38  1  0  0  0  0
 33 39  1  1  0  0  0
 34 35  1  0  0  0  0
 35 36  1  0  0  0  0
 35 40  1  1  0  0  0
 36 24  1  6  0  0  0
 36 37  1  0  0  0  0
 37 38  1  0  0  0  0
 37 41  1  1  0  0  0
 38 42  1  6  0  0  0
M  CHG  6  14   1  20   1  26   1  32   1  39   1  40   1
M  END
>  <CHROM.1>
79.27370287,174.18231598,176.94370471,-53.59190521,-80.54303552,-153.21549140
-34.71041035,164.19978221,-53.08869787,-169.55960359,-148.96612513,99.50261542
67.52181674,71.81594239,-172.04488669,-55.53053852,-59.61226716,89.80865688
-167.69935970,-86.83944275,-73.70217726,74.20643440,-4.35839237,-5.22088224
0.58875269,-0.24222498,-0.87546814,-0.24798100

>  <Name>


>  <RI>
0

>  <Rbt.Current_Directory>
/home/itssahil/PROJECTS/Mol_Feturizer/New_Systems/rnas/1qd3

>  <Rbt.Executable>
rbdock ($Id: //depot/dev/client3/rdock/2013.1/src/exe/rbdock.cxx#4 $)

>  <Rbt.Library>
libRbt.so (2013.1, Build901 2013/11/27)

>  <Rbt.Parameter_File>
/export/apps/rDock/src/rDock_2013.1_src/data/scripts/dock_solv.prm

>  <Rbt.Receptor>
prm/blind_docking_40.prm

>  <SCORE>
-43.8862

>  <SCORE.INTER>
-34.4283

>  <SCORE.INTER.CONST>
1

>  <SCORE.INTER.POLAR>
-5.03184

>  <SCORE.INTER.ROT>
9

>  <SCORE.INTER.SOLV>
25.7762

>  <SCORE.INTER.VDW>
-24.3715

>  <SCORE.INTER.norm>
-0.819721

>  <SCORE.INTRA>
-12.163

>  <SCORE.INTRA.DIHEDRAL>
-15.3677

>  <SCORE.INTRA.DIHEDRAL.0>
40.6252

>  <SCORE.INTRA.POLAR>
-1.18999

>  <SCORE.INTRA.POLAR.0>
-1.20161

>  <SCORE.INTRA.REPUL>
0.0260428

>  <SCORE.INTRA.REPUL.0>
0.115675

>  <SCORE.INTRA.SOLV>
4.28693

>  <SCORE.INTRA.SOLV.lig_0>
-154.895

>  <SCORE.INTRA.VDW>
-2.7069

>  <SCORE.INTRA.VDW.0>
2.2925

>  <SCORE.INTRA.norm>
-0.289596

>  <SCORE.RESTR>
2.70508

>  <SCORE.RESTR.CAVITY>
2.70508

>  <SCORE.RESTR.norm>
0.0644066

>  <SCORE.SYSTEM>
0

>  <SCORE.SYSTEM.CONST>
0

>  <SCORE.SYSTEM.DIHEDRAL>
0

>  <SCORE.SYSTEM.SOLV>
0

>  <SCORE.SYSTEM.norm>
0

>  <SCORE.heavy>
42

>  <SCORE.norm>
-1.04491

>  <RMSD>
15.104

$$$$

 OpenBabel11021811413D
libRbt.so/2013.1/901 2013/11/27
 42 45  0  0  0  0  0  0  0  0999 V2000
   -3.0903   -1.4411    3.0207 O   0  0  0  0  0  0  0  0  0  0  0  0
   -1.7568   -1.6993    2.6051 C   0  0  0  0  0  0  0  0  0  0  0  0
   -1.7580   -2.7188    1.4653 C   0  0  1  0  0  0  0  0  0  0  0  0
   -1.8237   -4.0704    1.9699 O   0  0  0  0  0  0  0  0  0  0  0  0
   -2.9424   -2.5710    0.5248 C   0  0  2  0  0  0  0  0  0  0  0  0
   -2.9476   -3.9413   -0.1318 C   0  0  1  0  0  0  0  0  0  0  0  0
   -1.9173   -4.0090   -1.1115 O   0  0  0  0  0  0  0  0  0  0  0  0
   -2.6083   -4.8716    1.0506 C   0  0  2  0  0  0  0  0  0  0  0  0
   -2.7928    2.1420   -0.2378 C   0  0  2  0  0  0  0  0  0  0  0  0
   -2.6441    0.8295   -0.8005 O   0  0  0  0  0  0  0  0  0  0  0  0
   -2.9505   -0.2027    0.1542 C   0  0  2  0  0  0  0  0  0  0  0  0
   -2.7353   -1.5066   -0.4246 O   0  0  0  0  0  0  0  0  0  0  0  0
   -4.4009   -0.0709    0.6495 C   0  0  2  0  0  0  0  0  0  0  0  0
   -5.3329   -0.5569   -0.3513 N   0  3  0  0  0  0  0  0  0  0  0  0
   -4.7630    1.3579    1.0718 C   0  0  1  0  0  0  0  0  0  0  0  0
   -4.2155    1.6232    2.3534 O   0  0  0  0  0  0  0  0  0  0  0  0
   -4.2610    2.4000    0.0760 C   0  0  2  0  0  0  0  0  0  0  0  0
   -5.0341    2.3435   -1.1172 O   0  0  0  0  0  0  0  0  0  0  0  0
   -2.2467    3.2010   -1.1912 C   0  0  0  0  0  0  0  0  0  0  0  0
   -2.8195    3.0355   -2.5139 N   0  3  0  0  0  0  0  0  0  0  0  0
   -7.1923   -5.9135   -2.9067 C   0  0  1  0  0  0  0  0  0  0  0  0
   -5.8191   -5.5509   -2.6520 O   0  0  0  0  0  0  0  0  0  0  0  0
   -5.5463   -5.2844   -1.2570 C   0  0  2  0  0  0  0  0  0  0  0  0
   -5.6922   -6.4711   -0.4384 O   0  0  0  0  0  0  0  0  0  0  0  0
   -6.4330   -4.1445   -0.7411 C   0  0  2  0  0  0  0  0  0  0  0  0
   -6.3032   -4.0290    0.6995 N   0  3  0  0  0  0  0  0  0  0  0  0
   -7.8993   -4.3643   -1.0961 C   0  0  1  0  0  0  0  0  0  0  0  0
   -8.6412   -3.1880   -0.8132 O   0  0  0  0  0  0  0  0  0  0  0  0
   -8.1125   -4.7577   -2.5497 C   0  0  2  0  0  0  0  0  0  0  0  0
   -9.4659   -5.1286   -2.7673 O   0  0  0  0  0  0  0  0  0  0  0  0
   -7.3856   -6.2185   -4.3894 C   0  0  0  0  0  0  0  0  0  0  0  0
   -7.2814   -5.0067   -5.1813 N   0  3  0  0  0  0  0  0  0  0  0  0
   -3.1660   -9.0974    1.7573 C   0  0  2  0  0  0  0  0  0  0  0  0
   -3.2353   -9.2688    0.2526 C   0  0  0  0  0  0  0  0  0  0  0  0
   -4.4493   -8.5518   -0.3086 C   0  0  1  0  0  0  0  0  0  0  0  0
   -4.4174   -7.0452   -0.0473 C   0  0  2  0  0  0  0  0  0  0  0  0
   -4.1413   -6.7481    1.4448 C   0  0  1  0  0  0  0  0  0  0  0  0
   -3.0822   -7.6230    2.1285 C   0  0  1  0  0  0  0  0  0  0  0  0
   -2.0020   -9.7957    2.2687 N   0  3  0  0  0  0  0  0  0  0  0  0
   -4.5397   -8.8206   -1.7306 N   0  3  0  0  0  0  0  0  0  0  0  0
   -3.8421   -5.3472    1.6613 O   0  0  0  0  0  0  0  0  0  0  0  0
   -3.1764   -7.4776    3.5417 O   0  0  0  0  0  0  0  0  0  0  0  0
  1  2  1  0  0  0  0
  3  2  1  1  0  0  0
  3  4  1  0  0  0  0
  3  5  1  0  0  0  0
  4  8  1  0  0  0  0
  5  6  1  0  0  0  0
  5 12  1  6  0  0  0
  6  7  1  6  0  0  0
  6  8  1  0  0  0  0
  8 41  1  1  0  0  0
  9 10  1  0  0  0  0
  9 17  1  0  0  0  0
  9 19  1  6  0  0  0
 10 11  1  0  0  0  0
 11 12  1  6  0  0  0
 11 13  1  0  0  0  0
 13 14  1  6  0  0  0
 13 15  1  0  0  0  0
 15 16  1  1  0  0  0
 15 17  1  0  0  0  0
 17 18  1  6  0  0  0
 19 20  1  0  0  0  0
 21 22  1  0  0  0  0
 21 29  1  0  0  0  0
 21 31  1  6  0  0  0
 22 23  1  0  0  0  0
 23 24  1  1  0  0  0
 23 25  1  0  0  0  0
 25 26  1  1  0  0  0
 25 27  1  0  0  0  0
 27 28  1  6  0  0  0
 27 29  1  0  0  0  0
 29 30  1  1  0  0  0
 31 32  1  0  0  0  0
 33 34  1  0  0  0  0
 33 38  1  0  0  0  0
 33 39  1  6  0  0  0
 34 35  1  0  0  0  0
 35 36  1  0  0  0  0
 35 40  1  6  0  0  0
 36 24  1  1  0  0  0
 36 37  1  0  0  0  0
 37 38  1  0  0  0  0
 37 41  1  6  0  0  0
 38 42  1  1  0  0  0
M  CHG  6  14   1  20   1  26   1  32   1  39   1  40   1
M  END
>  <CHROM.1>
-168.80509580,-83.58585919,-77.61121285,-37.23788584,-133.86978241,51.67241501
176.04696633,-96.63561630,-62.58226508,-165.63483338,39.02622795,-69.82709449
104.03297418,-132.26103875,51.99667800,60.41855258,-68.47306350,60.75098624
174.62870150,28.35395646,-65.57904094,-57.89363708,-4.42333724,-3.55802058
-0.16266181,-1.39418910,0.75988457,3.02468018

>  <Name>


>  <RI>
0

>  <Rbt.Current_Directory>
/home/itssahil/PROJECTS/Mol_Feturizer/New_Systems/rnas/1qd3

>  <Rbt.Executable>
rbdock ($Id: //depot/dev/client3/rdock/2013.1/src/exe/rbdock.cxx#4 $)

>  <Rbt.Library>
libRbt.so (2013.1, Build901 2013/11/27)

>  <Rbt.Parameter_File>
/export/apps/rDock/src/rDock_2013.1_src/data/scripts/dock_solv.prm

>  <Rbt.Receptor>
prm/blind_docking_100.prm

>  <SCORE>
-46.8899

>  <SCORE.INTER>
-32.9416

>  <SCORE.INTER.CONST>
1

>  <SCORE.INTER.POLAR>
-3.62254

>  <SCORE.INTER.ROT>
9

>  <SCORE.INTER.SOLV>
27.8229

>  <SCORE.INTER.VDW>
-28.7603

>  <SCORE.INTER.norm>
-0.784325

>  <SCORE.INTRA>
-15.273

>  <SCORE.INTRA.DIHEDRAL>
-6.22032

>  <SCORE.INTRA.DIHEDRAL.0>
40.6252

>  <SCORE.INTRA.POLAR>
-1.02726

>  <SCORE.INTRA.POLAR.0>
-1.20161

>  <SCORE.INTRA.REPUL>
-0.108773

>  <SCORE.INTRA.REPUL.0>
0.115675

>  <SCORE.INTRA.SOLV>
0.657411

>  <SCORE.INTRA.SOLV.lig_0>
-154.895

>  <SCORE.INTRA.VDW>
-8.45502

>  <SCORE.INTRA.VDW.0>
2.2925

>  <SCORE.INTRA.norm>
-0.363644

>  <SCORE.RESTR>
1.3248

>  <SCORE.RESTR.CAVITY>
1.3248

>  <SCORE.RESTR.norm>
0.0315428

>  <SCORE.SYSTEM>
0

>  <SCORE.SYSTEM.CONST>
0

>  <SCORE.SYSTEM.DIHEDRAL>
0

>  <SCORE.SYSTEM.SOLV>
0

>  <SCORE.SYSTEM.norm>
0

>  <SCORE.heavy>
42

>  <SCORE.norm>
-1.11643

>  <RMSD>
15.125

$$$$

 OpenBabel11021811413D
libRbt.so/2013.1/901 2013/11/27
 42 45  0  0  0  0  0  0  0  0999 V2000
   -7.2351   -3.6715   -1.2620 O   0  0  0  0  0  0  0  0  0  0  0  0
   -7.5242   -5.0587   -1.1627 C   0  0  0  0  0  0  0  0  0  0  0  0
   -6.2267   -5.8645   -1.2371 C   0  0  1  0  0  0  0  0  0  0  0  0
   -5.2911   -5.4484   -0.2187 O   0  0  0  0  0  0  0  0  0  0  0  0
   -6.4297   -7.3558   -1.0271 C   0  0  2  0  0  0  0  0  0  0  0  0
   -5.0176   -7.7785   -0.6581 C   0  0  1  0  0  0  0  0  0  0  0  0
   -4.2139   -7.8460   -1.8309 O   0  0  0  0  0  0  0  0  0  0  0  0
   -4.5485   -6.6096    0.2320 C   0  0  2  0  0  0  0  0  0  0  0  0
  -10.0887   -9.4344   -3.2919 C   0  0  2  0  0  0  0  0  0  0  0  0
   -8.6994   -9.0743   -3.3316 O   0  0  0  0  0  0  0  0  0  0  0  0
   -8.2846   -8.3992   -2.1303 C   0  0  2  0  0  0  0  0  0  0  0  0
   -6.9014   -8.0003   -2.2267 O   0  0  0  0  0  0  0  0  0  0  0  0
   -8.4965   -9.2993   -0.9010 C   0  0  2  0  0  0  0  0  0  0  0  0
   -7.4654  -10.3179   -0.8248 N   0  3  0  0  0  0  0  0  0  0  0  0
   -9.8887   -9.9401   -0.8597 C   0  0  1  0  0  0  0  0  0  0  0  0
  -10.8364   -8.9797   -0.4210 O   0  0  0  0  0  0  0  0  0  0  0  0
  -10.3119  -10.4919   -2.2184 C   0  0  2  0  0  0  0  0  0  0  0  0
   -9.5630  -11.6632   -2.5214 O   0  0  0  0  0  0  0  0  0  0  0  0
  -10.5529   -9.9382   -4.6556 C   0  0  0  0  0  0  0  0  0  0  0  0
   -9.8546   -9.2395   -5.7183 N   0  3  0  0  0  0  0  0  0  0  0  0
   -2.3112   -4.7514    0.3697 C   0  0  1  0  0  0  0  0  0  0  0  0
   -1.6244   -5.4984    1.3955 O   0  0  0  0  0  0  0  0  0  0  0  0
   -1.7652   -4.9227    2.7147 C   0  0  2  0  0  0  0  0  0  0  0  0
   -3.1349   -4.9708    3.1852 O   0  0  0  0  0  0  0  0  0  0  0  0
   -1.2222   -3.4887    2.7393 C   0  0  2  0  0  0  0  0  0  0  0  0
   -1.5587   -2.8532    3.9997 N   0  3  0  0  0  0  0  0  0  0  0  0
   -1.7801   -2.6534    1.5923 C   0  0  1  0  0  0  0  0  0  0  0  0
   -1.0794   -1.4218    1.5131 O   0  0  0  0  0  0  0  0  0  0  0  0
   -1.7121   -3.3598    0.2471 C   0  0  2  0  0  0  0  0  0  0  0  0
   -2.4122   -2.6141   -0.7379 O   0  0  0  0  0  0  0  0  0  0  0  0
   -2.1490   -5.4459   -0.9794 C   0  0  0  0  0  0  0  0  0  0  0  0
   -3.2229   -5.0732   -1.8819 N   0  3  0  0  0  0  0  0  0  0  0  0
   -2.6059   -9.1495    3.7835 C   0  0  2  0  0  0  0  0  0  0  0  0
   -2.7016   -8.2615    5.0084 C   0  0  0  0  0  0  0  0  0  0  0  0
   -2.4819   -6.8085    4.6300 C   0  0  1  0  0  0  0  0  0  0  0  0
   -3.5275   -6.2923    3.6404 C   0  0  2  0  0  0  0  0  0  0  0  0
   -3.6642   -7.2468    2.4317 C   0  0  1  0  0  0  0  0  0  0  0  0
   -3.6446   -8.7488    2.7447 C   0  0  1  0  0  0  0  0  0  0  0  0
   -2.8136  -10.5313    4.1727 N   0  3  0  0  0  0  0  0  0  0  0  0
   -2.4796   -6.0027    5.8354 N   0  3  0  0  0  0  0  0  0  0  0  0
   -4.8248   -6.9231    1.6273 O   0  0  0  0  0  0  0  0  0  0  0  0
   -3.4350   -9.4882    1.5462 O   0  0  0  0  0  0  0  0  0  0  0  0
  1  2  1  0  0  0  0
  3  2  1  1  0  0  0
  3  4  1  0  0  0  0
  3  5  1  0  0  0  0
  4  8  1  0  0  0  0
  5  6  1  0  0  0  0
  5 12  1  6  0  0  0
  6  7  1  6  0  0  0
  6  8  1  0  0  0  0
  8 41  1  1  0  0  0
  9 10  1  0  0  0  0
  9 17  1  0  0  0  0
  9 19  1  6  0  0  0
 10 11  1  0  0  0  0
 11 12  1  6  0  0  0
 11 13  1  0  0  0  0
 13 14  1  6  0  0  0
 13 15  1  0  0  0  0
 15 16  1  6  0  0  0
 15 17  1  0  0  0  0
 17 18  1  6  0  0  0
 19 20  1  0  0  0  0
 21 22  1  0  0  0  0
 21 29  1  0  0  0  0
 21 31  1  6  0  0  0
 22 23  1  0  0  0  0
 23 24  1  6  0  0  0
 23 25  1  0  0  0  0
 25 26  1  1  0  0  0
 25 27  1  0  0  0  0
 27 28  1  6  0  0  0
 27 29  1  0  0  0  0
 29 30  1  6  0  0  0
 31 32  1  0  0  0  0
 33 34  1  0  0  0  0
 33 38  1  0  0  0  0
 33 39  1  1  0  0  0
 34 35  1  0  0  0  0
 35 36  1  0  0  0  0
 35 40  1  1  0  0  0
 36 24  1  6  0  0  0
 36 37  1  0  0  0  0
 37 38  1  0  0  0  0
 37 41  1  1  0  0  0
 38 42  1  6  0  0  0
M  CHG  6  14   1  20   1  26   1  32   1  39   1  40   1
M  END
>  <CHROM.1>
-107.44421797,56.25320865,-108.18984787,-53.60537961,-135.89207613,-33.67272755
-178.19196439,81.89169576,-73.35185898,-67.25683491,53.47591201,156.52045677
76.78110104,50.80049817,52.20820896,50.99300405,-123.98467460,156.52620302
-48.85121429,-162.19537597,121.72902733,-57.87783479,-5.08482961,-6.91800849
0.29141983,3.13762155,0.77752424,2.43708410

>  <Name>


>  <RI>
0

>  <Rbt.Current_Directory>
/home/itssahil/PROJECTS/Mol_Feturizer/New_Systems/rnas/1qd3

>  <Rbt.Executable>
rbdock ($Id: //depot/dev/client3/rdock/2013.1/src/exe/rbdock.cxx#4 $)

>  <Rbt.Library>
libRbt.so (2013.1, Build901 2013/11/27)

>  <Rbt.Parameter_File>
/export/apps/rDock/src/rDock_2013.1_src/data/scripts/dock_solv.prm

>  <Rbt.Receptor>
prm/blind_docking_60.prm

>  <SCORE>
-46.2903

>  <SCORE.INTER>
-45.6009

>  <SCORE.INTER.CONST>
1

>  <SCORE.INTER.POLAR>
-7.64061

>  <SCORE.INTER.ROT>
9

>  <SCORE.INTER.SOLV>
32.1917

>  <SCORE.INTER.VDW>
-25.2625

>  <SCORE.INTER.norm>
-1.08574

>  <SCORE.INTRA>
-5.97239

>  <SCORE.INTRA.DIHEDRAL>
4.42363

>  <SCORE.INTRA.DIHEDRAL.0>
40.6252

>  <SCORE.INTRA.POLAR>
0.221768

>  <SCORE.INTRA.POLAR.0>
-1.20161

>  <SCORE.INTRA.REPUL>
-0.107927

>  <SCORE.INTRA.REPUL.0>
0.115675

>  <SCORE.INTRA.SOLV>
-2.16671

>  <SCORE.INTRA.SOLV.lig_0>
-154.895

>  <SCORE.INTRA.VDW>
-7.31522

>  <SCORE.INTRA.VDW.0>
2.2925

>  <SCORE.INTRA.norm>
-0.1422

>  <SCORE.RESTR>
5.28301

>  <SCORE.RESTR.CAVITY>
5.28301

>  <SCORE.RESTR.norm>
0.125786

>  <SCORE.SYSTEM>
0

>  <SCORE.SYSTEM.CONST>
0

>  <SCORE.SYSTEM.DIHEDRAL>
0

>  <SCORE.SYSTEM.SOLV>
0

>  <SCORE.SYSTEM.norm>
0

>  <SCORE.heavy>
42

>  <SCORE.norm>
-1.10215

>  <RMSD>
15.161

$$$$

 OpenBabel11021811413D
libRbt.so/2013.1/901 2013/11/27
 42 45  0  0  0  0  0  0  0  0999 V2000
   -3.1122   -3.7473   -1.8876 O   0  0  0  0  0  0  0  0  0  0  0  0
   -3.9930   -3.3318   -2.9216 C   0  0  0  0  0  0  0  0  0  0  0  0
   -5.4428   -3.5059   -2.4676 C   0  0  1  0  0  0  0  0  0  0  0  0
   -5.8944   -4.8638   -2.6618 O   0  0  0  0  0  0  0  0  0  0  0  0
   -5.6531   -3.2077   -0.9923 C   0  0  2  0  0  0  0  0  0  0  0  0
   -6.9709   -3.9244   -0.7499 C   0  0  1  0  0  0  0  0  0  0  0  0
   -8.0439   -3.1467   -1.2693 O   0  0  0  0  0  0  0  0  0  0  0  0
   -6.8027   -5.2096   -1.5856 C   0  0  2  0  0  0  0  0  0  0  0  0
   -3.2613   -2.0225    1.9248 C   0  0  2  0  0  0  0  0  0  0  0  0
   -3.9923   -2.3691    0.7387 O   0  0  0  0  0  0  0  0  0  0  0  0
   -4.9900   -1.3839    0.4149 C   0  0  2  0  0  0  0  0  0  0  0  0
   -5.7438   -1.7906   -0.7461 O   0  0  0  0  0  0  0  0  0  0  0  0
   -4.3393   -0.0108    0.1752 C   0  0  2  0  0  0  0  0  0  0  0  0
   -3.7013    0.0362   -1.1275 N   0  3  0  0  0  0  0  0  0  0  0  0
   -3.3454    0.3820    1.2746 C   0  0  1  0  0  0  0  0  0  0  0  0
   -4.0587    0.8288    2.4167 O   0  0  0  0  0  0  0  0  0  0  0  0
   -2.4282   -0.7739    1.6649 C   0  0  2  0  0  0  0  0  0  0  0  0
   -1.4880   -1.0199    0.6256 O   0  0  0  0  0  0  0  0  0  0  0  0
   -2.3761   -3.1833    2.3696 C   0  0  0  0  0  0  0  0  0  0  0  0
   -1.7554   -2.8866    3.6469 N   0  3  0  0  0  0  0  0  0  0  0  0
   -3.6601   -8.0502    2.7777 C   0  0  1  0  0  0  0  0  0  0  0  0
   -4.4716   -7.1228    2.0271 O   0  0  0  0  0  0  0  0  0  0  0  0
   -3.8677   -6.7139    0.7783 C   0  0  2  0  0  0  0  0  0  0  0  0
   -3.7463   -7.8169   -0.1535 O   0  0  0  0  0  0  0  0  0  0  0  0
   -2.5087   -6.0486    1.0275 C   0  0  2  0  0  0  0  0  0  0  0  0
   -1.8227   -5.8357   -0.2333 N   0  3  0  0  0  0  0  0  0  0  0  0
   -1.6264   -6.8910    1.9420 C   0  0  1  0  0  0  0  0  0  0  0  0
   -0.4883   -6.1389    2.3336 O   0  0  0  0  0  0  0  0  0  0  0  0
   -2.3517   -7.3908    3.1820 C   0  0  2  0  0  0  0  0  0  0  0  0
   -1.5393   -8.3158    3.8897 O   0  0  0  0  0  0  0  0  0  0  0  0
   -4.3849   -8.4629    4.0556 C   0  0  0  0  0  0  0  0  0  0  0  0
   -4.9325   -7.3022    4.7337 N   0  3  0  0  0  0  0  0  0  0  0  0
   -6.6330   -9.4403   -2.8240 C   0  0  2  0  0  0  0  0  0  0  0  0
   -6.0606  -10.3504   -1.7553 C   0  0  0  0  0  0  0  0  0  0  0  0
   -4.7915   -9.7552   -1.1740 C   0  0  1  0  0  0  0  0  0  0  0  0
   -5.0283   -8.4004   -0.5050 C   0  0  2  0  0  0  0  0  0  0  0  0
   -5.8013   -7.4466   -1.4450 C   0  0  1  0  0  0  0  0  0  0  0  0
   -6.9520   -8.0672   -2.2482 C   0  0  1  0  0  0  0  0  0  0  0  0
   -7.8401  -10.0339   -3.3665 N   0  3  0  0  0  0  0  0  0  0  0  0
   -4.2186  -10.6959   -0.2312 N   0  3  0  0  0  0  0  0  0  0  0  0
   -6.2665   -6.2687   -0.7415 O   0  0  0  0  0  0  0  0  0  0  0  0
   -7.3385   -7.1849   -3.2967 O   0  0  0  0  0  0  0  0  0  0  0  0
  1  2  1  0  0  0  0
  3  2  1  1  0  0  0
  3  4  1  0  0  0  0
  3  5  1  0  0  0  0
  4  8  1  0  0  0  0
  5  6  1  0  0  0  0
  5 12  1  6  0  0  0
  6  7  1  6  0  0  0
  6  8  1  0  0  0  0
  8 41  1  1  0  0  0
  9 10  1  0  0  0  0
  9 17  1  0  0  0  0
  9 19  1  6  0  0  0
 10 11  1  0  0  0  0
 11 12  1  6  0  0  0
 11 13  1  0  0  0  0
 13 14  1  6  0  0  0
 13 15  1  0  0  0  0
 15 16  1  1  0  0  0
 15 17  1  0  0  0  0
 17 18  1  6  0  0  0
 19 20  1  0  0  0  0
 21 22  1  0  0  0  0
 21 29  1  0  0  0  0
 21 31  1  1  0  0  0
 22 23  1  0  0  0  0
 23 24  1  6  0  0  0
 23 25  1  0  0  0  0
 25 26  1  6  0  0  0
 25 27  1  0  0  0  0
 27 28  1  1  0  0  0
 27 29  1  0  0  0  0
 29 30  1  6  0  0  0
 31 32  1  0  0  0  0
 33 34  1  0  0  0  0
 33 38  1  0  0  0  0
 33 39  1  1  0  0  0
 34 35  1  0  0  0  0
 35 36  1  0  0  0  0
 35 40  1  1  0  0  0
 36 24  1  6  0  0  0
 36 37  1  0  0  0  0
 37 38  1  0  0  0  0
 37 41  1  1  0  0  0
 38 42  1  6  0  0  0
M  CHG  6  14   1  20   1  26   1  32   1  39   1  40   1
M  END
>  <CHROM.1>
-61.77478923,-83.03055220,-136.53476502,59.99342626,-51.04652205,-173.60704221
20.26209997,-167.43730171,51.90824289,166.31022939,153.85049891,-46.54863295
60.66079546,-165.13008533,48.79888511,-169.76167923,60.19894951,73.40619989
-55.47495744,77.44588981,169.92841205,-66.27936411,-4.34653209,-5.19931622
0.19294267,1.14341483,-0.89842359,-0.11224462

>  <Name>


>  <RI>
0

>  <Rbt.Current_Directory>
/home/itssahil/PROJECTS/Mol_Feturizer/New_Systems/rnas/1qd3

>  <Rbt.Executable>
rbdock ($Id: //depot/dev/client3/rdock/2013.1/src/exe/rbdock.cxx#4 $)

>  <Rbt.Library>
libRbt.so (2013.1, Build901 2013/11/27)

>  <Rbt.Parameter_File>
/export/apps/rDock/src/rDock_2013.1_src/data/scripts/dock_solv.prm

>  <Rbt.Receptor>
prm/blind_docking_100.prm

>  <SCORE>
-76.8941

>  <SCORE.INTER>
-52.3769

>  <SCORE.INTER.CONST>
1

>  <SCORE.INTER.POLAR>
-7.52608

>  <SCORE.INTER.ROT>
9

>  <SCORE.INTER.SOLV>
28.7625

>  <SCORE.INTER.VDW>
-29.0185

>  <SCORE.INTER.norm>
-1.24707

>  <SCORE.INTRA>
-24.7145

>  <SCORE.INTRA.DIHEDRAL>
-19.1549

>  <SCORE.INTRA.DIHEDRAL.0>
40.6252

>  <SCORE.INTRA.POLAR>
-0.966496

>  <SCORE.INTRA.POLAR.0>
-1.20161

>  <SCORE.INTRA.REPUL>
-0.115675

>  <SCORE.INTRA.REPUL.0>
0.115675

>  <SCORE.INTRA.SOLV>
-7.24888

>  <SCORE.INTRA.SOLV.lig_0>
-154.895

>  <SCORE.INTRA.VDW>
-7.64815

>  <SCORE.INTRA.VDW.0>
2.2925

>  <SCORE.INTRA.norm>
-0.588441

>  <SCORE.RESTR>
0.197262

>  <SCORE.RESTR.CAVITY>
0.197262

>  <SCORE.RESTR.norm>
0.00469671

>  <SCORE.SYSTEM>
0

>  <SCORE.SYSTEM.CONST>
0

>  <SCORE.SYSTEM.DIHEDRAL>
0

>  <SCORE.SYSTEM.SOLV>
0

>  <SCORE.SYSTEM.norm>
0

>  <SCORE.heavy>
42

>  <SCORE.norm>
-1.83081

>  <RMSD>
15.164

$$$$

 OpenBabel11021811413D
libRbt.so/2013.1/901 2013/11/27
 42 45  0  0  0  0  0  0  0  0999 V2000
   -9.4344   -2.9903   -2.1970 O   0  0  0  0  0  0  0  0  0  0  0  0
   -8.8585   -4.2042   -1.7359 C   0  0  0  0  0  0  0  0  0  0  0  0
   -7.3333   -4.1044   -1.7832 C   0  0  1  0  0  0  0  0  0  0  0  0
   -6.8563   -2.9820   -1.0098 O   0  0  0  0  0  0  0  0  0  0  0  0
   -6.6308   -5.3262   -1.2148 C   0  0  2  0  0  0  0  0  0  0  0  0
   -5.2533   -4.7488   -0.9356 C   0  0  1  0  0  0  0  0  0  0  0  0
   -4.5215   -4.6411   -2.1517 O   0  0  0  0  0  0  0  0  0  0  0  0
   -5.5906   -3.3422   -0.4006 C   0  0  2  0  0  0  0  0  0  0  0  0
   -8.8285   -5.9195   -5.0162 C   0  0  2  0  0  0  0  0  0  0  0  0
   -7.6221   -5.8952   -4.2381 O   0  0  0  0  0  0  0  0  0  0  0  0
   -7.8043   -6.4993   -2.9448 C   0  0  2  0  0  0  0  0  0  0  0  0
   -6.5920   -6.4063   -2.1681 O   0  0  0  0  0  0  0  0  0  0  0  0
   -8.2355   -7.9690   -3.0879 C   0  0  2  0  0  0  0  0  0  0  0  0
   -7.1050   -8.8044   -3.4491 N   0  3  0  0  0  0  0  0  0  0  0  0
   -9.3858   -8.1623   -4.0831 C   0  0  1  0  0  0  0  0  0  0  0  0
  -10.6071   -7.7789   -3.4713 O   0  0  0  0  0  0  0  0  0  0  0  0
   -9.1824   -7.3595   -5.3652 C   0  0  2  0  0  0  0  0  0  0  0  0
   -8.1452   -7.9437   -6.1445 O   0  0  0  0  0  0  0  0  0  0  0  0
   -8.6710   -5.0774   -6.2791 C   0  0  0  0  0  0  0  0  0  0  0  0
   -9.9523   -4.9083   -6.9383 N   0  3  0  0  0  0  0  0  0  0  0  0
   -3.2048   -6.8368    0.7623 C   0  0  1  0  0  0  0  0  0  0  0  0
   -4.4744   -6.1767    0.9481 O   0  0  0  0  0  0  0  0  0  0  0  0
   -4.7732   -5.8893    2.3336 C   0  0  2  0  0  0  0  0  0  0  0  0
   -3.8546   -4.9210    2.8980 O   0  0  0  0  0  0  0  0  0  0  0  0
   -4.7932   -7.1801    3.1612 C   0  0  2  0  0  0  0  0  0  0  0  0
   -4.8831   -6.8614    4.5740 N   0  3  0  0  0  0  0  0  0  0  0  0
   -3.5494   -8.0274    2.9169 C   0  0  1  0  0  0  0  0  0  0  0  0
   -3.7173   -9.3053    3.5109 O   0  0  0  0  0  0  0  0  0  0  0  0
   -3.2186   -8.1963    1.4420 C   0  0  2  0  0  0  0  0  0  0  0  0
   -1.9567   -8.8293    1.2886 O   0  0  0  0  0  0  0  0  0  0  0  0
   -2.9474   -7.0650   -0.7245 C   0  0  0  0  0  0  0  0  0  0  0  0
   -4.0852   -7.7142   -1.3495 N   0  3  0  0  0  0  0  0  0  0  0  0
   -2.7628   -1.0050    1.6442 C   0  0  2  0  0  0  0  0  0  0  0  0
   -1.7082   -2.0922    1.5825 C   0  0  0  0  0  0  0  0  0  0  0  0
   -2.1256   -3.2859    2.4213 C   0  0  1  0  0  0  0  0  0  0  0  0
   -3.4289   -3.9214    1.9352 C   0  0  2  0  0  0  0  0  0  0  0  0
   -4.5337   -2.8538    1.7606 C   0  0  1  0  0  0  0  0  0  0  0  0
   -4.1007   -1.5222    1.1331 C   0  0  1  0  0  0  0  0  0  0  0  0
   -2.3377    0.1250    0.8402 N   0  3  0  0  0  0  0  0  0  0  0  0
   -1.0521   -4.2606    2.4209 N   0  3  0  0  0  0  0  0  0  0  0  0
   -5.6801   -3.3860    1.0525 O   0  0  0  0  0  0  0  0  0  0  0  0
   -5.1084   -0.5391    1.3456 O   0  0  0  0  0  0  0  0  0  0  0  0
  1  2  1  0  0  0  0
  3  2  1  1  0  0  0
  3  4  1  0  0  0  0
  3  5  1  0  0  0  0
  4  8  1  0  0  0  0
  5  6  1  0  0  0  0
  5 12  1  6  0  0  0
  6  7  1  6  0  0  0
  6  8  1  0  0  0  0
  8 41  1  1  0  0  0
  9 10  1  0  0  0  0
  9 17  1  0  0  0  0
  9 19  1  6  0  0  0
 10 11  1  0  0  0  0
 11 12  1  1  0  0  0
 11 13  1  0  0  0  0
 13 14  1  6  0  0  0
 13 15  1  0  0  0  0
 15 16  1  1  0  0  0
 15 17  1  0  0  0  0
 17 18  1  1  0  0  0
 19 20  1  0  0  0  0
 21 22  1  0  0  0  0
 21 29  1  0  0  0  0
 21 31  1  6  0  0  0
 22 23  1  0  0  0  0
 23 24  1  1  0  0  0
 23 25  1  0  0  0  0
 25 26  1  1  0  0  0
 25 27  1  0  0  0  0
 27 28  1  6  0  0  0
 27 29  1  0  0  0  0
 29 30  1  1  0  0  0
 31 32  1  0  0  0  0
 33 34  1  0  0  0  0
 33 38  1  0  0  0  0
 33 39  1  6  0  0  0
 34 35  1  0  0  0  0
 35 36  1  0  0  0  0
 35 40  1  6  0  0  0
 36 24  1  1  0  0  0
 36 37  1  0  0  0  0
 37 38  1  0  0  0  0
 37 41  1  6  0  0  0
 38 42  1  1  0  0  0
M  CHG  6  14   1  20   1  26   1  32   1  39   1  40   1
M  END
>  <CHROM.1>
-175.99836981,56.83888707,-37.89784108,-171.60265344,-140.29033099,-169.87119401
99.95115846,-81.18937532,-55.97966203,-61.69282740,-118.29377952,-51.17920293
34.47370729,-159.33435847,-19.18971046,-57.69056630,-175.25303575,172.56619183
105.78579514,53.68215662,-85.39181840,-173.06327087,-5.60220415,-5.36992496
-0.66094023,2.94384626,0.88075992,3.11230304

>  <Name>


>  <RI>
0

>  <Rbt.Current_Directory>
/home/itssahil/PROJECTS/Mol_Feturizer/New_Systems/rnas/1qd3

>  <Rbt.Executable>
rbdock ($Id: //depot/dev/client3/rdock/2013.1/src/exe/rbdock.cxx#4 $)

>  <Rbt.Library>
libRbt.so (2013.1, Build901 2013/11/27)

>  <Rbt.Parameter_File>
/export/apps/rDock/src/rDock_2013.1_src/data/scripts/dock_solv.prm

>  <Rbt.Receptor>
prm/blind_docking_20.prm

>  <SCORE>
-46.8104

>  <SCORE.INTER>
-38.1545

>  <SCORE.INTER.CONST>
1

>  <SCORE.INTER.POLAR>
-5.2793

>  <SCORE.INTER.ROT>
9

>  <SCORE.INTER.SOLV>
31.1221

>  <SCORE.INTER.VDW>
-27.8127

>  <SCORE.INTER.norm>
-0.908441

>  <SCORE.INTRA>
-11.6626

>  <SCORE.INTRA.DIHEDRAL>
-6.67624

>  <SCORE.INTRA.DIHEDRAL.0>
40.6252

>  <SCORE.INTRA.POLAR>
-0.76011

>  <SCORE.INTRA.POLAR.0>
-1.20161

>  <SCORE.INTRA.REPUL>
-0.0539846

>  <SCORE.INTRA.REPUL.0>
0.115675

>  <SCORE.INTRA.SOLV>
-5.13748

>  <SCORE.INTRA.SOLV.lig_0>
-154.895

>  <SCORE.INTRA.VDW>
-2.90146

>  <SCORE.INTRA.VDW.0>
2.2925

>  <SCORE.INTRA.norm>
-0.277681

>  <SCORE.RESTR>
3.00668

>  <SCORE.RESTR.CAVITY>
3.00668

>  <SCORE.RESTR.norm>
0.0715876

>  <SCORE.SYSTEM>
0

>  <SCORE.SYSTEM.CONST>
0

>  <SCORE.SYSTEM.DIHEDRAL>
0

>  <SCORE.SYSTEM.SOLV>
0

>  <SCORE.SYSTEM.norm>
0

>  <SCORE.heavy>
42

>  <SCORE.norm>
-1.11453

>  <RMSD>
15.177

$$$$

 OpenBabel11021811413D
libRbt.so/2013.1/901 2013/11/27
 42 45  0  0  0  0  0  0  0  0999 V2000
   -3.0965   -0.1369   -3.0402 O   0  0  0  0  0  0  0  0  0  0  0  0
   -3.7058   -1.4122   -3.1822 C   0  0  0  0  0  0  0  0  0  0  0  0
   -5.2244   -1.2762   -3.0647 C   0  0  1  0  0  0  0  0  0  0  0  0
   -5.8858   -2.5336   -3.3238 O   0  0  0  0  0  0  0  0  0  0  0  0
   -5.6864   -0.8435   -1.6831 C   0  0  2  0  0  0  0  0  0  0  0  0
   -7.1416   -1.2784   -1.7287 C   0  0  1  0  0  0  0  0  0  0  0  0
   -7.8976   -0.3483   -2.4963 O   0  0  0  0  0  0  0  0  0  0  0  0
   -7.0569   -2.6262   -2.4736 C   0  0  2  0  0  0  0  0  0  0  0  0
   -3.1399    2.6973    0.2598 C   0  0  2  0  0  0  0  0  0  0  0  0
   -4.3542    2.3075   -0.3997 O   0  0  0  0  0  0  0  0  0  0  0  0
   -4.3344    0.9218   -0.7876 C   0  0  2  0  0  0  0  0  0  0  0  0
   -5.5425    0.5784   -1.4977 O   0  0  0  0  0  0  0  0  0  0  0  0
   -4.1626    0.0158    0.4437 C   0  0  2  0  0  0  0  0  0  0  0  0
   -5.4065   -0.0878    1.1842 N   0  3  0  0  0  0  0  0  0  0  0  0
   -3.0243    0.4671    1.3662 C   0  0  1  0  0  0  0  0  0  0  0  0
   -1.7808    0.0775    0.8051 O   0  0  0  0  0  0  0  0  0  0  0  0
   -3.0304    1.9758    1.5970 C   0  0  2  0  0  0  0  0  0  0  0  0
   -4.1212    2.3340    2.4375 O   0  0  0  0  0  0  0  0  0  0  0  0
   -3.0948    4.2103    0.4534 C   0  0  0  0  0  0  0  0  0  0  0  0
   -4.2750    4.8297   -0.1196 N   0  3  0  0  0  0  0  0  0  0  0  0
   -4.2746   -5.2861    1.9988 C   0  0  1  0  0  0  0  0  0  0  0  0
   -4.9794   -4.2688    1.2569 O   0  0  0  0  0  0  0  0  0  0  0  0
   -4.3083   -3.8823    0.0355 C   0  0  2  0  0  0  0  0  0  0  0  0
   -4.2619   -4.9659   -0.9254 O   0  0  0  0  0  0  0  0  0  0  0  0
   -2.9021   -3.3499    0.3368 C   0  0  2  0  0  0  0  0  0  0  0  0
   -2.1666   -3.1656   -0.9005 N   0  3  0  0  0  0  0  0  0  0  0  0
   -2.1236   -4.2935    1.2467 C   0  0  1  0  0  0  0  0  0  0  0  0
   -0.9332   -3.6586    1.6875 O   0  0  0  0  0  0  0  0  0  0  0  0
   -2.9234   -4.7592    2.4536 C   0  0  2  0  0  0  0  0  0  0  0  0
   -2.2165   -5.7731    3.1528 O   0  0  0  0  0  0  0  0  0  0  0  0
   -5.0672   -5.6662    3.2463 C   0  0  0  0  0  0  0  0  0  0  0  0
   -4.5737   -6.9094    3.8099 N   0  3  0  0  0  0  0  0  0  0  0  0
   -7.2504   -7.2247   -2.9420 C   0  0  2  0  0  0  0  0  0  0  0  0
   -6.5097   -7.8862   -1.7966 C   0  0  0  0  0  0  0  0  0  0  0  0
   -5.2425   -7.1184   -1.4690 C   0  0  1  0  0  0  0  0  0  0  0  0
   -5.5213   -5.6806   -1.0289 C   0  0  2  0  0  0  0  0  0  0  0  0
   -6.4524   -4.9647   -2.0346 C   0  0  1  0  0  0  0  0  0  0  0  0
   -7.6211   -5.7909   -2.5875 C   0  0  1  0  0  0  0  0  0  0  0  0
   -8.4527   -7.9800   -3.2386 N   0  3  0  0  0  0  0  0  0  0  0  0
   -4.5107   -7.8332   -0.4414 N   0  3  0  0  0  0  0  0  0  0  0  0
   -6.9407   -3.7077   -1.5049 O   0  0  0  0  0  0  0  0  0  0  0  0
   -8.1731   -5.1418   -3.7281 O   0  0  0  0  0  0  0  0  0  0  0  0
  1  2  1  0  0  0  0
  3  2  1  1  0  0  0
  3  4  1  0  0  0  0
  3  5  1  0  0  0  0
  4  8  1  0  0  0  0
  5  6  1  0  0  0  0
  5 12  1  6  0  0  0
  6  7  1  6  0  0  0
  6  8  1  0  0  0  0
  8 41  1  1  0  0  0
  9 10  1  0  0  0  0
  9 17  1  0  0  0  0
  9 19  1  1  0  0  0
 10 11  1  0  0  0  0
 11 12  1  1  0  0  0
 11 13  1  0  0  0  0
 13 14  1  1  0  0  0
 13 15  1  0  0  0  0
 15 16  1  6  0  0  0
 15 17  1  0  0  0  0
 17 18  1  1  0  0  0
 19 20  1  0  0  0  0
 21 22  1  0  0  0  0
 21 29  1  0  0  0  0
 21 31  1  1  0  0  0
 22 23  1  0  0  0  0
 23 24  1  6  0  0  0
 23 25  1  0  0  0  0
 25 26  1  6  0  0  0
 25 27  1  0  0  0  0
 27 28  1  1  0  0  0
 27 29  1  0  0  0  0
 29 30  1  6  0  0  0
 31 32  1  0  0  0  0
 33 34  1  0  0  0  0
 33 38  1  0  0  0  0
 33 39  1  1  0  0  0
 34 35  1  0  0  0  0
 35 36  1  0  0  0  0
 35 40  1  1  0  0  0
 36 24  1  6  0  0  0
 36 37  1  0  0  0  0
 37 38  1  0  0  0  0
 37 41  1  1  0  0  0
 38 42  1  6  0  0  0
M  CHG  6  14   1  20   1  26   1  32   1  39   1  40   1
M  END
>  <CHROM.1>
-60.06328442,174.81598957,-98.05091367,-66.36652360,-45.21656429,-1.67676059
-168.93480611,93.68857649,-54.84452805,52.49330826,-173.05579606,164.90296686
43.55375649,-152.56880658,82.33368731,-51.63362216,-174.69953071,54.54885475
64.24079594,-34.64608107,142.53906180,-55.87863332,-4.73767084,-2.59203017
-0.43115931,1.18714719,-0.88316132,-0.17583259

>  <Name>


>  <RI>
0

>  <Rbt.Current_Directory>
/home/itssahil/PROJECTS/Mol_Feturizer/New_Systems/rnas/1qd3

>  <Rbt.Executable>
rbdock ($Id: //depot/dev/client3/rdock/2013.1/src/exe/rbdock.cxx#4 $)

>  <Rbt.Library>
libRbt.so (2013.1, Build901 2013/11/27)

>  <Rbt.Parameter_File>
/export/apps/rDock/src/rDock_2013.1_src/data/scripts/dock_solv.prm

>  <Rbt.Receptor>
prm/blind_docking_20.prm

>  <SCORE>
-59.9214

>  <SCORE.INTER>
-45.9307

>  <SCORE.INTER.CONST>
1

>  <SCORE.INTER.POLAR>
-7.67707

>  <SCORE.INTER.ROT>
9

>  <SCORE.INTER.SOLV>
27.7124

>  <SCORE.INTER.VDW>
-23.8677

>  <SCORE.INTER.norm>
-1.09359

>  <SCORE.INTRA>
-15.1623

>  <SCORE.INTRA.DIHEDRAL>
-12.2476

>  <SCORE.INTRA.DIHEDRAL.0>
40.6252

>  <SCORE.INTRA.POLAR>
0.443346

>  <SCORE.INTRA.POLAR.0>
-1.20161

>  <SCORE.INTRA.REPUL>
-0.115675

>  <SCORE.INTRA.REPUL.0>
0.115675

>  <SCORE.INTRA.SOLV>
-2.8809

>  <SCORE.INTRA.SOLV.lig_0>
-154.895

>  <SCORE.INTRA.VDW>
-8.52711

>  <SCORE.INTRA.VDW.0>
2.2925

>  <SCORE.INTRA.norm>
-0.361008

>  <SCORE.RESTR>
1.17167

>  <SCORE.RESTR.CAVITY>
1.17167

>  <SCORE.RESTR.norm>
0.0278968

>  <SCORE.SYSTEM>
0

>  <SCORE.SYSTEM.CONST>
0

>  <SCORE.SYSTEM.DIHEDRAL>
0

>  <SCORE.SYSTEM.SOLV>
0

>  <SCORE.SYSTEM.norm>
0

>  <SCORE.heavy>
42

>  <SCORE.norm>
-1.4267

>  <RMSD>
15.189

$$$$

 OpenBabel11021811413D
libRbt.so/2013.1/901 2013/11/27
 42 45  0  0  0  0  0  0  0  0999 V2000
   -0.1557   -3.8121    6.2615 O   0  0  0  0  0  0  0  0  0  0  0  0
   -1.3448   -3.2690    5.7056 C   0  0  0  0  0  0  0  0  0  0  0  0
   -1.5186   -3.7654    4.2697 C   0  0  1  0  0  0  0  0  0  0  0  0
   -1.8360   -5.1739    4.2359 O   0  0  0  0  0  0  0  0  0  0  0  0
   -2.6449   -3.0701    3.5231 C   0  0  2  0  0  0  0  0  0  0  0  0
   -2.8923   -4.0674    2.4037 C   0  0  1  0  0  0  0  0  0  0  0  0
   -1.8802   -3.9375    1.4114 O   0  0  0  0  0  0  0  0  0  0  0  0
   -2.7427   -5.4191    3.1311 C   0  0  2  0  0  0  0  0  0  0  0  0
   -4.3685    0.8681    1.6909 C   0  0  2  0  0  0  0  0  0  0  0  0
   -3.3397    0.2394    2.4705 O   0  0  0  0  0  0  0  0  0  0  0  0
   -3.2367   -1.1681    2.1895 C   0  0  2  0  0  0  0  0  0  0  0  0
   -2.2356   -1.7793    3.0297 O   0  0  0  0  0  0  0  0  0  0  0  0
   -2.9045   -1.4027    0.7059 C   0  0  2  0  0  0  0  0  0  0  0  0
   -1.5040   -1.1279    0.4422 N   0  3  0  0  0  0  0  0  0  0  0  0
   -3.7982   -0.5961   -0.2436 C   0  0  1  0  0  0  0  0  0  0  0  0
   -5.0662   -1.2245   -0.3443 O   0  0  0  0  0  0  0  0  0  0  0  0
   -3.9784    0.8474    0.2185 C   0  0  2  0  0  0  0  0  0  0  0  0
   -2.7715    1.5746    0.0212 O   0  0  0  0  0  0  0  0  0  0  0  0
   -4.6083    2.2973    2.1693 C   0  0  0  0  0  0  0  0  0  0  0  0
   -3.5328    3.1659    1.7293 N   0  3  0  0  0  0  0  0  0  0  0  0
   -4.0656   -9.4022   -0.8074 C   0  0  1  0  0  0  0  0  0  0  0  0
   -3.1261   -8.5056   -0.1785 O   0  0  0  0  0  0  0  0  0  0  0  0
   -3.7316   -7.6453    0.8138 C   0  0  2  0  0  0  0  0  0  0  0  0
   -4.2285   -8.3932    1.9511 O   0  0  0  0  0  0  0  0  0  0  0  0
   -4.8408   -6.7928    0.1854 C   0  0  2  0  0  0  0  0  0  0  0  0
   -5.5768   -6.0945    1.2229 N   0  3  0  0  0  0  0  0  0  0  0  0
   -5.8094   -7.6396   -0.6326 C   0  0  1  0  0  0  0  0  0  0  0  0
   -6.6692   -6.7939   -1.3808 O   0  0  0  0  0  0  0  0  0  0  0  0
   -5.1115   -8.6092   -1.5739 C   0  0  2  0  0  0  0  0  0  0  0  0
   -6.0557   -9.4916   -2.1625 O   0  0  0  0  0  0  0  0  0  0  0  0
   -3.3418  -10.3007   -1.8061 C   0  0  0  0  0  0  0  0  0  0  0  0
   -2.0810  -10.7667   -1.2586 N   0  3  0  0  0  0  0  0  0  0  0  0
   -3.3886   -8.6479    6.1139 C   0  0  2  0  0  0  0  0  0  0  0  0
   -2.5393   -9.4700    5.1647 C   0  0  0  0  0  0  0  0  0  0  0  0
   -3.2116   -9.5789    3.8087 C   0  0  1  0  0  0  0  0  0  0  0  0
   -3.4127   -8.2187    3.1392 C   0  0  2  0  0  0  0  0  0  0  0  0
   -4.0946   -7.2220    4.1049 C   0  0  1  0  0  0  0  0  0  0  0  0
   -3.6121   -7.2467    5.5612 C   0  0  1  0  0  0  0  0  0  0  0  0
   -2.7275   -8.5640    7.4023 N   0  3  0  0  0  0  0  0  0  0  0  0
   -2.4240  -10.4527    2.9610 N   0  3  0  0  0  0  0  0  0  0  0  0
   -4.0498   -5.8684    3.5906 O   0  0  0  0  0  0  0  0  0  0  0  0
   -4.5366   -6.5467    6.3872 O   0  0  0  0  0  0  0  0  0  0  0  0
  1  2  1  0  0  0  0
  3  2  1  1  0  0  0
  3  4  1  0  0  0  0
  3  5  1  0  0  0  0
  4  8  1  0  0  0  0
  5  6  1  0  0  0  0
  5 12  1  6  0  0  0
  6  7  1  6  0  0  0
  6  8  1  0  0  0  0
  8 41  1  1  0  0  0
  9 10  1  0  0  0  0
  9 17  1  0  0  0  0
  9 19  1  1  0  0  0
 10 11  1  0  0  0  0
 11 12  1  1  0  0  0
 11 13  1  0  0  0  0
 13 14  1  1  0  0  0
 13 15  1  0  0  0  0
 15 16  1  1  0  0  0
 15 17  1  0  0  0  0
 17 18  1  1  0  0  0
 19 20  1  0  0  0  0
 21 22  1  0  0  0  0
 21 29  1  0  0  0  0
 21 31  1  6  0  0  0
 22 23  1  0  0  0  0
 23 24  1  1  0  0  0
 23 25  1  0  0  0  0
 25 26  1  1  0  0  0
 25 27  1  0  0  0  0
 27 28  1  6  0  0  0
 27 29  1  0  0  0  0
 29 30  1  1  0  0  0
 31 32  1  0  0  0  0
 33 34  1  0  0  0  0
 33 38  1  0  0  0  0
 33 39  1  1  0  0  0
 34 35  1  0  0  0  0
 35 36  1  0  0  0  0
 35 40  1  6  0  0  0
 36 24  1  6  0  0  0
 36 37  1  0  0  0  0
 37 38  1  0  0  0  0
 37 41  1  6  0  0  0
 38 42  1  1  0  0  0
M  CHG  6  14   1  20   1  26   1  32   1  39   1  40   1
M  END
>  <CHROM.1>
168.31834593,69.79453927,173.38410474,65.64418246,-72.46499546,74.96788110
139.18321357,31.67777726,70.14295771,51.53793516,-80.80543027,42.12452292
107.17650367,-136.42061354,-64.32471246,-71.62115820,61.71055142,-37.86775338
47.69947170,73.31240010,-49.04995339,-52.12342485,-3.43419712,-5.05817091
2.08512017,-1.40561394,1.24238395,2.97539288

>  <Name>


>  <RI>
0

>  <Rbt.Current_Directory>
/home/itssahil/PROJECTS/Mol_Feturizer/New_Systems/rnas/1qd3

>  <Rbt.Executable>
rbdock ($Id: //depot/dev/client3/rdock/2013.1/src/exe/rbdock.cxx#4 $)

>  <Rbt.Library>
libRbt.so (2013.1, Build901 2013/11/27)

>  <Rbt.Parameter_File>
/export/apps/rDock/src/rDock_2013.1_src/data/scripts/dock_solv.prm

>  <Rbt.Receptor>
prm/blind_docking_80.prm

>  <SCORE>
-76.8191

>  <SCORE.INTER>
-61.7247

>  <SCORE.INTER.CONST>
1

>  <SCORE.INTER.POLAR>
-7.97681

>  <SCORE.INTER.ROT>
9

>  <SCORE.INTER.SOLV>
31.7287

>  <SCORE.INTER.VDW>
-34.7367

>  <SCORE.INTER.norm>
-1.46964

>  <SCORE.INTRA>
-16.3436

>  <SCORE.INTRA.DIHEDRAL>
-11.0544

>  <SCORE.INTRA.DIHEDRAL.0>
40.6252

>  <SCORE.INTRA.POLAR>
-0.792991

>  <SCORE.INTRA.POLAR.0>
-1.20161

>  <SCORE.INTRA.REPUL>
-0.115626

>  <SCORE.INTRA.REPUL.0>
0.115675

>  <SCORE.INTRA.SOLV>
-2.81618

>  <SCORE.INTRA.SOLV.lig_0>
-154.895

>  <SCORE.INTRA.VDW>
-6.13404

>  <SCORE.INTRA.VDW.0>
2.2925

>  <SCORE.INTRA.norm>
-0.389134

>  <SCORE.RESTR>
1.24924

>  <SCORE.RESTR.CAVITY>
1.24924

>  <SCORE.RESTR.norm>
0.0297439

>  <SCORE.SYSTEM>
0

>  <SCORE.SYSTEM.CONST>
0

>  <SCORE.SYSTEM.DIHEDRAL>
0

>  <SCORE.SYSTEM.SOLV>
0

>  <SCORE.SYSTEM.norm>
0

>  <SCORE.heavy>
42

>  <SCORE.norm>
-1.82903

>  <RMSD>
15.194

$$$$

 OpenBabel11021811413D
libRbt.so/2013.1/901 2013/11/27
 42 45  0  0  0  0  0  0  0  0999 V2000
   -4.0500   -3.2833   -2.7199 O   0  0  0  0  0  0  0  0  0  0  0  0
   -5.2593   -3.9749   -2.4424 C   0  0  0  0  0  0  0  0  0  0  0  0
   -4.9467   -5.3273   -1.8010 C   0  0  1  0  0  0  0  0  0  0  0  0
   -4.2338   -5.1655   -0.5555 O   0  0  0  0  0  0  0  0  0  0  0  0
   -6.1880   -6.1367   -1.4642 C   0  0  2  0  0  0  0  0  0  0  0  0
   -5.6176   -7.1070   -0.4433 C   0  0  1  0  0  0  0  0  0  0  0  0
   -4.8833   -8.1286   -1.1088 O   0  0  0  0  0  0  0  0  0  0  0  0
   -4.6553   -6.2083    0.3598 C   0  0  2  0  0  0  0  0  0  0  0  0
   -9.2755   -4.3250   -3.4212 C   0  0  2  0  0  0  0  0  0  0  0  0
   -7.9862   -4.8648   -3.0927 O   0  0  0  0  0  0  0  0  0  0  0  0
   -8.0089   -6.3015   -3.0145 C   0  0  2  0  0  0  0  0  0  0  0  0
   -6.7146   -6.8071   -2.6262 O   0  0  0  0  0  0  0  0  0  0  0  0
   -8.4392   -6.9116   -4.3595 C   0  0  2  0  0  0  0  0  0  0  0  0
   -7.3507   -6.8638   -5.3183 N   0  3  0  0  0  0  0  0  0  0  0  0
   -9.6966   -6.2548   -4.9411 C   0  0  1  0  0  0  0  0  0  0  0  0
  -10.8413   -6.7440   -4.2604 O   0  0  0  0  0  0  0  0  0  0  0  0
   -9.6535   -4.7325   -4.8395 C   0  0  2  0  0  0  0  0  0  0  0  0
   -8.7094   -4.2105   -5.7672 O   0  0  0  0  0  0  0  0  0  0  0  0
   -9.2761   -2.8061   -3.2738 C   0  0  0  0  0  0  0  0  0  0  0  0
   -9.6560   -2.4281   -1.9256 N   0  3  0  0  0  0  0  0  0  0  0  0
   -2.0228   -9.0519    3.1128 C   0  0  1  0  0  0  0  0  0  0  0  0
   -2.9797   -8.4180    2.2384 O   0  0  0  0  0  0  0  0  0  0  0  0
   -3.8614   -7.4994    2.9241 C   0  0  2  0  0  0  0  0  0  0  0  0
   -3.1480   -6.3555    3.4553 O   0  0  0  0  0  0  0  0  0  0  0  0
   -4.6447   -8.2230    4.0262 C   0  0  2  0  0  0  0  0  0  0  0  0
   -5.3620   -7.2585    4.8391 N   0  3  0  0  0  0  0  0  0  0  0  0
   -3.7280   -9.0495    4.9213 C   0  0  1  0  0  0  0  0  0  0  0  0
   -4.5080   -9.8795    5.7679 O   0  0  0  0  0  0  0  0  0  0  0  0
   -2.7427   -9.9074    4.1424 C   0  0  2  0  0  0  0  0  0  0  0  0
   -1.8017  -10.5020    5.0241 O   0  0  0  0  0  0  0  0  0  0  0  0
   -1.1069   -9.9691    2.3074 C   0  0  0  0  0  0  0  0  0  0  0  0
    0.2717   -9.5235    2.3937 N   0  3  0  0  0  0  0  0  0  0  0  0
   -3.7924   -2.2934    2.3675 C   0  0  2  0  0  0  0  0  0  0  0  0
   -2.3693   -2.8157    2.3581 C   0  0  0  0  0  0  0  0  0  0  0  0
   -2.2742   -4.1134    3.1390 C   0  0  1  0  0  0  0  0  0  0  0  0
   -3.1447   -5.2229    2.5472 C   0  0  2  0  0  0  0  0  0  0  0  0
   -4.5914   -4.7279    2.3170 C   0  0  1  0  0  0  0  0  0  0  0  0
   -4.7438   -3.3099    1.7510 C   0  0  1  0  0  0  0  0  0  0  0  0
   -3.8549   -1.0516    1.6205 N   0  3  0  0  0  0  0  0  0  0  0  0
   -0.8864   -4.5294    3.1944 N   0  3  0  0  0  0  0  0  0  0  0  0
   -5.3531   -5.6655    1.5173 O   0  0  0  0  0  0  0  0  0  0  0  0
   -6.0879   -2.8687    1.9119 O   0  0  0  0  0  0  0  0  0  0  0  0
  1  2  1  0  0  0  0
  3  2  1  1  0  0  0
  3  4  1  0  0  0  0
  3  5  1  0  0  0  0
  4  8  1  0  0  0  0
  5  6  1  0  0  0  0
  5 12  1  6  0  0  0
  6  7  1  6  0  0  0
  6  8  1  0  0  0  0
  8 41  1  1  0  0  0
  9 10  1  0  0  0  0
  9 17  1  0  0  0  0
  9 19  1  6  0  0  0
 10 11  1  0  0  0  0
 11 12  1  6  0  0  0
 11 13  1  0  0  0  0
 13 14  1  6  0  0  0
 13 15  1  0  0  0  0
 15 16  1  1  0  0  0
 15 17  1  0  0  0  0
 17 18  1  6  0  0  0
 19 20  1  0  0  0  0
 21 22  1  0  0  0  0
 21 29  1  0  0  0  0
 21 31  1  6  0  0  0
 22 23  1  0  0  0  0
 23 24  1  1  0  0  0
 23 25  1  0  0  0  0
 25 26  1  1  0  0  0
 25 27  1  0  0  0  0
 27 28  1  6  0  0  0
 27 29  1  0  0  0  0
 29 30  1  1  0  0  0
 31 32  1  0  0  0  0
 33 34  1  0  0  0  0
 33 38  1  0  0  0  0
 33 39  1  6  0  0  0
 34 35  1  0  0  0  0
 35 36  1  0  0  0  0
 35 40  1  6  0  0  0
 36 24  1  1  0  0  0
 36 37  1  0  0  0  0
 37 38  1  0  0  0  0
 37 41  1  6  0  0  0
 38 42  1  1  0  0  0
M  CHG  6  14   1  20   1  26   1  32   1  39   1  40   1
M  END
>  <CHROM.1>
-61.26231478,60.66550133,-113.75020431,-177.36506517,-59.19547288,-89.83163857
49.68415885,41.20176742,-54.09088444,-69.43747404,55.74114033,117.79983443
93.50354202,-175.26893516,-43.16756739,157.81776728,54.71819676,84.80793000
-48.14412927,165.22550575,-43.85617216,175.26589342,-5.18033810,-5.96836714
0.25940457,-2.82599744,0.90420151,3.11651982

>  <Name>


>  <RI>
0

>  <Rbt.Current_Directory>
/home/itssahil/PROJECTS/Mol_Feturizer/New_Systems/rnas/1qd3

>  <Rbt.Executable>
rbdock ($Id: //depot/dev/client3/rdock/2013.1/src/exe/rbdock.cxx#4 $)

>  <Rbt.Library>
libRbt.so (2013.1, Build901 2013/11/27)

>  <Rbt.Parameter_File>
/export/apps/rDock/src/rDock_2013.1_src/data/scripts/dock_solv.prm

>  <Rbt.Receptor>
prm/blind_docking_80.prm

>  <SCORE>
-48.2066

>  <SCORE.INTER>
-32.0501

>  <SCORE.INTER.CONST>
1

>  <SCORE.INTER.POLAR>
-4.8266

>  <SCORE.INTER.ROT>
9

>  <SCORE.INTER.SOLV>
37.6403

>  <SCORE.INTER.VDW>
-27.4248

>  <SCORE.INTER.norm>
-0.763098

>  <SCORE.INTRA>
-17.7529

>  <SCORE.INTRA.DIHEDRAL>
-11.2595

>  <SCORE.INTRA.DIHEDRAL.0>
40.6252

>  <SCORE.INTRA.POLAR>
0.849181

>  <SCORE.INTRA.POLAR.0>
-1.20161

>  <SCORE.INTRA.REPUL>
-0.115675

>  <SCORE.INTRA.REPUL.0>
0.115675

>  <SCORE.INTRA.SOLV>
-15.1738

>  <SCORE.INTRA.SOLV.lig_0>
-154.895

>  <SCORE.INTRA.VDW>
-6.84513

>  <SCORE.INTRA.VDW.0>
2.2925

>  <SCORE.INTRA.norm>
-0.422689

>  <SCORE.RESTR>
1.59644

>  <SCORE.RESTR.CAVITY>
1.59644

>  <SCORE.RESTR.norm>
0.0380104

>  <SCORE.SYSTEM>
0

>  <SCORE.SYSTEM.CONST>
0

>  <SCORE.SYSTEM.DIHEDRAL>
0

>  <SCORE.SYSTEM.SOLV>
0

>  <SCORE.SYSTEM.norm>
0

>  <SCORE.heavy>
42

>  <SCORE.norm>
-1.14778

>  <RMSD>
15.212

$$$$

 OpenBabel11021811413D
libRbt.so/2013.1/901 2013/11/27
 42 45  0  0  0  0  0  0  0  0999 V2000
   -2.4978   -4.6851    4.5638 O   0  0  0  0  0  0  0  0  0  0  0  0
   -2.7292   -5.1861    3.2550 C   0  0  0  0  0  0  0  0  0  0  0  0
   -4.2218   -5.4556    3.0603 C   0  0  1  0  0  0  0  0  0  0  0  0
   -4.9911   -4.2364    3.1460 O   0  0  0  0  0  0  0  0  0  0  0  0
   -4.5543   -6.0595    1.7060 C   0  0  2  0  0  0  0  0  0  0  0  0
   -6.0376   -5.7415    1.6175 C   0  0  1  0  0  0  0  0  0  0  0  0
   -6.7733   -6.6489    2.4307 O   0  0  0  0  0  0  0  0  0  0  0  0
   -6.1047   -4.3239    2.2213 C   0  0  2  0  0  0  0  0  0  0  0  0
   -2.8515   -8.5667    4.8549 C   0  0  2  0  0  0  0  0  0  0  0  0
   -3.8504   -8.2294    3.8802 O   0  0  0  0  0  0  0  0  0  0  0  0
   -3.2668   -7.8650    2.6163 C   0  0  2  0  0  0  0  0  0  0  0  0
   -4.2927   -7.4765    1.6792 O   0  0  0  0  0  0  0  0  0  0  0  0
   -2.4356   -9.0274    2.0469 C   0  0  2  0  0  0  0  0  0  0  0  0
   -3.2984  -10.0512    1.4866 N   0  3  0  0  0  0  0  0  0  0  0  0
   -1.4752   -9.6377    3.0744 C   0  0  1  0  0  0  0  0  0  0  0  0
   -0.3442   -8.7938    3.2211 O   0  0  0  0  0  0  0  0  0  0  0  0
   -2.1378   -9.8449    4.4337 C   0  0  2  0  0  0  0  0  0  0  0  0
   -3.0642  -10.9226    4.3630 O   0  0  0  0  0  0  0  0  0  0  0  0
   -3.4800   -8.7254    6.2364 C   0  0  0  0  0  0  0  0  0  0  0  0
   -4.2119   -7.5269    6.6007 N   0  3  0  0  0  0  0  0  0  0  0  0
   -7.0429   -3.4802   -3.9091 C   0  0  1  0  0  0  0  0  0  0  0  0
   -7.5033   -3.3845   -2.5449 O   0  0  0  0  0  0  0  0  0  0  0  0
   -7.1404   -4.5273   -1.7364 C   0  0  2  0  0  0  0  0  0  0  0  0
   -5.7066   -4.6311   -1.5546 O   0  0  0  0  0  0  0  0  0  0  0  0
   -7.7167   -5.8168   -2.3337 C   0  0  2  0  0  0  0  0  0  0  0  0
   -7.1744   -6.9699   -1.6394 N   0  3  0  0  0  0  0  0  0  0  0  0
   -7.4082   -5.9373   -3.8220 C   0  0  1  0  0  0  0  0  0  0  0  0
   -8.1519   -7.0102   -4.3789 O   0  0  0  0  0  0  0  0  0  0  0  0
   -7.7001   -4.6637   -4.6004 C   0  0  2  0  0  0  0  0  0  0  0  0
   -7.2190   -4.7777   -5.9316 O   0  0  0  0  0  0  0  0  0  0  0  0
   -7.4284   -2.2210   -4.6800 C   0  0  0  0  0  0  0  0  0  0  0  0
   -6.8060   -2.2102   -5.9912 N   0  3  0  0  0  0  0  0  0  0  0  0
   -2.5717   -2.1855   -0.0410 C   0  0  2  0  0  0  0  0  0  0  0  0
   -3.0115   -1.9721   -1.4759 C   0  0  0  0  0  0  0  0  0  0  0  0
   -3.8221   -3.1579   -1.9654 C   0  0  1  0  0  0  0  0  0  0  0  0
   -5.0982   -3.3762   -1.1513 C   0  0  2  0  0  0  0  0  0  0  0  0
   -4.7903   -3.4028    0.3637 C   0  0  1  0  0  0  0  0  0  0  0  0
   -3.7775   -2.3677    0.8709 C   0  0  1  0  0  0  0  0  0  0  0  0
   -1.7952   -1.0425    0.4001 N   0  3  0  0  0  0  0  0  0  0  0  0
   -4.1385   -2.9659   -3.3673 N   0  3  0  0  0  0  0  0  0  0  0  0
   -6.0030   -3.3382    1.1538 O   0  0  0  0  0  0  0  0  0  0  0  0
   -3.3410   -2.7214    2.1791 O   0  0  0  0  0  0  0  0  0  0  0  0
  1  2  1  0  0  0  0
  3  2  1  6  0  0  0
  3  4  1  0  0  0  0
  3  5  1  0  0  0  0
  4  8  1  0  0  0  0
  5  6  1  0  0  0  0
  5 12  1  1  0  0  0
  6  7  1  1  0  0  0
  6  8  1  0  0  0  0
  8 41  1  6  0  0  0
  9 10  1  0  0  0  0
  9 17  1  0  0  0  0
  9 19  1  1  0  0  0
 10 11  1  0  0  0  0
 11 12  1  6  0  0  0
 11 13  1  0  0  0  0
 13 14  1  1  0  0  0
 13 15  1  0  0  0  0
 15 16  1  1  0  0  0
 15 17  1  0  0  0  0
 17 18  1  6  0  0  0
 19 20  1  0  0  0  0
 21 22  1  0  0  0  0
 21 29  1  0  0  0  0
 21 31  1  6  0  0  0
 22 23  1  0  0  0  0
 23 24  1  6  0  0  0
 23 25  1  0  0  0  0
 25 26  1  1  0  0  0
 25 27  1  0  0  0  0
 27 28  1  6  0  0  0
 27 29  1  0  0  0  0
 29 30  1  6  0  0  0
 31 32  1  0  0  0  0
 33 34  1  0  0  0  0
 33 38  1  0  0  0  0
 33 39  1  1  0  0  0
 34 35  1  0  0  0  0
 35 36  1  0  0  0  0
 35 40  1  6  0  0  0
 36 24  1  6  0  0  0
 36 37  1  0  0  0  0
 37 38  1  0  0  0  0
 37 41  1  1  0  0  0
 38 42  1  1  0  0  0
M  CHG  6  14   1  20   1  26   1  32   1  39   1  40   1
M  END
>  <CHROM.1>
-177.13521414,63.67469271,-26.72449665,61.26989343,57.39153910,-55.42396694
91.67463602,21.68942836,178.04254403,-172.03140798,131.68732254,171.54586396
48.34191624,-135.57847284,63.52446020,-68.13954000,-175.67033841,169.72031410
21.88596772,44.03670702,131.65557421,67.67457634,-4.71058793,-5.52109317
0.48468822,-0.84335664,-0.97725306,-0.41441198

>  <Name>


>  <RI>
0

>  <Rbt.Current_Directory>
/home/itssahil/PROJECTS/Mol_Feturizer/New_Systems/rnas/1qd3

>  <Rbt.Executable>
rbdock ($Id: //depot/dev/client3/rdock/2013.1/src/exe/rbdock.cxx#4 $)

>  <Rbt.Library>
libRbt.so (2013.1, Build901 2013/11/27)

>  <Rbt.Parameter_File>
/export/apps/rDock/src/rDock_2013.1_src/data/scripts/dock_solv.prm

>  <Rbt.Receptor>
prm/blind_docking_40.prm

>  <SCORE>
-42.6409

>  <SCORE.INTER>
-37.6928

>  <SCORE.INTER.CONST>
1

>  <SCORE.INTER.POLAR>
-5.61402

>  <SCORE.INTER.ROT>
9

>  <SCORE.INTER.SOLV>
36.4069

>  <SCORE.INTER.VDW>
-28.1508

>  <SCORE.INTER.norm>
-0.897449

>  <SCORE.INTRA>
-8.7315

>  <SCORE.INTRA.DIHEDRAL>
-8.0532

>  <SCORE.INTRA.DIHEDRAL.0>
40.6252

>  <SCORE.INTRA.POLAR>
0.358999

>  <SCORE.INTRA.POLAR.0>
-1.20161

>  <SCORE.INTRA.REPUL>
-0.115675

>  <SCORE.INTRA.REPUL.0>
0.115675

>  <SCORE.INTRA.SOLV>
-4.36081

>  <SCORE.INTRA.SOLV.lig_0>
-154.895

>  <SCORE.INTRA.VDW>
-3.16672

>  <SCORE.INTRA.VDW.0>
2.2925

>  <SCORE.INTRA.norm>
-0.207893

>  <SCORE.RESTR>
3.78343

>  <SCORE.RESTR.CAVITY>
3.78343

>  <SCORE.RESTR.norm>
0.0900817

>  <SCORE.SYSTEM>
0

>  <SCORE.SYSTEM.CONST>
0

>  <SCORE.SYSTEM.DIHEDRAL>
0

>  <SCORE.SYSTEM.SOLV>
0

>  <SCORE.SYSTEM.norm>
0

>  <SCORE.heavy>
42

>  <SCORE.norm>
-1.01526

>  <RMSD>
15.228

$$$$

 OpenBabel11021811413D
libRbt.so/2013.1/901 2013/11/27
 42 45  0  0  0  0  0  0  0  0999 V2000
   -1.1422   -3.0332    5.6372 O   0  0  0  0  0  0  0  0  0  0  0  0
   -1.4209   -4.4259    5.6169 C   0  0  0  0  0  0  0  0  0  0  0  0
   -1.2759   -4.9621    4.1921 C   0  0  1  0  0  0  0  0  0  0  0  0
   -1.4195   -6.3986    4.1545 O   0  0  0  0  0  0  0  0  0  0  0  0
   -2.3212   -4.4172    3.2330 C   0  0  2  0  0  0  0  0  0  0  0  0
   -2.2481   -5.4544    2.1250 C   0  0  1  0  0  0  0  0  0  0  0  0
   -1.0954   -5.2210    1.3232 O   0  0  0  0  0  0  0  0  0  0  0  0
   -2.0788   -6.7671    2.9166 C   0  0  2  0  0  0  0  0  0  0  0  0
   -4.0655   -0.3623    1.5348 C   0  0  2  0  0  0  0  0  0  0  0  0
   -2.9654   -1.0265    2.1752 O   0  0  0  0  0  0  0  0  0  0  0  0
   -3.0671   -2.4581    2.0702 C   0  0  2  0  0  0  0  0  0  0  0  0
   -1.9796   -3.0949    2.7726 O   0  0  0  0  0  0  0  0  0  0  0  0
   -3.0789   -2.8949    0.5953 C   0  0  2  0  0  0  0  0  0  0  0  0
   -1.7443   -2.8305    0.0286 N   0  3  0  0  0  0  0  0  0  0  0  0
   -4.0651   -2.0911   -0.2603 C   0  0  1  0  0  0  0  0  0  0  0  0
   -5.3832   -2.5610   -0.0263 O   0  0  0  0  0  0  0  0  0  0  0  0
   -3.9970   -0.5944    0.0308 C   0  0  2  0  0  0  0  0  0  0  0  0
   -2.7907   -0.0521   -0.4940 O   0  0  0  0  0  0  0  0  0  0  0  0
   -4.0533    1.1296    1.8554 C   0  0  0  0  0  0  0  0  0  0  0  0
   -5.3507    1.7176    1.5801 N   0  3  0  0  0  0  0  0  0  0  0  0
   -6.4341   -8.5596   -1.7373 C   0  0  1  0  0  0  0  0  0  0  0  0
   -4.9977   -8.6687   -1.8200 O   0  0  0  0  0  0  0  0  0  0  0  0
   -4.3025   -7.7661   -0.9292 C   0  0  2  0  0  0  0  0  0  0  0  0
   -4.5405   -8.0869    0.4637 O   0  0  0  0  0  0  0  0  0  0  0  0
   -4.6780   -6.3107   -1.2333 C   0  0  2  0  0  0  0  0  0  0  0  0
   -4.1437   -5.4362   -0.2060 N   0  3  0  0  0  0  0  0  0  0  0  0
   -6.1887   -6.1223   -1.3159 C   0  0  1  0  0  0  0  0  0  0  0  0
   -6.4822   -4.8313   -1.8270 O   0  0  0  0  0  0  0  0  0  0  0  0
   -6.8786   -7.1728   -2.1725 C   0  0  2  0  0  0  0  0  0  0  0  0
   -8.2891   -7.0555   -2.0566 O   0  0  0  0  0  0  0  0  0  0  0  0
   -7.0895   -9.5710   -2.6735 C   0  0  0  0  0  0  0  0  0  0  0  0
   -7.0186  -10.9090   -2.1155 N   0  3  0  0  0  0  0  0  0  0  0  0
   -2.6312  -11.0808    2.8069 C   0  0  2  0  0  0  0  0  0  0  0  0
   -2.2739  -10.9923    1.3363 C   0  0  0  0  0  0  0  0  0  0  0  0
   -3.3091  -10.1747    0.5861 C   0  0  1  0  0  0  0  0  0  0  0  0
   -3.4048   -8.7353    1.0939 C   0  0  2  0  0  0  0  0  0  0  0  0
   -3.5645   -8.7005    2.6315 C   0  0  1  0  0  0  0  0  0  0  0  0
   -2.7065   -9.6924    3.4278 C   0  0  1  0  0  0  0  0  0  0  0  0
   -1.6308  -11.8708    3.4991 N   0  3  0  0  0  0  0  0  0  0  0  0
   -2.9916  -10.1960   -0.8285 N   0  3  0  0  0  0  0  0  0  0  0  0
   -3.3874   -7.3609    3.1540 O   0  0  0  0  0  0  0  0  0  0  0  0
   -3.1943   -9.7889    4.7619 O   0  0  0  0  0  0  0  0  0  0  0  0
  1  2  1  0  0  0  0
  3  2  1  1  0  0  0
  3  4  1  0  0  0  0
  3  5  1  0  0  0  0
  4  8  1  0  0  0  0
  5  6  1  0  0  0  0
  5 12  1  6  0  0  0
  6  7  1  6  0  0  0
  6  8  1  0  0  0  0
  8 41  1  1  0  0  0
  9 10  1  0  0  0  0
  9 17  1  0  0  0  0
  9 19  1  6  0  0  0
 10 11  1  0  0  0  0
 11 12  1  1  0  0  0
 11 13  1  0  0  0  0
 13 14  1  6  0  0  0
 13 15  1  0  0  0  0
 15 16  1  1  0  0  0
 15 17  1  0  0  0  0
 17 18  1  1  0  0  0
 19 20  1  0  0  0  0
 21 22  1  0  0  0  0
 21 29  1  0  0  0  0
 21 31  1  6  0  0  0
 22 23  1  0  0  0  0
 23 24  1  1  0  0  0
 23 25  1  0  0  0  0
 25 26  1  1  0  0  0
 25 27  1  0  0  0  0
 27 28  1  6  0  0  0
 27 29  1  0  0  0  0
 29 30  1  1  0  0  0
 31 32  1  0  0  0  0
 33 34  1  0  0  0  0
 33 38  1  0  0  0  0
 33 39  1  1  0  0  0
 34 35  1  0  0  0  0
 35 36  1  0  0  0  0
 35 40  1  6  0  0  0
 36 24  1  6  0  0  0
 36 37  1  0  0  0  0
 37 38  1  0  0  0  0
 37 41  1  1  0  0  0
 38 42  1  1  0  0  0
M  CHG  6  14   1  20   1  26   1  32   1  39   1  40   1
M  END
>  <CHROM.1>
-170.05197758,174.19866027,-168.96442968,65.55010116,-121.55622796,-162.05216692
153.16158206,78.71909625,164.74706003,-64.92306933,-73.90276430,75.66740735
104.87092209,-73.52222959,-163.39222009,-66.53376754,-58.19579830,-62.09388120
173.78464506,-70.05374523,-61.37962524,-53.59687817,-3.70988344,-5.80454658
1.08718332,-1.40107417,0.90638525,3.13721585

>  <Name>


>  <RI>
0

>  <Rbt.Current_Directory>
/home/itssahil/PROJECTS/Mol_Feturizer/New_Systems/rnas/1qd3

>  <Rbt.Executable>
rbdock ($Id: //depot/dev/client3/rdock/2013.1/src/exe/rbdock.cxx#4 $)

>  <Rbt.Library>
libRbt.so (2013.1, Build901 2013/11/27)

>  <Rbt.Parameter_File>
/export/apps/rDock/src/rDock_2013.1_src/data/scripts/dock_solv.prm

>  <Rbt.Receptor>
prm/blind_docking_100.prm

>  <SCORE>
-65.9437

>  <SCORE.INTER>
-42.2895

>  <SCORE.INTER.CONST>
1

>  <SCORE.INTER.POLAR>
-4.68556

>  <SCORE.INTER.ROT>
9

>  <SCORE.INTER.SOLV>
23.9627

>  <SCORE.INTER.VDW>
-30.162

>  <SCORE.INTER.norm>
-1.00689

>  <SCORE.INTRA>
-24.1335

>  <SCORE.INTRA.DIHEDRAL>
-15.1627

>  <SCORE.INTRA.DIHEDRAL.0>
40.6252

>  <SCORE.INTRA.POLAR>
-3.25355

>  <SCORE.INTRA.POLAR.0>
-1.20161

>  <SCORE.INTRA.REPUL>
-0.115675

>  <SCORE.INTRA.REPUL.0>
0.115675

>  <SCORE.INTRA.SOLV>
2.61641

>  <SCORE.INTRA.SOLV.lig_0>
-154.895

>  <SCORE.INTRA.VDW>
-6.21987

>  <SCORE.INTRA.VDW.0>
2.2925

>  <SCORE.INTRA.norm>
-0.574606

>  <SCORE.RESTR>
0.479195

>  <SCORE.RESTR.CAVITY>
0.479195

>  <SCORE.RESTR.norm>
0.0114094

>  <SCORE.SYSTEM>
0

>  <SCORE.SYSTEM.CONST>
0

>  <SCORE.SYSTEM.DIHEDRAL>
0

>  <SCORE.SYSTEM.SOLV>
0

>  <SCORE.SYSTEM.norm>
0

>  <SCORE.heavy>
42

>  <SCORE.norm>
-1.57009

>  <RMSD>
15.230

$$$$

 OpenBabel11021811413D
libRbt.so/2013.1/901 2013/11/27
 42 45  0  0  0  0  0  0  0  0999 V2000
   -3.8577   -3.0981    2.0255 O   0  0  0  0  0  0  0  0  0  0  0  0
   -3.5002   -4.4612    2.2039 C   0  0  0  0  0  0  0  0  0  0  0  0
   -4.6645   -5.3605    1.7869 C   0  0  1  0  0  0  0  0  0  0  0  0
   -5.2019   -4.9639    0.5065 O   0  0  0  0  0  0  0  0  0  0  0  0
   -4.2745   -6.8216    1.6365 C   0  0  2  0  0  0  0  0  0  0  0  0
   -5.4179   -7.3260    0.7722 C   0  0  1  0  0  0  0  0  0  0  0  0
   -6.5814   -7.5075    1.5718 O   0  0  0  0  0  0  0  0  0  0  0  0
   -5.6316   -6.1521   -0.2051 C   0  0  2  0  0  0  0  0  0  0  0  0
   -1.7184   -5.8925    5.0523 C   0  0  2  0  0  0  0  0  0  0  0  0
   -2.9853   -6.1412    4.4241 O   0  0  0  0  0  0  0  0  0  0  0  0
   -2.9448   -7.3006    3.5726 C   0  0  2  0  0  0  0  0  0  0  0  0
   -4.2142   -7.4878    2.9130 O   0  0  0  0  0  0  0  0  0  0  0  0
   -2.5728   -8.5552    4.3813 C   0  0  2  0  0  0  0  0  0  0  0  0
   -3.7059   -9.0210    5.1593 N   0  3  0  0  0  0  0  0  0  0  0  0
   -1.3509   -8.3467    5.2836 C   0  0  1  0  0  0  0  0  0  0  0  0
   -0.1705   -8.4035    4.4986 O   0  0  0  0  0  0  0  0  0  0  0  0
   -1.4041   -7.0169    6.0309 C   0  0  2  0  0  0  0  0  0  0  0  0
   -2.3962   -7.0715    7.0493 O   0  0  0  0  0  0  0  0  0  0  0  0
   -1.7257   -4.5413    5.7615 C   0  0  0  0  0  0  0  0  0  0  0  0
   -2.2917   -3.5202    4.9001 N   0  3  0  0  0  0  0  0  0  0  0  0
   -6.3903   -2.2521   -5.3953 C   0  0  1  0  0  0  0  0  0  0  0  0
   -6.8490   -2.4545   -4.0422 O   0  0  0  0  0  0  0  0  0  0  0  0
   -6.7941   -3.8364   -3.6195 C   0  0  2  0  0  0  0  0  0  0  0  0
   -5.4331   -4.3279   -3.5436 O   0  0  0  0  0  0  0  0  0  0  0  0
   -7.6494   -4.7171   -4.5385 C   0  0  2  0  0  0  0  0  0  0  0  0
   -7.4201   -6.1178   -4.2364 N   0  3  0  0  0  0  0  0  0  0  0  0
   -7.3410   -4.4649   -6.0101 C   0  0  1  0  0  0  0  0  0  0  0  0
   -8.3073   -5.1170   -6.8196 O   0  0  0  0  0  0  0  0  0  0  0  0
   -7.2961   -2.9877   -6.3693 C   0  0  2  0  0  0  0  0  0  0  0  0
   -6.8227   -2.8168   -7.6972 O   0  0  0  0  0  0  0  0  0  0  0  0
   -6.4400   -0.7681   -5.7471 C   0  0  0  0  0  0  0  0  0  0  0  0
   -7.7580   -0.2208   -5.4824 N   0  3  0  0  0  0  0  0  0  0  0  0
   -2.1347   -3.7428   -0.9210 C   0  0  2  0  0  0  0  0  0  0  0  0
   -3.0625   -2.5702   -1.1705 C   0  0  0  0  0  0  0  0  0  0  0  0
   -3.9134   -2.8184   -2.4023 C   0  0  1  0  0  0  0  0  0  0  0  0
   -4.8059   -4.0525   -2.2636 C   0  0  2  0  0  0  0  0  0  0  0  0
   -3.9855   -5.2799   -1.8039 C   0  0  1  0  0  0  0  0  0  0  0  0
   -2.9296   -5.0259   -0.7200 C   0  0  1  0  0  0  0  0  0  0  0  0
   -1.3299   -3.4784    0.2564 N   0  3  0  0  0  0  0  0  0  0  0  0
   -4.7130   -1.6385   -2.6682 N   0  3  0  0  0  0  0  0  0  0  0  0
   -4.8458   -6.3773   -1.4106 O   0  0  0  0  0  0  0  0  0  0  0  0
   -2.0400   -6.1350   -0.6444 O   0  0  0  0  0  0  0  0  0  0  0  0
  1  2  1  0  0  0  0
  3  2  1  6  0  0  0
  3  4  1  0  0  0  0
  3  5  1  0  0  0  0
  4  8  1  0  0  0  0
  5  6  1  0  0  0  0
  5 12  1  1  0  0  0
  6  7  1  1  0  0  0
  6  8  1  0  0  0  0
  8 41  1  6  0  0  0
  9 10  1  0  0  0  0
  9 17  1  0  0  0  0
  9 19  1  1  0  0  0
 10 11  1  0  0  0  0
 11 12  1  1  0  0  0
 11 13  1  0  0  0  0
 13 14  1  1  0  0  0
 13 15  1  0  0  0  0
 15 16  1  6  0  0  0
 15 17  1  0  0  0  0
 17 18  1  1  0  0  0
 19 20  1  0  0  0  0
 21 22  1  0  0  0  0
 21 29  1  0  0  0  0
 21 31  1  6  0  0  0
 22 23  1  0  0  0  0
 23 24  1  6  0  0  0
 23 25  1  0  0  0  0
 25 26  1  1  0  0  0
 25 27  1  0  0  0  0
 27 28  1  6  0  0  0
 27 29  1  0  0  0  0
 29 30  1  6  0  0  0
 31 32  1  0  0  0  0
 33 34  1  0  0  0  0
 33 38  1  0  0  0  0
 33 39  1  1  0  0  0
 34 35  1  0  0  0  0
 35 36  1  0  0  0  0
 35 40  1  1  0  0  0
 36 24  1  6  0  0  0
 36 37  1  0  0  0  0
 37 38  1  0  0  0  0
 37 41  1  1  0  0  0
 38 42  1  6  0  0  0
M  CHG  6  14   1  20   1  26   1  32   1  39   1  40   1
M  END
>  <CHROM.1>
64.86534326,47.54883421,-84.35392776,-42.29019153,-11.07012328,-46.36465016
91.10659748,80.15491392,-59.91647039,62.19534582,46.89352695,-53.06949430
86.47826071,-99.48400829,70.83770659,-57.38336410,60.76739197,-160.94777879
41.36969690,85.04827364,-67.63510126,56.97956913,-4.41788756,-4.99654591
-0.18027087,-0.90398558,-0.90512408,-0.65394944

>  <Name>


>  <RI>
0

>  <Rbt.Current_Directory>
/home/itssahil/PROJECTS/Mol_Feturizer/New_Systems/rnas/1qd3

>  <Rbt.Executable>
rbdock ($Id: //depot/dev/client3/rdock/2013.1/src/exe/rbdock.cxx#4 $)

>  <Rbt.Library>
libRbt.so (2013.1, Build901 2013/11/27)

>  <Rbt.Parameter_File>
/export/apps/rDock/src/rDock_2013.1_src/data/scripts/dock_solv.prm

>  <Rbt.Receptor>
prm/blind_docking_40.prm

>  <SCORE>
-35.9896

>  <SCORE.INTER>
-26.9562

>  <SCORE.INTER.CONST>
1

>  <SCORE.INTER.POLAR>
-3.72587

>  <SCORE.INTER.ROT>
9

>  <SCORE.INTER.SOLV>
25.132

>  <SCORE.INTER.VDW>
-23.5286

>  <SCORE.INTER.norm>
-0.641814

>  <SCORE.INTRA>
-13.3749

>  <SCORE.INTRA.DIHEDRAL>
-12.0987

>  <SCORE.INTRA.DIHEDRAL.0>
40.6252

>  <SCORE.INTRA.POLAR>
-0.686328

>  <SCORE.INTRA.POLAR.0>
-1.20161

>  <SCORE.INTRA.REPUL>
-0.115675

>  <SCORE.INTRA.REPUL.0>
0.115675

>  <SCORE.INTRA.SOLV>
0.539779

>  <SCORE.INTRA.SOLV.lig_0>
-154.895

>  <SCORE.INTRA.VDW>
-4.68356

>  <SCORE.INTRA.VDW.0>
2.2925

>  <SCORE.INTRA.norm>
-0.31845

>  <SCORE.RESTR>
4.34148

>  <SCORE.RESTR.CAVITY>
4.34148

>  <SCORE.RESTR.norm>
0.103369

>  <SCORE.SYSTEM>
0

>  <SCORE.SYSTEM.CONST>
0

>  <SCORE.SYSTEM.DIHEDRAL>
0

>  <SCORE.SYSTEM.SOLV>
0

>  <SCORE.SYSTEM.norm>
0

>  <SCORE.heavy>
42

>  <SCORE.norm>
-0.856895

>  <RMSD>
15.252

$$$$

 OpenBabel11021811413D
libRbt.so/2013.1/901 2013/11/27
 42 45  0  0  0  0  0  0  0  0999 V2000
   -1.5940   -2.5817    4.3167 O   0  0  0  0  0  0  0  0  0  0  0  0
   -1.7855   -1.8385    3.1214 C   0  0  0  0  0  0  0  0  0  0  0  0
   -1.5362   -2.7358    1.9085 C   0  0  1  0  0  0  0  0  0  0  0  0
   -1.5377   -4.1317    2.2788 O   0  0  0  0  0  0  0  0  0  0  0  0
   -2.5933   -2.5945    0.8259 C   0  0  2  0  0  0  0  0  0  0  0  0
   -2.3784   -3.8880    0.0582 C   0  0  1  0  0  0  0  0  0  0  0  0
   -1.2250   -3.7712   -0.7676 O   0  0  0  0  0  0  0  0  0  0  0  0
   -2.1115   -4.9000    1.1910 C   0  0  2  0  0  0  0  0  0  0  0  0
   -3.5648    2.0217    0.1427 C   0  0  2  0  0  0  0  0  0  0  0  0
   -3.0463    0.8015   -0.4082 O   0  0  0  0  0  0  0  0  0  0  0  0
   -2.9429   -0.2353    0.5843 C   0  0  2  0  0  0  0  0  0  0  0  0
   -2.3653   -1.4271    0.0121 O   0  0  0  0  0  0  0  0  0  0  0  0
   -4.3225   -0.5476    1.1890 C   0  0  2  0  0  0  0  0  0  0  0  0
   -5.1185   -1.3425    0.2720 N   0  3  0  0  0  0  0  0  0  0  0  0
   -5.0894    0.7100    1.6146 C   0  0  1  0  0  0  0  0  0  0  0  0
   -4.5676    1.1858    2.8452 O   0  0  0  0  0  0  0  0  0  0  0  0
   -5.0138    1.8162    0.5657 C   0  0  2  0  0  0  0  0  0  0  0  0
   -5.8091    1.4708   -0.5624 O   0  0  0  0  0  0  0  0  0  0  0  0
   -3.4500    3.1596   -0.8677 C   0  0  0  0  0  0  0  0  0  0  0  0
   -2.3652    2.9046   -1.7967 N   0  3  0  0  0  0  0  0  0  0  0  0
   -6.2271   -9.5612   -1.6065 C   0  0  1  0  0  0  0  0  0  0  0  0
   -4.8705   -9.1339   -1.8499 O   0  0  0  0  0  0  0  0  0  0  0  0
   -4.5525   -7.8618   -1.2399 C   0  0  2  0  0  0  0  0  0  0  0  0
   -4.5824   -7.9304    0.2072 O   0  0  0  0  0  0  0  0  0  0  0  0
   -5.4878   -6.7638   -1.7608 C   0  0  2  0  0  0  0  0  0  0  0  0
   -5.3002   -5.5474   -0.9922 N   0  3  0  0  0  0  0  0  0  0  0  0
   -6.9512   -7.1846   -1.6838 C   0  0  1  0  0  0  0  0  0  0  0  0
   -7.7551   -6.2493   -2.3860 O   0  0  0  0  0  0  0  0  0  0  0  0
   -7.2041   -8.5800   -2.2334 C   0  0  2  0  0  0  0  0  0  0  0  0
   -8.5387   -8.9827   -1.9626 O   0  0  0  0  0  0  0  0  0  0  0  0
   -6.4673  -10.9261   -2.2453 C   0  0  0  0  0  0  0  0  0  0  0  0
   -5.5552  -11.1428   -3.3533 N   0  3  0  0  0  0  0  0  0  0  0  0
   -1.7357   -8.5119    3.3149 C   0  0  2  0  0  0  0  0  0  0  0  0
   -1.5747   -9.3190    2.0418 C   0  0  0  0  0  0  0  0  0  0  0  0
   -2.8581   -9.2965    1.2323 C   0  0  1  0  0  0  0  0  0  0  0  0
   -3.2581   -7.8851    0.8003 C   0  0  2  0  0  0  0  0  0  0  0  0
   -3.2530   -6.9154    2.0046 C   0  0  1  0  0  0  0  0  0  0  0  0
   -2.0909   -7.0661    2.9951 C   0  0  1  0  0  0  0  0  0  0  0  0
   -0.4991   -8.5541    4.0718 N   0  3  0  0  0  0  0  0  0  0  0  0
   -2.7015  -10.1581    0.0767 N   0  3  0  0  0  0  0  0  0  0  0  0
   -3.3640   -5.5357    1.5767 O   0  0  0  0  0  0  0  0  0  0  0  0
   -2.3903   -6.3677    4.1992 O   0  0  0  0  0  0  0  0  0  0  0  0
  1  2  1  0  0  0  0
  3  2  1  1  0  0  0
  3  4  1  0  0  0  0
  3  5  1  0  0  0  0
  4  8  1  0  0  0  0
  5  6  1  0  0  0  0
  5 12  1  6  0  0  0
  6  7  1  6  0  0  0
  6  8  1  0  0  0  0
  8 41  1  1  0  0  0
  9 10  1  0  0  0  0
  9 17  1  0  0  0  0
  9 19  1  6  0  0  0
 10 11  1  0  0  0  0
 11 12  1  6  0  0  0
 11 13  1  0  0  0  0
 13 14  1  6  0  0  0
 13 15  1  0  0  0  0
 15 16  1  1  0  0  0
 15 17  1  0  0  0  0
 17 18  1  6  0  0  0
 19 20  1  0  0  0  0
 21 22  1  0  0  0  0
 21 29  1  0  0  0  0
 21 31  1  6  0  0  0
 22 23  1  0  0  0  0
 23 24  1  1  0  0  0
 23 25  1  0  0  0  0
 25 26  1  1  0  0  0
 25 27  1  0  0  0  0
 27 28  1  6  0  0  0
 27 29  1  0  0  0  0
 29 30  1  1  0  0  0
 31 32  1  0  0  0  0
 33 34  1  0  0  0  0
 33 38  1  0  0  0  0
 33 39  1  6  0  0  0
 34 35  1  0  0  0  0
 35 36  1  0  0  0  0
 35 40  1  6  0  0  0
 36 24  1  1  0  0  0
 36 37  1  0  0  0  0
 37 38  1  0  0  0  0
 37 41  1  6  0  0  0
 38 42  1  1  0  0  0
M  CHG  6  14   1  20   1  26   1  32   1  39   1  40   1
M  END
>  <CHROM.1>
-128.08841333,15.57701967,-85.49111194,-176.87350335,-96.37491900,-26.00005529
-163.02151927,-178.42637956,-175.91876809,-168.95561804,47.10080986,-24.96816983
107.35974102,-102.87923408,112.86657465,-176.76288767,58.12820328,-169.03234576
-45.29226221,80.64145823,-84.08016336,69.07653610,-3.80993132,-4.64483086
0.40897183,-1.38990794,0.80118359,3.12775961

>  <Name>


>  <RI>
0

>  <Rbt.Current_Directory>
/home/itssahil/PROJECTS/Mol_Feturizer/New_Systems/rnas/1qd3

>  <Rbt.Executable>
rbdock ($Id: //depot/dev/client3/rdock/2013.1/src/exe/rbdock.cxx#4 $)

>  <Rbt.Library>
libRbt.so (2013.1, Build901 2013/11/27)

>  <Rbt.Parameter_File>
/export/apps/rDock/src/rDock_2013.1_src/data/scripts/dock_solv.prm

>  <Rbt.Receptor>
prm/blind_docking_20.prm

>  <SCORE>
-51.441

>  <SCORE.INTER>
-43.7759

>  <SCORE.INTER.CONST>
1

>  <SCORE.INTER.POLAR>
-4.82704

>  <SCORE.INTER.ROT>
9

>  <SCORE.INTER.SOLV>
26.5992

>  <SCORE.INTER.VDW>
-31.5602

>  <SCORE.INTER.norm>
-1.04228

>  <SCORE.INTRA>
-7.77611

>  <SCORE.INTRA.DIHEDRAL>
8.36035

>  <SCORE.INTRA.DIHEDRAL.0>
40.6252

>  <SCORE.INTRA.POLAR>
-0.642631

>  <SCORE.INTRA.POLAR.0>
-1.20161

>  <SCORE.INTRA.REPUL>
-0.115675

>  <SCORE.INTRA.REPUL.0>
0.115675

>  <SCORE.INTRA.SOLV>
-6.12455

>  <SCORE.INTRA.SOLV.lig_0>
-154.895

>  <SCORE.INTRA.VDW>
-6.13069

>  <SCORE.INTRA.VDW.0>
2.2925

>  <SCORE.INTRA.norm>
-0.185146

>  <SCORE.RESTR>
0.111046

>  <SCORE.RESTR.CAVITY>
0.111046

>  <SCORE.RESTR.norm>
0.00264395

>  <SCORE.SYSTEM>
0

>  <SCORE.SYSTEM.CONST>
0

>  <SCORE.SYSTEM.DIHEDRAL>
0

>  <SCORE.SYSTEM.SOLV>
0

>  <SCORE.SYSTEM.norm>
0

>  <SCORE.heavy>
42

>  <SCORE.norm>
-1.22479

>  <RMSD>
15.253

$$$$

 OpenBabel11021811413D
libRbt.so/2013.1/901 2013/11/27
 42 45  0  0  0  0  0  0  0  0999 V2000
   -6.0877   -3.1366    2.4324 O   0  0  0  0  0  0  0  0  0  0  0  0
   -5.5187   -4.4333    2.3207 C   0  0  0  0  0  0  0  0  0  0  0  0
   -4.5312   -4.6656    3.4649 C   0  0  1  0  0  0  0  0  0  0  0  0
   -4.3559   -6.0746    3.7292 O   0  0  0  0  0  0  0  0  0  0  0  0
   -3.1405   -4.1224    3.1813 C   0  0  2  0  0  0  0  0  0  0  0  0
   -2.3238   -4.9109    4.1913 C   0  0  1  0  0  0  0  0  0  0  0  0
   -2.4983   -4.3549    5.4899 O   0  0  0  0  0  0  0  0  0  0  0  0
   -2.9802   -6.3050    4.1256 C   0  0  2  0  0  0  0  0  0  0  0  0
   -4.1093    0.2346    1.4948 C   0  0  2  0  0  0  0  0  0  0  0  0
   -3.6213   -0.5445    2.5977 O   0  0  0  0  0  0  0  0  0  0  0  0
   -3.5075   -1.9392    2.2620 C   0  0  2  0  0  0  0  0  0  0  0  0
   -3.0711   -2.7007    3.4071 O   0  0  0  0  0  0  0  0  0  0  0  0
   -2.5349   -2.1371    1.0867 C   0  0  2  0  0  0  0  0  0  0  0  0
   -1.1588   -2.0108    1.5303 N   0  3  0  0  0  0  0  0  0  0  0  0
   -2.8104   -1.1885   -0.0859 C   0  0  1  0  0  0  0  0  0  0  0  0
   -3.9258   -1.6629   -0.8233 O   0  0  0  0  0  0  0  0  0  0  0  0
   -3.0745    0.2417    0.3769 C   0  0  2  0  0  0  0  0  0  0  0  0
   -1.8648    0.8358    0.8330 O   0  0  0  0  0  0  0  0  0  0  0  0
   -4.4346    1.6566    1.9431 C   0  0  0  0  0  0  0  0  0  0  0  0
   -5.5232    2.2003    1.1529 N   0  3  0  0  0  0  0  0  0  0  0  0
   -5.8566   -7.5939   -1.4570 C   0  0  1  0  0  0  0  0  0  0  0  0
   -4.5300   -8.1412   -1.6073 O   0  0  0  0  0  0  0  0  0  0  0  0
   -3.5110   -7.3657   -0.9351 C   0  0  2  0  0  0  0  0  0  0  0  0
   -3.6743   -7.3856    0.5045 O   0  0  0  0  0  0  0  0  0  0  0  0
   -3.4857   -5.9283   -1.4689 C   0  0  2  0  0  0  0  0  0  0  0  0
   -2.6127   -5.1102   -0.6478 N   0  3  0  0  0  0  0  0  0  0  0  0
   -4.8787   -5.3090   -1.4904 C   0  0  1  0  0  0  0  0  0  0  0  0
   -4.8455   -4.0823   -2.2034 O   0  0  0  0  0  0  0  0  0  0  0  0
   -5.9312   -6.2201   -2.1031 C   0  0  2  0  0  0  0  0  0  0  0  0
   -7.2271   -5.6680   -1.9233 O   0  0  0  0  0  0  0  0  0  0  0  0
   -6.8739   -8.4907   -2.1569 C   0  0  0  0  0  0  0  0  0  0  0  0
   -7.7489   -9.1276   -1.1897 N   0  3  0  0  0  0  0  0  0  0  0  0
   -3.1164  -10.8388    2.9260 C   0  0  2  0  0  0  0  0  0  0  0  0
   -2.7858  -10.9432    1.4502 C   0  0  0  0  0  0  0  0  0  0  0  0
   -3.4086   -9.7914    0.6832 C   0  0  1  0  0  0  0  0  0  0  0  0
   -2.8928   -8.4278    1.1452 C   0  0  2  0  0  0  0  0  0  0  0  0
   -2.9912   -8.2907    2.6822 C   0  0  1  0  0  0  0  0  0  0  0  0
   -2.6005   -9.5272    3.5025 C   0  0  1  0  0  0  0  0  0  0  0  0
   -2.5151  -11.9526    3.6344 N   0  3  0  0  0  0  0  0  0  0  0  0
   -3.1582   -9.9780   -0.7327 N   0  3  0  0  0  0  0  0  0  0  0  0
   -2.2675   -7.1300    3.1598 O   0  0  0  0  0  0  0  0  0  0  0  0
   -3.0563   -9.3799    4.8432 O   0  0  0  0  0  0  0  0  0  0  0  0
  1  2  1  0  0  0  0
  3  2  1  6  0  0  0
  3  4  1  0  0  0  0
  3  5  1  0  0  0  0
  4  8  1  0  0  0  0
  5  6  1  0  0  0  0
  5 12  1  1  0  0  0
  6  7  1  1  0  0  0
  6  8  1  0  0  0  0
  8 41  1  6  0  0  0
  9 10  1  0  0  0  0
  9 17  1  0  0  0  0
  9 19  1  1  0  0  0
 10 11  1  0  0  0  0
 11 12  1  1  0  0  0
 11 13  1  0  0  0  0
 13 14  1  1  0  0  0
 13 15  1  0  0  0  0
 15 16  1  1  0  0  0
 15 17  1  0  0  0  0
 17 18  1  1  0  0  0
 19 20  1  0  0  0  0
 21 22  1  0  0  0  0
 21 29  1  0  0  0  0
 21 31  1  6  0  0  0
 22 23  1  0  0  0  0
 23 24  1  1  0  0  0
 23 25  1  0  0  0  0
 25 26  1  1  0  0  0
 25 27  1  0  0  0  0
 27 28  1  6  0  0  0
 27 29  1  0  0  0  0
 29 30  1  1  0  0  0
 31 32  1  0  0  0  0
 33 34  1  0  0  0  0
 33 38  1  0  0  0  0
 33 39  1  1  0  0  0
 34 35  1  0  0  0  0
 35 36  1  0  0  0  0
 35 40  1  6  0  0  0
 36 24  1  6  0  0  0
 36 37  1  0  0  0  0
 37 38  1  0  0  0  0
 37 41  1  1  0  0  0
 38 42  1  1  0  0  0
M  CHG  6  14   1  20   1  26   1  32   1  39   1  40   1
M  END
>  <CHROM.1>
177.16384737,156.15835240,-84.63638666,-174.88985627,-44.67964688,-149.25609583
171.01864742,-48.53855644,60.69394344,-58.87034473,163.86564396,112.48216556
93.62795024,-64.44559364,73.74052841,-63.52982378,-63.00143815,167.85312716
-55.19888277,-85.57286898,133.94972617,-55.50511259,-3.85113640,-5.24802154
1.22119905,-1.53567568,1.09992015,3.12132321

>  <Name>


>  <RI>
0

>  <Rbt.Current_Directory>
/home/itssahil/PROJECTS/Mol_Feturizer/New_Systems/rnas/1qd3

>  <Rbt.Executable>
rbdock ($Id: //depot/dev/client3/rdock/2013.1/src/exe/rbdock.cxx#4 $)

>  <Rbt.Library>
libRbt.so (2013.1, Build901 2013/11/27)

>  <Rbt.Parameter_File>
/export/apps/rDock/src/rDock_2013.1_src/data/scripts/dock_solv.prm

>  <Rbt.Receptor>
prm/blind_docking_100.prm

>  <SCORE>
-76.4568

>  <SCORE.INTER>
-57.546

>  <SCORE.INTER.CONST>
1

>  <SCORE.INTER.POLAR>
-7.49917

>  <SCORE.INTER.ROT>
9

>  <SCORE.INTER.SOLV>
38.6627

>  <SCORE.INTER.VDW>
-35.8543

>  <SCORE.INTER.norm>
-1.37014

>  <SCORE.INTRA>
-18.9289

>  <SCORE.INTRA.DIHEDRAL>
-11.4523

>  <SCORE.INTRA.DIHEDRAL.0>
40.6252

>  <SCORE.INTRA.POLAR>
-0.646696

>  <SCORE.INTRA.POLAR.0>
-1.20161

>  <SCORE.INTRA.REPUL>
-0.115675

>  <SCORE.INTRA.REPUL.0>
0.115675

>  <SCORE.INTRA.SOLV>
-6.73841

>  <SCORE.INTRA.SOLV.lig_0>
-154.895

>  <SCORE.INTRA.VDW>
-7.05634

>  <SCORE.INTRA.VDW.0>
2.2925

>  <SCORE.INTRA.norm>
-0.450687

>  <SCORE.RESTR>
0.0179985

>  <SCORE.RESTR.CAVITY>
0.0179985

>  <SCORE.RESTR.norm>
0.000428535

>  <SCORE.SYSTEM>
0

>  <SCORE.SYSTEM.CONST>
0

>  <SCORE.SYSTEM.DIHEDRAL>
0

>  <SCORE.SYSTEM.SOLV>
0

>  <SCORE.SYSTEM.norm>
0

>  <SCORE.heavy>
42

>  <SCORE.norm>
-1.8204

>  <RMSD>
15.267

$$$$

 OpenBabel11021811413D
libRbt.so/2013.1/901 2013/11/27
 42 45  0  0  0  0  0  0  0  0999 V2000
   -5.7744   -5.3320    0.8960 O   0  0  0  0  0  0  0  0  0  0  0  0
   -6.1373   -4.4662    1.9620 C   0  0  0  0  0  0  0  0  0  0  0  0
   -5.1638   -4.6443    3.1278 C   0  0  1  0  0  0  0  0  0  0  0  0
   -4.9550   -6.0413    3.4287 O   0  0  0  0  0  0  0  0  0  0  0  0
   -3.7837   -4.0698    2.8547 C   0  0  2  0  0  0  0  0  0  0  0  0
   -2.9636   -4.8115    3.8968 C   0  0  1  0  0  0  0  0  0  0  0  0
   -3.1756   -4.2303    5.1786 O   0  0  0  0  0  0  0  0  0  0  0  0
   -3.5806   -6.2244    3.8535 C   0  0  2  0  0  0  0  0  0  0  0  0
   -4.4089    0.1540    0.7872 C   0  0  2  0  0  0  0  0  0  0  0  0
   -4.2902   -0.5778    2.0168 O   0  0  0  0  0  0  0  0  0  0  0  0
   -3.8089   -1.9166    1.8013 C   0  0  2  0  0  0  0  0  0  0  0  0
   -3.7568   -2.6418    3.0475 O   0  0  0  0  0  0  0  0  0  0  0  0
   -2.4212   -1.8944    1.1378 C   0  0  2  0  0  0  0  0  0  0  0  0
   -1.3936   -1.5548    2.1048 N   0  3  0  0  0  0  0  0  0  0  0  0
   -2.3503   -0.9565   -0.0730 C   0  0  1  0  0  0  0  0  0  0  0  0
   -2.9636   -1.5814   -1.1893 O   0  0  0  0  0  0  0  0  0  0  0  0
   -3.0247    0.3862    0.1952 C   0  0  2  0  0  0  0  0  0  0  0  0
   -2.2321    1.1574    1.0906 O   0  0  0  0  0  0  0  0  0  0  0  0
   -5.1306    1.4788    1.0173 C   0  0  0  0  0  0  0  0  0  0  0  0
   -4.4226    2.2774    2.0001 N   0  3  0  0  0  0  0  0  0  0  0  0
   -5.8569   -6.9957   -1.5725 C   0  0  1  0  0  0  0  0  0  0  0  0
   -4.9712   -8.1209   -1.7492 O   0  0  0  0  0  0  0  0  0  0  0  0
   -3.8318   -8.0983   -0.8589 C   0  0  2  0  0  0  0  0  0  0  0  0
   -4.2229   -8.2489    0.5282 O   0  0  0  0  0  0  0  0  0  0  0  0
   -3.0095   -6.8205   -1.0658 C   0  0  2  0  0  0  0  0  0  0  0  0
   -1.9985   -6.7089   -0.0308 N   0  3  0  0  0  0  0  0  0  0  0  0
   -3.8873   -5.5741   -1.0453 C   0  0  1  0  0  0  0  0  0  0  0  0
   -3.1323   -4.4507   -1.4719 O   0  0  0  0  0  0  0  0  0  0  0  0
   -5.1324   -5.7026   -1.9093 C   0  0  2  0  0  0  0  0  0  0  0  0
   -5.9945   -4.5937   -1.7007 O   0  0  0  0  0  0  0  0  0  0  0  0
   -7.0502   -7.1171   -2.5160 C   0  0  0  0  0  0  0  0  0  0  0  0
   -7.9375   -8.1830   -2.0880 N   0  3  0  0  0  0  0  0  0  0  0  0
   -2.8384  -10.7944    3.6432 C   0  0  2  0  0  0  0  0  0  0  0  0
   -2.5374  -11.1925    2.2117 C   0  0  0  0  0  0  0  0  0  0  0  0
   -3.4236  -10.4243    1.2488 C   0  0  1  0  0  0  0  0  0  0  0  0
   -3.2103   -8.9120    1.3297 C   0  0  2  0  0  0  0  0  0  0  0  0
   -3.2905   -8.4194    2.7932 C   0  0  1  0  0  0  0  0  0  0  0  0
   -2.6101   -9.3028    3.8472 C   0  0  1  0  0  0  0  0  0  0  0  0
   -1.9835  -11.5459    4.5422 N   0  3  0  0  0  0  0  0  0  0  0  0
   -3.1806  -10.9019   -0.0985 N   0  3  0  0  0  0  0  0  0  0  0  0
   -2.8291   -7.0519    2.9197 O   0  0  0  0  0  0  0  0  0  0  0  0
   -3.0468   -8.9238    5.1482 O   0  0  0  0  0  0  0  0  0  0  0  0
  1  2  1  0  0  0  0
  3  2  1  6  0  0  0
  3  4  1  0  0  0  0
  3  5  1  0  0  0  0
  4  8  1  0  0  0  0
  5  6  1  0  0  0  0
  5 12  1  1  0  0  0
  6  7  1  1  0  0  0
  6  8  1  0  0  0  0
  8 41  1  6  0  0  0
  9 10  1  0  0  0  0
  9 17  1  0  0  0  0
  9 19  1  1  0  0  0
 10 11  1  0  0  0  0
 11 12  1  1  0  0  0
 11 13  1  0  0  0  0
 13 14  1  1  0  0  0
 13 15  1  0  0  0  0
 15 16  1  6  0  0  0
 15 17  1  0  0  0  0
 17 18  1  1  0  0  0
 19 20  1  0  0  0  0
 21 22  1  0  0  0  0
 21 29  1  0  0  0  0
 21 31  1  6  0  0  0
 22 23  1  0  0  0  0
 23 24  1  1  0  0  0
 23 25  1  0  0  0  0
 25 26  1  1  0  0  0
 25 27  1  0  0  0  0
 27 28  1  6  0  0  0
 27 29  1  0  0  0  0
 29 30  1  1  0  0  0
 31 32  1  0  0  0  0
 33 34  1  0  0  0  0
 33 38  1  0  0  0  0
 33 39  1  1  0  0  0
 34 35  1  0  0  0  0
 35 36  1  0  0  0  0
 35 40  1  6  0  0  0
 36 24  1  6  0  0  0
 36 37  1  0  0  0  0
 37 38  1  0  0  0  0
 37 41  1  6  0  0  0
 38 42  1  1  0  0  0
M  CHG  6  14   1  20   1  26   1  32   1  39   1  40   1
M  END
>  <CHROM.1>
106.99065626,-47.40717077,-101.55436771,-48.72965305,-63.98270661,58.13414620
157.87304976,75.68718966,-110.99065800,58.54178608,-81.62136025,71.24358056
149.58213096,-87.61024212,-173.72837783,-159.01474285,173.90571886,-27.79386960
-114.86394960,-51.00067092,141.45245250,-59.81007961,-3.84676513,-5.29778887
1.22714775,1.58903919,-1.15565441,-0.04391693

>  <Name>


>  <RI>
0

>  <Rbt.Current_Directory>
/home/itssahil/PROJECTS/Mol_Feturizer/New_Systems/rnas/1qd3

>  <Rbt.Executable>
rbdock ($Id: //depot/dev/client3/rdock/2013.1/src/exe/rbdock.cxx#4 $)

>  <Rbt.Library>
libRbt.so (2013.1, Build901 2013/11/27)

>  <Rbt.Parameter_File>
/export/apps/rDock/src/rDock_2013.1_src/data/scripts/dock_solv.prm

>  <Rbt.Receptor>
prm/blind_docking_60.prm

>  <SCORE>
-59.6473

>  <SCORE.INTER>
-47.6339

>  <SCORE.INTER.CONST>
1

>  <SCORE.INTER.POLAR>
-6.13764

>  <SCORE.INTER.ROT>
9

>  <SCORE.INTER.SOLV>
33.9888

>  <SCORE.INTER.VDW>
-32.2267

>  <SCORE.INTER.norm>
-1.13414

>  <SCORE.INTRA>
-13.4493

>  <SCORE.INTRA.DIHEDRAL>
2.49735

>  <SCORE.INTRA.DIHEDRAL.0>
40.6252

>  <SCORE.INTRA.POLAR>
-1.07182

>  <SCORE.INTRA.POLAR.0>
-1.20161

>  <SCORE.INTRA.REPUL>
-0.115675

>  <SCORE.INTRA.REPUL.0>
0.115675

>  <SCORE.INTRA.SOLV>
-2.46223

>  <SCORE.INTRA.SOLV.lig_0>
-154.895

>  <SCORE.INTRA.VDW>
-9.24427

>  <SCORE.INTRA.VDW.0>
2.2925

>  <SCORE.INTRA.norm>
-0.32022

>  <SCORE.RESTR>
1.4359

>  <SCORE.RESTR.CAVITY>
1.4359

>  <SCORE.RESTR.norm>
0.0341881

>  <SCORE.SYSTEM>
0

>  <SCORE.SYSTEM.CONST>
0

>  <SCORE.SYSTEM.DIHEDRAL>
0

>  <SCORE.SYSTEM.SOLV>
0

>  <SCORE.SYSTEM.norm>
0

>  <SCORE.heavy>
42

>  <SCORE.norm>
-1.42017

>  <RMSD>
15.271

$$$$

 OpenBabel11021811413D
libRbt.so/2013.1/901 2013/11/27
 42 45  0  0  0  0  0  0  0  0999 V2000
   -9.6571   -2.8522   -1.2443 O   0  0  0  0  0  0  0  0  0  0  0  0
   -9.2359   -3.9577   -2.0306 C   0  0  0  0  0  0  0  0  0  0  0  0
   -7.8443   -3.6854   -2.6031 C   0  0  1  0  0  0  0  0  0  0  0  0
   -7.0203   -2.9657   -1.6604 O   0  0  0  0  0  0  0  0  0  0  0  0
   -7.0739   -4.9503   -2.9436 C   0  0  2  0  0  0  0  0  0  0  0  0
   -5.6550   -4.4080   -2.9843 C   0  0  1  0  0  0  0  0  0  0  0  0
   -5.4431   -3.7063   -4.2044 O   0  0  0  0  0  0  0  0  0  0  0  0
   -5.6496   -3.4173   -1.8023 C   0  0  2  0  0  0  0  0  0  0  0  0
   -7.3893   -8.9344   -2.9690 C   0  0  2  0  0  0  0  0  0  0  0  0
   -7.5809   -7.5115   -2.9650 O   0  0  0  0  0  0  0  0  0  0  0  0
   -7.3461   -6.9338   -4.2619 C   0  0  2  0  0  0  0  0  0  0  0  0
   -7.4897   -5.4991   -4.2096 O   0  0  0  0  0  0  0  0  0  0  0  0
   -8.3084   -7.5294   -5.3038 C   0  0  2  0  0  0  0  0  0  0  0  0
   -9.6366   -6.9619   -5.1616 N   0  3  0  0  0  0  0  0  0  0  0  0
   -8.3707   -9.0606   -5.2564 C   0  0  1  0  0  0  0  0  0  0  0  0
   -7.2214   -9.5985   -5.8911 O   0  0  0  0  0  0  0  0  0  0  0  0
   -8.4616   -9.5918   -3.8285 C   0  0  2  0  0  0  0  0  0  0  0  0
   -9.7518   -9.3238   -3.2919 O   0  0  0  0  0  0  0  0  0  0  0  0
   -7.4202   -9.4853   -1.5462 C   0  0  0  0  0  0  0  0  0  0  0  0
   -6.3576  -10.4545   -1.3551 N   0  3  0  0  0  0  0  0  0  0  0  0
   -2.8895   -6.3928    2.8135 C   0  0  1  0  0  0  0  0  0  0  0  0
   -3.6670   -6.5387    1.6067 O   0  0  0  0  0  0  0  0  0  0  0  0
   -5.0903   -6.3996    1.8220 C   0  0  2  0  0  0  0  0  0  0  0  0
   -5.4482   -5.0592    2.2403 O   0  0  0  0  0  0  0  0  0  0  0  0
   -5.5894   -7.4443    2.8275 C   0  0  2  0  0  0  0  0  0  0  0  0
   -6.9651   -7.1623    3.1932 N   0  3  0  0  0  0  0  0  0  0  0  0
   -4.7314   -7.4710    4.0875 C   0  0  1  0  0  0  0  0  0  0  0  0
   -5.0775   -8.5980    4.8777 O   0  0  0  0  0  0  0  0  0  0  0  0
   -3.2388   -7.4981    3.7967 C   0  0  2  0  0  0  0  0  0  0  0  0
   -2.4989   -7.3324    4.9974 O   0  0  0  0  0  0  0  0  0  0  0  0
   -1.4020   -6.5103    2.4938 C   0  0  0  0  0  0  0  0  0  0  0  0
   -1.1564   -6.2506    1.0871 N   0  3  0  0  0  0  0  0  0  0  0  0
   -4.1163   -1.0897    1.4864 C   0  0  2  0  0  0  0  0  0  0  0  0
   -3.3536   -1.9154    2.5036 C   0  0  0  0  0  0  0  0  0  0  0  0
   -4.1758   -3.1142    2.9391 C   0  0  1  0  0  0  0  0  0  0  0  0
   -4.5058   -4.0555    1.7799 C   0  0  2  0  0  0  0  0  0  0  0  0
   -5.1072   -3.2757    0.5878 C   0  0  1  0  0  0  0  0  0  0  0  0
   -4.4564   -1.9254    0.2597 C   0  0  1  0  0  0  0  0  0  0  0  0
   -3.3122    0.0511    1.0914 N   0  3  0  0  0  0  0  0  0  0  0  0
   -3.4604   -3.8222    3.9828 N   0  3  0  0  0  0  0  0  0  0  0  0
   -5.1746   -4.0962   -0.6044 O   0  0  0  0  0  0  0  0  0  0  0  0
   -5.3036   -1.1805   -0.6088 O   0  0  0  0  0  0  0  0  0  0  0  0
  1  2  1  0  0  0  0
  3  2  1  1  0  0  0
  3  4  1  0  0  0  0
  3  5  1  0  0  0  0
  4  8  1  0  0  0  0
  5  6  1  0  0  0  0
  5 12  1  6  0  0  0
  6  7  1  6  0  0  0
  6  8  1  0  0  0  0
  8 41  1  1  0  0  0
  9 10  1  0  0  0  0
  9 17  1  0  0  0  0
  9 19  1  1  0  0  0
 10 11  1  0  0  0  0
 11 12  1  1  0  0  0
 11 13  1  0  0  0  0
 13 14  1  1  0  0  0
 13 15  1  0  0  0  0
 15 16  1  1  0  0  0
 15 17  1  0  0  0  0
 17 18  1  1  0  0  0
 19 20  1  0  0  0  0
 21 22  1  0  0  0  0
 21 29  1  0  0  0  0
 21 31  1  6  0  0  0
 22 23  1  0  0  0  0
 23 24  1  1  0  0  0
 23 25  1  0  0  0  0
 25 26  1  1  0  0  0
 25 27  1  0  0  0  0
 27 28  1  6  0  0  0
 27 29  1  0  0  0  0
 29 30  1  1  0  0  0
 31 32  1  0  0  0  0
 33 34  1  0  0  0  0
 33 38  1  0  0  0  0
 33 39  1  6  0  0  0
 34 35  1  0  0  0  0
 35 36  1  0  0  0  0
 35 40  1  1  0  0  0
 36 24  1  1  0  0  0
 36 37  1  0  0  0  0
 37 38  1  0  0  0  0
 37 41  1  6  0  0  0
 38 42  1  6  0  0  0
M  CHG  6  14   1  20   1  26   1  32   1  39   1  40   1
M  END
>  <CHROM.1>
-104.05993101,36.67239127,-150.20318367,-179.65785678,-63.63120483,-136.52521330
33.06984663,-163.26416256,61.12365838,45.38790987,150.19508393,20.59857060
26.46695878,-134.29976048,157.77521944,59.28870168,-64.69642360,11.20260213
175.91355510,-47.96306172,-176.23883867,-63.78065547,-5.80523066,-5.67337013
-0.37958039,3.01287075,1.01869034,2.91073733

>  <Name>


>  <RI>
0

>  <Rbt.Current_Directory>
/home/itssahil/PROJECTS/Mol_Feturizer/New_Systems/rnas/1qd3

>  <Rbt.Executable>
rbdock ($Id: //depot/dev/client3/rdock/2013.1/src/exe/rbdock.cxx#4 $)

>  <Rbt.Library>
libRbt.so (2013.1, Build901 2013/11/27)

>  <Rbt.Parameter_File>
/export/apps/rDock/src/rDock_2013.1_src/data/scripts/dock_solv.prm

>  <Rbt.Receptor>
prm/blind_docking_100.prm

>  <SCORE>
-55.7329

>  <SCORE.INTER>
-51.7853

>  <SCORE.INTER.CONST>
1

>  <SCORE.INTER.POLAR>
-6.45477

>  <SCORE.INTER.ROT>
9

>  <SCORE.INTER.SOLV>
34.243

>  <SCORE.INTER.VDW>
-34.0219

>  <SCORE.INTER.norm>
-1.23298

>  <SCORE.INTRA>
-4.33598

>  <SCORE.INTRA.DIHEDRAL>
1.65304

>  <SCORE.INTRA.DIHEDRAL.0>
40.6252

>  <SCORE.INTRA.POLAR>
0.927283

>  <SCORE.INTRA.POLAR.0>
-1.20161

>  <SCORE.INTRA.REPUL>
-0.112566

>  <SCORE.INTRA.REPUL.0>
0.115675

>  <SCORE.INTRA.SOLV>
-10.1878

>  <SCORE.INTRA.SOLV.lig_0>
-154.895

>  <SCORE.INTRA.VDW>
-2.65854

>  <SCORE.INTRA.VDW.0>
2.2925

>  <SCORE.INTRA.norm>
-0.103238

>  <SCORE.RESTR>
0.388392

>  <SCORE.RESTR.CAVITY>
0.388392

>  <SCORE.RESTR.norm>
0.00924742

>  <SCORE.SYSTEM>
0

>  <SCORE.SYSTEM.CONST>
0

>  <SCORE.SYSTEM.DIHEDRAL>
0

>  <SCORE.SYSTEM.SOLV>
0

>  <SCORE.SYSTEM.norm>
0

>  <SCORE.heavy>
42

>  <SCORE.norm>
-1.32697

>  <RMSD>
15.288

$$$$

 OpenBabel11021811413D
libRbt.so/2013.1/901 2013/11/27
 42 45  0  0  0  0  0  0  0  0999 V2000
   -3.6926   -4.8117    5.0203 O   0  0  0  0  0  0  0  0  0  0  0  0
   -3.6147   -4.1472    3.7673 C   0  0  0  0  0  0  0  0  0  0  0  0
   -2.2402   -4.3842    3.1403 C   0  0  1  0  0  0  0  0  0  0  0  0
   -1.8931   -5.7860    3.1504 O   0  0  0  0  0  0  0  0  0  0  0  0
   -2.1569   -3.9485    1.6868 C   0  0  2  0  0  0  0  0  0  0  0  0
   -0.9396   -4.7355    1.2310 C   0  0  1  0  0  0  0  0  0  0  0  0
    0.2456   -4.1028    1.7010 O   0  0  0  0  0  0  0  0  0  0  0  0
   -1.1342   -6.0851    1.9515 C   0  0  2  0  0  0  0  0  0  0  0  0
   -4.4925    0.1065    1.3500 C   0  0  2  0  0  0  0  0  0  0  0  0
   -3.2913   -0.5700    1.7509 O   0  0  0  0  0  0  0  0  0  0  0  0
   -3.1517   -1.8472    1.1027 C   0  0  2  0  0  0  0  0  0  0  0  0
   -1.9669   -2.5246    1.5706 O   0  0  0  0  0  0  0  0  0  0  0  0
   -3.1017   -1.6778   -0.4254 C   0  0  2  0  0  0  0  0  0  0  0  0
   -1.8016   -1.1897   -0.8471 N   0  3  0  0  0  0  0  0  0  0  0  0
   -4.2159   -0.7734   -0.9653 C   0  0  1  0  0  0  0  0  0  0  0  0
   -5.4343   -1.4993   -1.0041 O   0  0  0  0  0  0  0  0  0  0  0  0
   -4.3981    0.4859   -0.1223 C   0  0  2  0  0  0  0  0  0  0  0  0
   -3.3045    1.3720   -0.3306 O   0  0  0  0  0  0  0  0  0  0  0  0
   -4.7287    1.3412    2.2151 C   0  0  0  0  0  0  0  0  0  0  0  0
   -5.7091    2.2134    1.5962 N   0  3  0  0  0  0  0  0  0  0  0  0
   -6.2890   -9.2774   -1.7971 C   0  0  1  0  0  0  0  0  0  0  0  0
   -4.8692   -9.1651   -2.0286 O   0  0  0  0  0  0  0  0  0  0  0  0
   -4.2237   -8.1970   -1.1698 C   0  0  2  0  0  0  0  0  0  0  0  0
   -4.2624   -8.5948    0.2230 O   0  0  0  0  0  0  0  0  0  0  0  0
   -4.8395   -6.8061   -1.3648 C   0  0  2  0  0  0  0  0  0  0  0  0
   -4.3336   -5.8944   -0.3555 N   0  3  0  0  0  0  0  0  0  0  0  0
   -6.3616   -6.8460   -1.2862 C   0  0  1  0  0  0  0  0  0  0  0  0
   -6.8945   -5.5984   -1.7030 O   0  0  0  0  0  0  0  0  0  0  0  0
   -6.9765   -7.9605   -2.1186 C   0  0  2  0  0  0  0  0  0  0  0  0
   -8.3684   -8.0619   -1.8563 O   0  0  0  0  0  0  0  0  0  0  0  0
   -6.8842  -10.3456   -2.7101 C   0  0  0  0  0  0  0  0  0  0  0  0
   -8.0678  -10.9334   -2.1100 N   0  3  0  0  0  0  0  0  0  0  0  0
   -1.6005  -10.2085    3.1230 C   0  0  2  0  0  0  0  0  0  0  0  0
   -2.0486  -11.1090    1.9889 C   0  0  0  0  0  0  0  0  0  0  0  0
   -3.2715  -10.5300    1.3018 C   0  0  1  0  0  0  0  0  0  0  0  0
   -3.0054   -9.1571    0.6828 C   0  0  2  0  0  0  0  0  0  0  0  0
   -2.3466   -8.2059    1.7085 C   0  0  1  0  0  0  0  0  0  0  0  0
   -1.2617   -8.8173    2.6049 C   0  0  1  0  0  0  0  0  0  0  0  0
   -0.4357  -10.7864    3.7658 N   0  3  0  0  0  0  0  0  0  0  0  0
   -3.7312  -11.4638    0.2923 N   0  3  0  0  0  0  0  0  0  0  0  0
   -1.8457   -7.0040    1.0734 O   0  0  0  0  0  0  0  0  0  0  0  0
   -0.9961   -7.9483    3.7010 O   0  0  0  0  0  0  0  0  0  0  0  0
  1  2  1  0  0  0  0
  3  2  1  6  0  0  0
  3  4  1  0  0  0  0
  3  5  1  0  0  0  0
  4  8  1  0  0  0  0
  5  6  1  0  0  0  0
  5 12  1  1  0  0  0
  6  7  1  1  0  0  0
  6  8  1  0  0  0  0
  8 41  1  6  0  0  0
  9 10  1  0  0  0  0
  9 17  1  0  0  0  0
  9 19  1  1  0  0  0
 10 11  1  0  0  0  0
 11 12  1  1  0  0  0
 11 13  1  0  0  0  0
 13 14  1  1  0  0  0
 13 15  1  0  0  0  0
 15 16  1  1  0  0  0
 15 17  1  0  0  0  0
 17 18  1  1  0  0  0
 19 20  1  0  0  0  0
 21 22  1  0  0  0  0
 21 29  1  0  0  0  0
 21 31  1  6  0  0  0
 22 23  1  0  0  0  0
 23 24  1  1  0  0  0
 23 25  1  0  0  0  0
 25 26  1  1  0  0  0
 25 27  1  0  0  0  0
 27 28  1  6  0  0  0
 27 29  1  0  0  0  0
 29 30  1  1  0  0  0
 31 32  1  0  0  0  0
 33 34  1  0  0  0  0
 33 38  1  0  0  0  0
 33 39  1  6  0  0  0
 34 35  1  0  0  0  0
 35 36  1  0  0  0  0
 35 40  1  6  0  0  0
 36 24  1  1  0  0  0
 36 37  1  0  0  0  0
 37 38  1  0  0  0  0
 37 41  1  6  0  0  0
 38 42  1  1  0  0  0
M  CHG  6  14   1  20   1  26   1  32   1  39   1  40   1
M  END
>  <CHROM.1>
-59.91756893,49.42239956,-107.56771718,173.12060248,-50.64334713,164.41631922
143.29233522,64.37817810,-177.22549131,48.43782073,69.24819633,152.45067100
101.46900634,-126.14062867,150.21287088,-53.72202453,-77.93506058,-60.61521126
-64.45429699,-175.34117891,-176.37358445,107.49778626,-3.67932087,-5.58468824
0.70550704,-1.50711831,0.72453984,-3.11543304

>  <Name>


>  <RI>
0

>  <Rbt.Current_Directory>
/home/itssahil/PROJECTS/Mol_Feturizer/New_Systems/rnas/1qd3

>  <Rbt.Executable>
rbdock ($Id: //depot/dev/client3/rdock/2013.1/src/exe/rbdock.cxx#4 $)

>  <Rbt.Library>
libRbt.so (2013.1, Build901 2013/11/27)

>  <Rbt.Parameter_File>
/export/apps/rDock/src/rDock_2013.1_src/data/scripts/dock_solv.prm

>  <Rbt.Receptor>
prm/blind_docking_20.prm

>  <SCORE>
-54.5796

>  <SCORE.INTER>
-47.3078

>  <SCORE.INTER.CONST>
1

>  <SCORE.INTER.POLAR>
-6.43512

>  <SCORE.INTER.ROT>
9

>  <SCORE.INTER.SOLV>
33.4001

>  <SCORE.INTER.VDW>
-30.8215

>  <SCORE.INTER.norm>
-1.12638

>  <SCORE.INTRA>
-8.76775

>  <SCORE.INTRA.DIHEDRAL>
0.580184

>  <SCORE.INTRA.DIHEDRAL.0>
40.6252

>  <SCORE.INTRA.POLAR>
-0.00562706

>  <SCORE.INTRA.POLAR.0>
-1.20161

>  <SCORE.INTRA.REPUL>
-0.10607

>  <SCORE.INTRA.REPUL.0>
0.115675

>  <SCORE.INTRA.SOLV>
-5.79516

>  <SCORE.INTRA.SOLV.lig_0>
-154.895

>  <SCORE.INTRA.VDW>
-5.61078

>  <SCORE.INTRA.VDW.0>
2.2925

>  <SCORE.INTRA.norm>
-0.208756

>  <SCORE.RESTR>
1.49591

>  <SCORE.RESTR.CAVITY>
1.49591

>  <SCORE.RESTR.norm>
0.035617

>  <SCORE.SYSTEM>
0

>  <SCORE.SYSTEM.CONST>
0

>  <SCORE.SYSTEM.DIHEDRAL>
0

>  <SCORE.SYSTEM.SOLV>
0

>  <SCORE.SYSTEM.norm>
0

>  <SCORE.heavy>
42

>  <SCORE.norm>
-1.29952

>  <RMSD>
15.298

$$$$

 OpenBabel11021811413D
libRbt.so/2013.1/901 2013/11/27
 42 45  0  0  0  0  0  0  0  0999 V2000
   -9.1193   -3.0539   -1.0127 O   0  0  0  0  0  0  0  0  0  0  0  0
   -8.5955   -2.8185   -2.3119 C   0  0  0  0  0  0  0  0  0  0  0  0
   -7.2414   -3.5138   -2.4580 C   0  0  1  0  0  0  0  0  0  0  0  0
   -6.2228   -2.8484   -1.6798 O   0  0  0  0  0  0  0  0  0  0  0  0
   -7.2493   -4.9565   -1.9805 C   0  0  2  0  0  0  0  0  0  0  0  0
   -5.7618   -5.1883   -1.7745 C   0  0  1  0  0  0  0  0  0  0  0  0
   -5.1284   -5.3941   -3.0324 O   0  0  0  0  0  0  0  0  0  0  0  0
   -5.3023   -3.8460   -1.1698 C   0  0  2  0  0  0  0  0  0  0  0  0
   -8.5928   -9.1648   -1.6746 C   0  0  2  0  0  0  0  0  0  0  0  0
   -8.7861   -7.7947   -2.0580 O   0  0  0  0  0  0  0  0  0  0  0  0
   -7.6028   -7.2305   -2.6515 C   0  0  2  0  0  0  0  0  0  0  0  0
   -7.8118   -5.8392   -2.9712 O   0  0  0  0  0  0  0  0  0  0  0  0
   -7.2018   -8.0140   -3.9132 C   0  0  2  0  0  0  0  0  0  0  0  0
   -8.0662   -7.6723   -5.0278 N   0  3  0  0  0  0  0  0  0  0  0  0
   -7.1808   -9.5315   -3.6953 C   0  0  1  0  0  0  0  0  0  0  0  0
   -5.9987   -9.8908   -2.9979 O   0  0  0  0  0  0  0  0  0  0  0  0
   -8.4006  -10.0214   -2.9196 C   0  0  2  0  0  0  0  0  0  0  0  0
   -9.5588   -9.9549   -3.7434 O   0  0  0  0  0  0  0  0  0  0  0  0
   -9.7750   -9.6641   -0.8488 C   0  0  0  0  0  0  0  0  0  0  0  0
  -11.0240   -9.1877   -1.4126 N   0  3  0  0  0  0  0  0  0  0  0  0
   -2.8674   -8.0828    2.6175 C   0  0  1  0  0  0  0  0  0  0  0  0
   -3.2675   -7.5219    1.3496 O   0  0  0  0  0  0  0  0  0  0  0  0
   -4.0440   -6.3088    1.4794 C   0  0  2  0  0  0  0  0  0  0  0  0
   -3.2677   -5.2248    2.0470 O   0  0  0  0  0  0  0  0  0  0  0  0
   -5.3152   -6.5658    2.2977 C   0  0  2  0  0  0  0  0  0  0  0  0
   -5.9734   -5.3081    2.5987 N   0  3  0  0  0  0  0  0  0  0  0  0
   -5.0105   -7.2964    3.6007 C   0  0  1  0  0  0  0  0  0  0  0  0
   -6.2223   -7.7198    4.2060 O   0  0  0  0  0  0  0  0  0  0  0  0
   -4.0930   -8.4953    3.4162 C   0  0  2  0  0  0  0  0  0  0  0  0
   -3.6990   -9.0141    4.6780 O   0  0  0  0  0  0  0  0  0  0  0  0
   -2.0197   -9.3315    2.3920 C   0  0  0  0  0  0  0  0  0  0  0  0
   -2.2634   -9.8871    1.0734 N   0  3  0  0  0  0  0  0  0  0  0  0
   -2.7805   -1.1690    0.8585 C   0  0  2  0  0  0  0  0  0  0  0  0
   -1.5838   -2.0927    0.7452 C   0  0  0  0  0  0  0  0  0  0  0  0
   -1.8033   -3.3501    1.5660 C   0  0  1  0  0  0  0  0  0  0  0  0
   -3.0158   -4.1558    1.0976 C   0  0  2  0  0  0  0  0  0  0  0  0
   -4.2659   -3.2541    0.9755 C   0  0  1  0  0  0  0  0  0  0  0  0
   -4.0447   -1.8622    0.3688 C   0  0  1  0  0  0  0  0  0  0  0  0
   -2.5433    0.0257    0.0709 N   0  3  0  0  0  0  0  0  0  0  0  0
   -0.6023   -4.1609    1.5162 N   0  3  0  0  0  0  0  0  0  0  0  0
   -5.3440   -3.9309    0.2837 O   0  0  0  0  0  0  0  0  0  0  0  0
   -5.1759   -1.0377    0.6291 O   0  0  0  0  0  0  0  0  0  0  0  0
  1  2  1  0  0  0  0
  3  2  1  1  0  0  0
  3  4  1  0  0  0  0
  3  5  1  0  0  0  0
  4  8  1  0  0  0  0
  5  6  1  0  0  0  0
  5 12  1  6  0  0  0
  6  7  1  6  0  0  0
  6  8  1  0  0  0  0
  8 41  1  1  0  0  0
  9 10  1  0  0  0  0
  9 17  1  0  0  0  0
  9 19  1  6  0  0  0
 10 11  1  0  0  0  0
 11 12  1  6  0  0  0
 11 13  1  0  0  0  0
 13 14  1  6  0  0  0
 13 15  1  0  0  0  0
 15 16  1  1  0  0  0
 15 17  1  0  0  0  0
 17 18  1  6  0  0  0
 19 20  1  0  0  0  0
 21 22  1  0  0  0  0
 21 29  1  0  0  0  0
 21 31  1  6  0  0  0
 22 23  1  0  0  0  0
 23 24  1  1  0  0  0
 23 25  1  0  0  0  0
 25 26  1  1  0  0  0
 25 27  1  0  0  0  0
 27 28  1  6  0  0  0
 27 29  1  0  0  0  0
 29 30  1  1  0  0  0
 31 32  1  0  0  0  0
 33 34  1  0  0  0  0
 33 38  1  0  0  0  0
 33 39  1  6  0  0  0
 34 35  1  0  0  0  0
 35 36  1  0  0  0  0
 35 40  1  6  0  0  0
 36 24  1  1  0  0  0
 36 37  1  0  0  0  0
 37 38  1  0  0  0  0
 37 41  1  6  0  0  0
 38 42  1  1  0  0  0
M  CHG  6  14   1  20   1  26   1  32   1  39   1  40   1
M  END
>  <CHROM.1>
51.85011098,-71.40807107,169.08538704,-58.67896372,-100.95422944,41.57099179
99.56522501,-172.52874029,58.50894673,-84.00114097,-51.15230400,-21.55961348
112.02177170,-158.81016572,61.64601232,57.40884972,-63.14298359,-159.56421431
-167.22007489,56.17779195,-85.40142971,-59.27328866,-5.59525609,-5.99971994
-0.23165586,2.75124839,0.78186121,2.84409821

>  <Name>


>  <RI>
0

>  <Rbt.Current_Directory>
/home/itssahil/PROJECTS/Mol_Feturizer/New_Systems/rnas/1qd3

>  <Rbt.Executable>
rbdock ($Id: //depot/dev/client3/rdock/2013.1/src/exe/rbdock.cxx#4 $)

>  <Rbt.Library>
libRbt.so (2013.1, Build901 2013/11/27)

>  <Rbt.Parameter_File>
/export/apps/rDock/src/rDock_2013.1_src/data/scripts/dock_solv.prm

>  <Rbt.Receptor>
prm/blind_docking_60.prm

>  <SCORE>
-52.8461

>  <SCORE.INTER>
-39.5304

>  <SCORE.INTER.CONST>
1

>  <SCORE.INTER.POLAR>
-5.69886

>  <SCORE.INTER.ROT>
9

>  <SCORE.INTER.SOLV>
33.0471

>  <SCORE.INTER.VDW>
-27.9731

>  <SCORE.INTER.norm>
-0.941201

>  <SCORE.INTRA>
-14.0916

>  <SCORE.INTRA.DIHEDRAL>
-5.67185

>  <SCORE.INTRA.DIHEDRAL.0>
40.6252

>  <SCORE.INTRA.POLAR>
0.193332

>  <SCORE.INTRA.POLAR.0>
-1.20161

>  <SCORE.INTRA.REPUL>
-0.115675

>  <SCORE.INTRA.REPUL.0>
0.115675

>  <SCORE.INTRA.SOLV>
-8.82731

>  <SCORE.INTRA.SOLV.lig_0>
-154.895

>  <SCORE.INTRA.VDW>
-6.92099

>  <SCORE.INTRA.VDW.0>
2.2925

>  <SCORE.INTRA.norm>
-0.335515

>  <SCORE.RESTR>
0.776012

>  <SCORE.RESTR.CAVITY>
0.776012

>  <SCORE.RESTR.norm>
0.0184765

>  <SCORE.SYSTEM>
0

>  <SCORE.SYSTEM.CONST>
0

>  <SCORE.SYSTEM.DIHEDRAL>
0

>  <SCORE.SYSTEM.SOLV>
0

>  <SCORE.SYSTEM.norm>
0

>  <SCORE.heavy>
42

>  <SCORE.norm>
-1.25824

>  <RMSD>
15.317

$$$$

 OpenBabel11021811413D
libRbt.so/2013.1/901 2013/11/27
 42 45  0  0  0  0  0  0  0  0999 V2000
   -1.8408   -2.4467   -0.5133 O   0  0  0  0  0  0  0  0  0  0  0  0
   -2.9800   -1.7301   -0.0590 C   0  0  0  0  0  0  0  0  0  0  0  0
   -4.0599   -1.7343   -1.1418 C   0  0  1  0  0  0  0  0  0  0  0  0
   -4.1756   -3.0330   -1.7629 O   0  0  0  0  0  0  0  0  0  0  0  0
   -5.4458   -1.4043   -0.6130 C   0  0  2  0  0  0  0  0  0  0  0  0
   -6.3094   -1.9639   -1.7310 C   0  0  1  0  0  0  0  0  0  0  0  0
   -6.2975   -1.0721   -2.8402 O   0  0  0  0  0  0  0  0  0  0  0  0
   -5.5674   -3.2655   -2.0970 C   0  0  2  0  0  0  0  0  0  0  0  0
   -3.0165    2.5188   -0.9811 C   0  0  2  0  0  0  0  0  0  0  0  0
   -4.2758    1.8422   -1.1152 O   0  0  0  0  0  0  0  0  0  0  0  0
   -4.3713    0.7054   -0.2380 C   0  0  2  0  0  0  0  0  0  0  0  0
   -5.6223    0.0154   -0.4393 O   0  0  0  0  0  0  0  0  0  0  0  0
   -4.2313    1.1400    1.2310 C   0  0  2  0  0  0  0  0  0  0  0  0
   -5.4569    1.7566    1.7045 N   0  3  0  0  0  0  0  0  0  0  0  0
   -3.0354    2.0692    1.4701 C   0  0  1  0  0  0  0  0  0  0  0  0
   -1.8418    1.3026    1.4985 O   0  0  0  0  0  0  0  0  0  0  0  0
   -2.9217    3.1524    0.4009 C   0  0  2  0  0  0  0  0  0  0  0  0
   -3.9571    4.1134    0.5713 O   0  0  0  0  0  0  0  0  0  0  0  0
   -2.8526    3.5715   -2.0738 C   0  0  0  0  0  0  0  0  0  0  0  0
   -1.4670    3.6511   -2.4967 N   0  3  0  0  0  0  0  0  0  0  0  0
   -2.8582   -7.4426    1.5989 C   0  0  1  0  0  0  0  0  0  0  0  0
   -4.1569   -8.0708    1.6233 O   0  0  0  0  0  0  0  0  0  0  0  0
   -5.2061   -7.2386    1.0774 C   0  0  2  0  0  0  0  0  0  0  0  0
   -5.0252   -6.9957   -0.3397 O   0  0  0  0  0  0  0  0  0  0  0  0
   -5.3107   -5.9211    1.8551 C   0  0  2  0  0  0  0  0  0  0  0  0
   -6.2145   -5.0135    1.1731 N   0  3  0  0  0  0  0  0  0  0  0  0
   -3.9513   -5.2492    2.0138 C   0  0  1  0  0  0  0  0  0  0  0  0
   -4.0553   -4.1709    2.9307 O   0  0  0  0  0  0  0  0  0  0  0  0
   -2.8611   -6.2027    2.4781 C   0  0  2  0  0  0  0  0  0  0  0  0
   -1.5929   -5.5659    2.4248 O   0  0  0  0  0  0  0  0  0  0  0  0
   -1.8049   -8.3991    2.1507 C   0  0  0  0  0  0  0  0  0  0  0  0
   -1.7881   -9.6374    1.3938 N   0  3  0  0  0  0  0  0  0  0  0  0
   -7.5282   -6.9449   -3.7795 C   0  0  2  0  0  0  0  0  0  0  0  0
   -7.8077   -7.9833   -2.7109 C   0  0  0  0  0  0  0  0  0  0  0  0
   -6.6149   -8.1262   -1.7837 C   0  0  1  0  0  0  0  0  0  0  0  0
   -6.2819   -6.8282   -1.0469 C   0  0  2  0  0  0  0  0  0  0  0  0
   -6.1770   -5.6427   -2.0341 C   0  0  1  0  0  0  0  0  0  0  0  0
   -7.2287   -5.5910   -3.1502 C   0  0  1  0  0  0  0  0  0  0  0  0
   -8.6796   -6.8318   -4.6544 N   0  3  0  0  0  0  0  0  0  0  0  0
   -6.8772   -9.1952   -0.8399 N   0  3  0  0  0  0  0  0  0  0  0  0
   -6.1306   -4.3733   -1.3374 O   0  0  0  0  0  0  0  0  0  0  0  0
   -6.8170   -4.6736   -4.1581 O   0  0  0  0  0  0  0  0  0  0  0  0
  1  2  1  0  0  0  0
  3  2  1  1  0  0  0
  3  4  1  0  0  0  0
  3  5  1  0  0  0  0
  4  8  1  0  0  0  0
  5  6  1  0  0  0  0
  5 12  1  6  0  0  0
  6  7  1  6  0  0  0
  6  8  1  0  0  0  0
  8 41  1  1  0  0  0
  9 10  1  0  0  0  0
  9 17  1  0  0  0  0
  9 19  1  6  0  0  0
 10 11  1  0  0  0  0
 11 12  1  1  0  0  0
 11 13  1  0  0  0  0
 13 14  1  6  0  0  0
 13 15  1  0  0  0  0
 15 16  1  6  0  0  0
 15 17  1  0  0  0  0
 17 18  1  1  0  0  0
 19 20  1  0  0  0  0
 21 22  1  0  0  0  0
 21 29  1  0  0  0  0
 21 31  1  1  0  0  0
 22 23  1  0  0  0  0
 23 24  1  6  0  0  0
 23 25  1  0  0  0  0
 25 26  1  6  0  0  0
 25 27  1  0  0  0  0
 27 28  1  1  0  0  0
 27 29  1  0  0  0  0
 29 30  1  6  0  0  0
 31 32  1  0  0  0  0
 33 34  1  0  0  0  0
 33 38  1  0  0  0  0
 33 39  1  6  0  0  0
 34 35  1  0  0  0  0
 35 36  1  0  0  0  0
 35 40  1  1  0  0  0
 36 24  1  6  0  0  0
 36 37  1  0  0  0  0
 37 38  1  0  0  0  0
 37 41  1  1  0  0  0
 38 42  1  6  0  0  0
M  CHG  6  14   1  20   1  26   1  32   1  39   1  40   1
M  END
>  <CHROM.1>
56.13575481,42.14431385,-25.05264761,179.45071678,-98.39492867,-144.40837832
130.55664550,45.44246223,49.72527215,46.61508788,53.88054822,57.39490250
149.06491171,-101.62531031,-64.45767180,-61.06593627,-172.14031114,-29.07530757
-52.89057202,86.36452186,159.07318034,-60.80111994,-4.62112194,-3.24054601
-0.39548867,-1.26767992,0.85115687,2.93266193

>  <Name>


>  <RI>
0

>  <Rbt.Current_Directory>
/home/itssahil/PROJECTS/Mol_Feturizer/New_Systems/rnas/1qd3

>  <Rbt.Executable>
rbdock ($Id: //depot/dev/client3/rdock/2013.1/src/exe/rbdock.cxx#4 $)

>  <Rbt.Library>
libRbt.so (2013.1, Build901 2013/11/27)

>  <Rbt.Parameter_File>
/export/apps/rDock/src/rDock_2013.1_src/data/scripts/dock_solv.prm

>  <Rbt.Receptor>
prm/blind_docking_100.prm

>  <SCORE>
-45.7044

>  <SCORE.INTER>
-39.8878

>  <SCORE.INTER.CONST>
1

>  <SCORE.INTER.POLAR>
-5.87061

>  <SCORE.INTER.ROT>
9

>  <SCORE.INTER.SOLV>
35.0158

>  <SCORE.INTER.VDW>
-28.2951

>  <SCORE.INTER.norm>
-0.949708

>  <SCORE.INTRA>
-8.65653

>  <SCORE.INTRA.DIHEDRAL>
-1.4972

>  <SCORE.INTRA.DIHEDRAL.0>
40.6252

>  <SCORE.INTRA.POLAR>
-0.10858

>  <SCORE.INTRA.POLAR.0>
-1.20161

>  <SCORE.INTRA.REPUL>
-0.115675

>  <SCORE.INTRA.REPUL.0>
0.115675

>  <SCORE.INTRA.SOLV>
-8.46385

>  <SCORE.INTRA.SOLV.lig_0>
-154.895

>  <SCORE.INTRA.VDW>
-2.72845

>  <SCORE.INTRA.VDW.0>
2.2925

>  <SCORE.INTRA.norm>
-0.206108

>  <SCORE.RESTR>
2.83992

>  <SCORE.RESTR.CAVITY>
2.83992

>  <SCORE.RESTR.norm>
0.0676172

>  <SCORE.SYSTEM>
0

>  <SCORE.SYSTEM.CONST>
0

>  <SCORE.SYSTEM.DIHEDRAL>
0

>  <SCORE.SYSTEM.SOLV>
0

>  <SCORE.SYSTEM.norm>
0

>  <SCORE.heavy>
42

>  <SCORE.norm>
-1.0882

>  <RMSD>
15.333

$$$$

 OpenBabel11021811413D
libRbt.so/2013.1/901 2013/11/27
 42 45  0  0  0  0  0  0  0  0999 V2000
   -5.9861   -2.8345   -1.3554 O   0  0  0  0  0  0  0  0  0  0  0  0
   -5.2904   -3.5225   -2.3851 C   0  0  0  0  0  0  0  0  0  0  0  0
   -5.1481   -4.9997   -2.0160 C   0  0  1  0  0  0  0  0  0  0  0  0
   -4.3990   -5.1654   -0.7925 O   0  0  0  0  0  0  0  0  0  0  0  0
   -6.4794   -5.6942   -1.7826 C   0  0  2  0  0  0  0  0  0  0  0  0
   -6.0248   -6.9027   -0.9814 C   0  0  1  0  0  0  0  0  0  0  0  0
   -5.4430   -7.8661   -1.8527 O   0  0  0  0  0  0  0  0  0  0  0  0
   -4.9389   -6.2993   -0.0674 C   0  0  2  0  0  0  0  0  0  0  0  0
   -7.9875   -3.2878   -5.2337 C   0  0  2  0  0  0  0  0  0  0  0  0
   -7.2430   -4.3924   -4.6979 O   0  0  0  0  0  0  0  0  0  0  0  0
   -7.9101   -4.9961   -3.5748 C   0  0  2  0  0  0  0  0  0  0  0  0
   -7.1094   -6.0631   -3.0252 O   0  0  0  0  0  0  0  0  0  0  0  0
   -9.2950   -5.5248   -3.9860 C   0  0  2  0  0  0  0  0  0  0  0  0
   -9.1725   -6.7650   -4.7299 N   0  3  0  0  0  0  0  0  0  0  0  0
  -10.1163   -4.5015   -4.7792 C   0  0  1  0  0  0  0  0  0  0  0  0
  -10.6582   -3.5400   -3.8878 O   0  0  0  0  0  0  0  0  0  0  0  0
   -9.2854   -3.7965   -5.8479 C   0  0  2  0  0  0  0  0  0  0  0  0
   -9.0034   -4.6947   -6.9147 O   0  0  0  0  0  0  0  0  0  0  0  0
   -7.1579   -2.5304   -6.2666 C   0  0  0  0  0  0  0  0  0  0  0  0
   -7.6425   -2.8056   -7.6061 N   0  3  0  0  0  0  0  0  0  0  0  0
   -2.7907   -9.0641    1.3946 C   0  0  1  0  0  0  0  0  0  0  0  0
   -3.9637   -8.2249    1.4365 O   0  0  0  0  0  0  0  0  0  0  0  0
   -4.0496   -7.4198    2.6348 C   0  0  2  0  0  0  0  0  0  0  0  0
   -2.9855   -6.4390    2.7080 O   0  0  0  0  0  0  0  0  0  0  0  0
   -4.0681   -8.3098    3.8836 C   0  0  2  0  0  0  0  0  0  0  0  0
   -3.9415   -7.4928    5.0761 N   0  3  0  0  0  0  0  0  0  0  0  0
   -2.9441   -9.3397    3.8602 C   0  0  1  0  0  0  0  0  0  0  0  0
   -3.1386  -10.2833    4.9023 O   0  0  0  0  0  0  0  0  0  0  0  0
   -2.8285  -10.0717    2.5320 C   0  0  2  0  0  0  0  0  0  0  0  0
   -1.6564  -10.8732    2.5106 O   0  0  0  0  0  0  0  0  0  0  0  0
   -2.7541   -9.8457    0.0845 C   0  0  0  0  0  0  0  0  0  0  0  0
   -4.0913  -10.0035   -0.4574 N   0  3  0  0  0  0  0  0  0  0  0  0
   -4.2845   -2.4269    2.1466 C   0  0  2  0  0  0  0  0  0  0  0  0
   -2.8284   -2.7486    1.8737 C   0  0  0  0  0  0  0  0  0  0  0  0
   -2.4527   -4.0807    2.4958 C   0  0  1  0  0  0  0  0  0  0  0  0
   -3.2651   -5.2461    1.9295 C   0  0  2  0  0  0  0  0  0  0  0  0
   -4.7793   -4.9351    1.9673 C   0  0  1  0  0  0  0  0  0  0  0  0
   -5.1915   -3.5095    1.5773 C   0  0  1  0  0  0  0  0  0  0  0  0
   -4.6161   -1.1483    1.5473 N   0  3  0  0  0  0  0  0  0  0  0  0
   -1.0337   -4.3074    2.3029 N   0  3  0  0  0  0  0  0  0  0  0  0
   -5.5393   -5.8990    1.1978 O   0  0  0  0  0  0  0  0  0  0  0  0
   -6.5361   -3.2696    1.9792 O   0  0  0  0  0  0  0  0  0  0  0  0
  1  2  1  0  0  0  0
  3  2  1  1  0  0  0
  3  4  1  0  0  0  0
  3  5  1  0  0  0  0
  4  8  1  0  0  0  0
  5  6  1  0  0  0  0
  5 12  1  6  0  0  0
  6  7  1  6  0  0  0
  6  8  1  0  0  0  0
  8 41  1  1  0  0  0
  9 10  1  0  0  0  0
  9 17  1  0  0  0  0
  9 19  1  6  0  0  0
 10 11  1  0  0  0  0
 11 12  1  6  0  0  0
 11 13  1  0  0  0  0
 13 14  1  6  0  0  0
 13 15  1  0  0  0  0
 15 16  1  1  0  0  0
 15 17  1  0  0  0  0
 17 18  1  6  0  0  0
 19 20  1  0  0  0  0
 21 22  1  0  0  0  0
 21 29  1  0  0  0  0
 21 31  1  6  0  0  0
 22 23  1  0  0  0  0
 23 24  1  1  0  0  0
 23 25  1  0  0  0  0
 25 26  1  1  0  0  0
 25 27  1  0  0  0  0
 27 28  1  1  0  0  0
 27 29  1  0  0  0  0
 29 30  1  1  0  0  0
 31 32  1  0  0  0  0
 33 34  1  0  0  0  0
 33 38  1  0  0  0  0
 33 39  1  6  0  0  0
 34 35  1  0  0  0  0
 35 36  1  0  0  0  0
 35 40  1  6  0  0  0
 36 24  1  1  0  0  0
 36 37  1  0  0  0  0
 37 38  1  0  0  0  0
 37 41  1  6  0  0  0
 38 42  1  1  0  0  0
M  CHG  6  14   1  20   1  26   1  32   1  39   1  40   1
M  END
>  <CHROM.1>
-174.02706920,-60.79899188,-86.62082160,47.25812805,-43.37211194,106.47788294
105.34895311,-162.31686316,-176.88576101,-171.80750411,-40.59114970,-25.03961402
81.86546424,156.35868327,63.73399810,-57.24809503,-62.19190377,80.32381725
43.08390098,-59.57231389,-40.72003704,-53.98142888,-5.39280066,-5.74711789
-0.55264974,-2.87367720,1.00675674,-3.01962390

>  <Name>


>  <RI>
0

>  <Rbt.Current_Directory>
/home/itssahil/PROJECTS/Mol_Feturizer/New_Systems/rnas/1qd3

>  <Rbt.Executable>
rbdock ($Id: //depot/dev/client3/rdock/2013.1/src/exe/rbdock.cxx#4 $)

>  <Rbt.Library>
libRbt.so (2013.1, Build901 2013/11/27)

>  <Rbt.Parameter_File>
/export/apps/rDock/src/rDock_2013.1_src/data/scripts/dock_solv.prm

>  <Rbt.Receptor>
prm/blind_docking_80.prm

>  <SCORE>
-43.282

>  <SCORE.INTER>
-33.4357

>  <SCORE.INTER.CONST>
1

>  <SCORE.INTER.POLAR>
-4.11507

>  <SCORE.INTER.ROT>
9

>  <SCORE.INTER.SOLV>
24.0912

>  <SCORE.INTER.VDW>
-26.2039

>  <SCORE.INTER.norm>
-0.796087

>  <SCORE.INTRA>
-10.8565

>  <SCORE.INTRA.DIHEDRAL>
-10.3644

>  <SCORE.INTRA.DIHEDRAL.0>
40.6252

>  <SCORE.INTRA.POLAR>
-0.640077

>  <SCORE.INTRA.POLAR.0>
-1.20161

>  <SCORE.INTRA.REPUL>
-0.115675

>  <SCORE.INTRA.REPUL.0>
0.115675

>  <SCORE.INTRA.SOLV>
-3.70521

>  <SCORE.INTRA.SOLV.lig_0>
-154.895

>  <SCORE.INTRA.VDW>
-1.06701

>  <SCORE.INTRA.VDW.0>
2.2925

>  <SCORE.INTRA.norm>
-0.258487

>  <SCORE.RESTR>
1.01014

>  <SCORE.RESTR.CAVITY>
1.01014

>  <SCORE.RESTR.norm>
0.0240509

>  <SCORE.SYSTEM>
0

>  <SCORE.SYSTEM.CONST>
0

>  <SCORE.SYSTEM.DIHEDRAL>
0

>  <SCORE.SYSTEM.SOLV>
0

>  <SCORE.SYSTEM.norm>
0

>  <SCORE.heavy>
42

>  <SCORE.norm>
-1.03052

>  <RMSD>
15.336

$$$$

 OpenBabel11021811413D
libRbt.so/2013.1/901 2013/11/27
 42 45  0  0  0  0  0  0  0  0999 V2000
   -2.8007  -10.0177    4.3682 O   0  0  0  0  0  0  0  0  0  0  0  0
   -3.2435   -9.9808    3.0190 C   0  0  0  0  0  0  0  0  0  0  0  0
   -2.3431   -9.0518    2.2039 C   0  0  1  0  0  0  0  0  0  0  0  0
   -2.8351   -8.8941    0.8553 O   0  0  0  0  0  0  0  0  0  0  0  0
   -2.2494   -7.6472    2.7763 C   0  0  2  0  0  0  0  0  0  0  0  0
   -1.7572   -6.8838    1.5582 C   0  0  1  0  0  0  0  0  0  0  0  0
   -0.3661   -7.1205    1.3720 O   0  0  0  0  0  0  0  0  0  0  0  0
   -2.5581   -7.5403    0.4153 C   0  0  2  0  0  0  0  0  0  0  0  0
   -1.3140   -3.9314    3.8085 C   0  0  2  0  0  0  0  0  0  0  0  0
   -1.7888   -5.2757    3.6380 O   0  0  0  0  0  0  0  0  0  0  0  0
   -0.8395   -6.2458    4.1159 C   0  0  2  0  0  0  0  0  0  0  0  0
   -1.3212   -7.5846    3.8770 O   0  0  0  0  0  0  0  0  0  0  0  0
   -0.5588   -6.0385    5.6141 C   0  0  2  0  0  0  0  0  0  0  0  0
   -1.6566   -6.5431    6.4182 N   0  3  0  0  0  0  0  0  0  0  0  0
   -0.2582   -4.5781    5.9715 C   0  0  1  0  0  0  0  0  0  0  0  0
    1.0738   -4.2659    5.5957 O   0  0  0  0  0  0  0  0  0  0  0  0
   -1.2212   -3.6069    5.2940 C   0  0  2  0  0  0  0  0  0  0  0  0
   -2.5070   -3.6984    5.8966 O   0  0  0  0  0  0  0  0  0  0  0  0
   -2.2298   -2.9427    3.0926 C   0  0  0  0  0  0  0  0  0  0  0  0
   -1.6945   -1.5975    3.1858 N   0  3  0  0  0  0  0  0  0  0  0  0
   -8.1374   -7.5864   -3.3773 C   0  0  1  0  0  0  0  0  0  0  0  0
   -8.0492   -6.9685   -2.0763 O   0  0  0  0  0  0  0  0  0  0  0  0
   -6.7737   -7.1785   -1.4278 C   0  0  2  0  0  0  0  0  0  0  0  0
   -5.6904   -6.5263   -2.1354 O   0  0  0  0  0  0  0  0  0  0  0  0
   -6.4967   -8.6765   -1.2523 C   0  0  2  0  0  0  0  0  0  0  0  0
   -5.1336   -8.8784   -0.7976 N   0  3  0  0  0  0  0  0  0  0  0  0
   -6.7111   -9.4467   -2.5506 C   0  0  1  0  0  0  0  0  0  0  0  0
   -6.6764  -10.8414   -2.2903 O   0  0  0  0  0  0  0  0  0  0  0  0
   -8.0165   -9.0960   -3.2478 C   0  0  2  0  0  0  0  0  0  0  0  0
   -8.0677   -9.6998   -4.5321 O   0  0  0  0  0  0  0  0  0  0  0  0
   -9.4929   -7.2828   -4.0089 C   0  0  0  0  0  0  0  0  0  0  0  0
  -10.0232   -6.0273   -3.5094 N   0  3  0  0  0  0  0  0  0  0  0  0
   -2.8543   -3.4419   -1.3986 C   0  0  2  0  0  0  0  0  0  0  0  0
   -4.2897   -3.0386   -1.6726 C   0  0  0  0  0  0  0  0  0  0  0  0
   -5.0550   -4.1896   -2.2989 C   0  0  1  0  0  0  0  0  0  0  0  0
   -5.1183   -5.4188   -1.3912 C   0  0  2  0  0  0  0  0  0  0  0  0
   -3.7107   -5.8005   -0.8775 C   0  0  1  0  0  0  0  0  0  0  0  0
   -2.8008   -4.6383   -0.4581 C   0  0  1  0  0  0  0  0  0  0  0  0
   -2.1444   -2.3242   -0.8064 N   0  3  0  0  0  0  0  0  0  0  0  0
   -6.3901   -3.7381   -2.6392 N   0  3  0  0  0  0  0  0  0  0  0  0
   -3.7809   -6.7833    0.1846 O   0  0  0  0  0  0  0  0  0  0  0  0
   -1.4578   -5.0962   -0.3398 O   0  0  0  0  0  0  0  0  0  0  0  0
  1  2  1  0  0  0  0
  3  2  1  1  0  0  0
  3  4  1  0  0  0  0
  3  5  1  0  0  0  0
  4  8  1  0  0  0  0
  5  6  1  0  0  0  0
  5 12  1  1  0  0  0
  6  7  1  6  0  0  0
  6  8  1  0  0  0  0
  8 41  1  1  0  0  0
  9 10  1  0  0  0  0
  9 17  1  0  0  0  0
  9 19  1  6  0  0  0
 10 11  1  0  0  0  0
 11 12  1  1  0  0  0
 11 13  1  0  0  0  0
 13 14  1  1  0  0  0
 13 15  1  0  0  0  0
 15 16  1  6  0  0  0
 15 17  1  0  0  0  0
 17 18  1  1  0  0  0
 19 20  1  0  0  0  0
 21 22  1  0  0  0  0
 21 29  1  0  0  0  0
 21 31  1  1  0  0  0
 22 23  1  0  0  0  0
 23 24  1  6  0  0  0
 23 25  1  0  0  0  0
 25 26  1  6  0  0  0
 25 27  1  0  0  0  0
 27 28  1  1  0  0  0
 27 29  1  0  0  0  0
 29 30  1  6  0  0  0
 31 32  1  0  0  0  0
 33 34  1  0  0  0  0
 33 38  1  0  0  0  0
 33 39  1  1  0  0  0
 34 35  1  0  0  0  0
 35 36  1  0  0  0  0
 35 40  1  1  0  0  0
 36 24  1  6  0  0  0
 36 37  1  0  0  0  0
 37 38  1  0  0  0  0
 37 41  1  1  0  0  0
 38 42  1  6  0  0  0
M  CHG  6  14   1  20   1  26   1  32   1  39   1  40   1
M  END
>  <CHROM.1>
-61.41343828,-174.76379588,158.60483811,63.64438151,-147.26077760,-175.89248955
25.24712657,-86.15483024,-57.06480611,-66.99117980,52.68695356,27.48432002
112.08682075,-129.67017240,34.70015011,-48.51659500,59.44434804,67.34298613
-87.47989856,63.44184269,159.61472513,59.67231634,-3.78897634,-6.32987656
0.73342038,-0.02335662,0.88274165,2.84953914

>  <Name>


>  <RI>
0

>  <Rbt.Current_Directory>
/home/itssahil/PROJECTS/Mol_Feturizer/New_Systems/rnas/1qd3

>  <Rbt.Executable>
rbdock ($Id: //depot/dev/client3/rdock/2013.1/src/exe/rbdock.cxx#4 $)

>  <Rbt.Library>
libRbt.so (2013.1, Build901 2013/11/27)

>  <Rbt.Parameter_File>
/export/apps/rDock/src/rDock_2013.1_src/data/scripts/dock_solv.prm

>  <Rbt.Receptor>
prm/blind_docking_60.prm

>  <SCORE>
-48.1069

>  <SCORE.INTER>
-39.1871

>  <SCORE.INTER.CONST>
1

>  <SCORE.INTER.POLAR>
-5.5647

>  <SCORE.INTER.ROT>
9

>  <SCORE.INTER.SOLV>
28.067

>  <SCORE.INTER.VDW>
-26.5314

>  <SCORE.INTER.norm>
-0.933026

>  <SCORE.INTRA>
-10.5007

>  <SCORE.INTRA.DIHEDRAL>
-4.16388

>  <SCORE.INTRA.DIHEDRAL.0>
40.6252

>  <SCORE.INTRA.POLAR>
-0.613035

>  <SCORE.INTRA.POLAR.0>
-1.20161

>  <SCORE.INTRA.REPUL>
-0.115675

>  <SCORE.INTRA.REPUL.0>
0.115675

>  <SCORE.INTRA.SOLV>
-2.46155

>  <SCORE.INTRA.SOLV.lig_0>
-154.895

>  <SCORE.INTRA.VDW>
-4.52533

>  <SCORE.INTRA.VDW.0>
2.2925

>  <SCORE.INTRA.norm>
-0.250018

>  <SCORE.RESTR>
1.58088

>  <SCORE.RESTR.CAVITY>
1.58088

>  <SCORE.RESTR.norm>
0.03764

>  <SCORE.SYSTEM>
0

>  <SCORE.SYSTEM.CONST>
0

>  <SCORE.SYSTEM.DIHEDRAL>
0

>  <SCORE.SYSTEM.SOLV>
0

>  <SCORE.SYSTEM.norm>
0

>  <SCORE.heavy>
42

>  <SCORE.norm>
-1.1454

>  <RMSD>
15.350

$$$$

 OpenBabel11021811413D
libRbt.so/2013.1/901 2013/11/27
 42 45  0  0  0  0  0  0  0  0999 V2000
   -3.8019   -2.9905   -1.5033 O   0  0  0  0  0  0  0  0  0  0  0  0
   -3.9058   -3.8073   -2.6608 C   0  0  0  0  0  0  0  0  0  0  0  0
   -4.6667   -5.0899   -2.3226 C   0  0  1  0  0  0  0  0  0  0  0  0
   -4.2006   -5.6655   -1.0828 O   0  0  0  0  0  0  0  0  0  0  0  0
   -6.1604   -4.8757   -2.1427 C   0  0  2  0  0  0  0  0  0  0  0  0
   -6.5268   -6.1240   -1.3577 C   0  0  1  0  0  0  0  0  0  0  0  0
   -6.5862   -7.2435   -2.2347 O   0  0  0  0  0  0  0  0  0  0  0  0
   -5.3270   -6.2718   -0.3999 C   0  0  2  0  0  0  0  0  0  0  0  0
   -6.5210   -2.6521   -6.3467 C   0  0  2  0  0  0  0  0  0  0  0  0
   -6.9526   -3.7503   -5.5287 O   0  0  0  0  0  0  0  0  0  0  0  0
   -6.4380   -3.6568   -4.1881 C   0  0  2  0  0  0  0  0  0  0  0  0
   -6.8416   -4.8033   -3.4107 O   0  0  0  0  0  0  0  0  0  0  0  0
   -6.9143   -2.3592   -3.5130 C   0  0  2  0  0  0  0  0  0  0  0  0
   -8.3005   -2.4733   -3.0986 N   0  3  0  0  0  0  0  0  0  0  0  0
   -6.7168   -1.1185   -4.3919 C   0  0  1  0  0  0  0  0  0  0  0  0
   -5.3524   -0.7306   -4.3592 O   0  0  0  0  0  0  0  0  0  0  0  0
   -7.1451   -1.3593   -5.8369 C   0  0  2  0  0  0  0  0  0  0  0  0
   -8.5636   -1.4354   -5.9166 O   0  0  0  0  0  0  0  0  0  0  0  0
   -6.8881   -2.8932   -7.8082 C   0  0  0  0  0  0  0  0  0  0  0  0
   -8.2693   -3.3234   -7.9192 N   0  3  0  0  0  0  0  0  0  0  0  0
   -3.0814  -10.6708    2.1147 C   0  0  1  0  0  0  0  0  0  0  0  0
   -2.1491   -9.6706    1.6540 O   0  0  0  0  0  0  0  0  0  0  0  0
   -2.7229   -8.7498    0.6977 C   0  0  2  0  0  0  0  0  0  0  0  0
   -3.7624   -7.9310    1.2882 O   0  0  0  0  0  0  0  0  0  0  0  0
   -3.2442   -9.5031   -0.5321 C   0  0  2  0  0  0  0  0  0  0  0  0
   -4.0010   -8.6019   -1.3811 N   0  3  0  0  0  0  0  0  0  0  0  0
   -4.1276  -10.6823   -0.1400 C   0  0  1  0  0  0  0  0  0  0  0  0
   -4.3908  -11.4829   -1.2819 O   0  0  0  0  0  0  0  0  0  0  0  0
   -3.5222  -11.5480    0.9542 C   0  0  2  0  0  0  0  0  0  0  0  0
   -4.4667  -12.5090    1.4025 O   0  0  0  0  0  0  0  0  0  0  0  0
   -2.4120  -11.5721    3.1483 C   0  0  0  0  0  0  0  0  0  0  0  0
   -2.3817  -10.9285    4.4489 N   0  3  0  0  0  0  0  0  0  0  0  0
   -3.0457   -4.2656    3.3255 C   0  0  2  0  0  0  0  0  0  0  0  0
   -1.8718   -4.9451    2.6485 C   0  0  0  0  0  0  0  0  0  0  0  0
   -2.2042   -6.3920    2.3342 C   0  0  1  0  0  0  0  0  0  0  0  0
   -3.3914   -6.5304    1.3801 C   0  0  2  0  0  0  0  0  0  0  0  0
   -4.5972   -5.6971    1.8725 C   0  0  1  0  0  0  0  0  0  0  0  0
   -4.2790   -4.3048    2.4333 C   0  0  1  0  0  0  0  0  0  0  0  0
   -2.7006   -2.8878    3.6199 N   0  3  0  0  0  0  0  0  0  0  0  0
   -1.0286   -7.0363    1.7818 N   0  3  0  0  0  0  0  0  0  0  0  0
   -5.6260   -5.5995    0.8571 O   0  0  0  0  0  0  0  0  0  0  0  0
   -5.4044   -3.8042    3.1475 O   0  0  0  0  0  0  0  0  0  0  0  0
  1  2  1  0  0  0  0
  3  2  1  1  0  0  0
  3  4  1  0  0  0  0
  3  5  1  0  0  0  0
  4  8  1  0  0  0  0
  5  6  1  0  0  0  0
  5 12  1  6  0  0  0
  6  7  1  6  0  0  0
  6  8  1  0  0  0  0
  8 41  1  1  0  0  0
  9 10  1  0  0  0  0
  9 17  1  0  0  0  0
  9 19  1  6  0  0  0
 10 11  1  0  0  0  0
 11 12  1  1  0  0  0
 11 13  1  0  0  0  0
 13 14  1  6  0  0  0
 13 15  1  0  0  0  0
 15 16  1  6  0  0  0
 15 17  1  0  0  0  0
 17 18  1  1  0  0  0
 19 20  1  0  0  0  0
 21 22  1  0  0  0  0
 21 29  1  0  0  0  0
 21 31  1  1  0  0  0
 22 23  1  0  0  0  0
 23 24  1  1  0  0  0
 23 25  1  0  0  0  0
 25 26  1  6  0  0  0
 25 27  1  0  0  0  0
 27 28  1  6  0  0  0
 27 29  1  0  0  0  0
 29 30  1  1  0  0  0
 31 32  1  0  0  0  0
 33 34  1  0  0  0  0
 33 38  1  0  0  0  0
 33 39  1  6  0  0  0
 34 35  1  0  0  0  0
 35 36  1  0  0  0  0
 35 40  1  6  0  0  0
 36 24  1  1  0  0  0
 36 37  1  0  0  0  0
 37 38  1  0  0  0  0
 37 41  1  6  0  0  0
 38 42  1  1  0  0  0
M  CHG  6  14   1  20   1  26   1  32   1  39   1  40   1
M  END
>  <CHROM.1>
-67.86236692,-45.26260953,-64.72300473,-159.82730116,-65.11049191,47.50450770
169.67304273,-48.82779396,66.84329457,-175.74572572,9.42698641,79.77328309
112.39276968,-64.33045067,37.46848858,-167.95663592,-64.65267305,104.07847531
97.69940877,47.58505414,-0.69239679,-177.01577298,-4.79856563,-5.90418353
-0.96497506,-2.58146146,1.11324329,-2.99679728

>  <Name>


>  <RI>
0

>  <Rbt.Current_Directory>
/home/itssahil/PROJECTS/Mol_Feturizer/New_Systems/rnas/1qd3

>  <Rbt.Executable>
rbdock ($Id: //depot/dev/client3/rdock/2013.1/src/exe/rbdock.cxx#4 $)

>  <Rbt.Library>
libRbt.so (2013.1, Build901 2013/11/27)

>  <Rbt.Parameter_File>
/export/apps/rDock/src/rDock_2013.1_src/data/scripts/dock_solv.prm

>  <Rbt.Receptor>
prm/blind_docking_60.prm

>  <SCORE>
-41.865

>  <SCORE.INTER>
-39.0431

>  <SCORE.INTER.CONST>
1

>  <SCORE.INTER.POLAR>
-4.88087

>  <SCORE.INTER.ROT>
9

>  <SCORE.INTER.SOLV>
31.9583

>  <SCORE.INTER.VDW>
-30.0119

>  <SCORE.INTER.norm>
-0.929598

>  <SCORE.INTRA>
-8.86575

>  <SCORE.INTRA.DIHEDRAL>
-8.75681

>  <SCORE.INTRA.DIHEDRAL.0>
40.6252

>  <SCORE.INTRA.POLAR>
-0.674742

>  <SCORE.INTRA.POLAR.0>
-1.20161

>  <SCORE.INTRA.REPUL>
-0.115675

>  <SCORE.INTRA.REPUL.0>
0.115675

>  <SCORE.INTRA.SOLV>
-1.26256

>  <SCORE.INTRA.SOLV.lig_0>
-154.895

>  <SCORE.INTRA.VDW>
-0.983562

>  <SCORE.INTRA.VDW.0>
2.2925

>  <SCORE.INTRA.norm>
-0.211089

>  <SCORE.RESTR>
6.04385

>  <SCORE.RESTR.CAVITY>
6.04385

>  <SCORE.RESTR.norm>
0.143901

>  <SCORE.SYSTEM>
0

>  <SCORE.SYSTEM.CONST>
0

>  <SCORE.SYSTEM.DIHEDRAL>
0

>  <SCORE.SYSTEM.SOLV>
0

>  <SCORE.SYSTEM.norm>
0

>  <SCORE.heavy>
42

>  <SCORE.norm>
-0.996786

>  <RMSD>
15.358

$$$$

 OpenBabel11021811413D
libRbt.so/2013.1/901 2013/11/27
 42 45  0  0  0  0  0  0  0  0999 V2000
   -1.4793   -1.0112    1.0273 O   0  0  0  0  0  0  0  0  0  0  0  0
   -2.3721   -0.6796    2.0812 C   0  0  0  0  0  0  0  0  0  0  0  0
   -3.6642   -1.4848    1.9376 C   0  0  1  0  0  0  0  0  0  0  0  0
   -4.0848   -1.5608    0.5581 O   0  0  0  0  0  0  0  0  0  0  0  0
   -3.5344   -2.9234    2.4097 C   0  0  2  0  0  0  0  0  0  0  0  0
   -4.7228   -3.5549    1.7043 C   0  0  1  0  0  0  0  0  0  0  0  0
   -5.9232   -3.2225    2.3931 O   0  0  0  0  0  0  0  0  0  0  0  0
   -4.6966   -2.8556    0.3299 C   0  0  2  0  0  0  0  0  0  0  0  0
   -3.5773   -6.6668    3.6124 C   0  0  2  0  0  0  0  0  0  0  0  0
   -3.4849   -5.2946    3.2000 O   0  0  0  0  0  0  0  0  0  0  0  0
   -3.6713   -4.3884    4.3022 C   0  0  2  0  0  0  0  0  0  0  0  0
   -3.6306   -3.0207    3.8444 O   0  0  0  0  0  0  0  0  0  0  0  0
   -2.6023   -4.6217    5.3835 C   0  0  2  0  0  0  0  0  0  0  0  0
   -1.3289   -4.0545    4.9796 N   0  3  0  0  0  0  0  0  0  0  0  0
   -2.4381   -6.1000    5.7553 C   0  0  1  0  0  0  0  0  0  0  0  0
   -3.5023   -6.4923    6.6076 O   0  0  0  0  0  0  0  0  0  0  0  0
   -2.4070   -7.0053    4.5269 C   0  0  2  0  0  0  0  0  0  0  0  0
   -1.1772   -6.8376    3.8311 O   0  0  0  0  0  0  0  0  0  0  0  0
   -3.6043   -7.5923    2.3993 C   0  0  0  0  0  0  0  0  0  0  0  0
   -3.5799   -8.9805    2.8206 N   0  3  0  0  0  0  0  0  0  0  0  0
   -6.2745   -8.7408   -1.9519 C   0  0  1  0  0  0  0  0  0  0  0  0
   -6.3113   -7.7238   -0.9290 O   0  0  0  0  0  0  0  0  0  0  0  0
   -5.0632   -7.0068   -0.7891 C   0  0  2  0  0  0  0  0  0  0  0  0
   -4.7507   -6.2246   -1.9682 O   0  0  0  0  0  0  0  0  0  0  0  0
   -3.9212   -7.9713   -0.4469 C   0  0  2  0  0  0  0  0  0  0  0  0
   -2.6487   -7.2774   -0.5172 N   0  3  0  0  0  0  0  0  0  0  0  0
   -3.8915   -9.1691   -1.3898 C   0  0  1  0  0  0  0  0  0  0  0  0
   -2.9824  -10.1419   -0.8983 O   0  0  0  0  0  0  0  0  0  0  0  0
   -5.2565   -9.8097   -1.5895 C   0  0  2  0  0  0  0  0  0  0  0  0
   -5.1960  -10.7910   -2.6141 O   0  0  0  0  0  0  0  0  0  0  0  0
   -7.6373   -9.4183   -2.0641 C   0  0  0  0  0  0  0  0  0  0  0  0
   -8.2206   -9.6203   -0.7504 N   0  3  0  0  0  0  0  0  0  0  0  0
   -5.8654   -2.4903   -3.6747 C   0  0  2  0  0  0  0  0  0  0  0  0
   -6.9268   -3.5670   -3.5625 C   0  0  0  0  0  0  0  0  0  0  0  0
   -6.2864   -4.9217   -3.3226 C   0  0  1  0  0  0  0  0  0  0  0  0
   -5.4822   -4.9719   -2.0227 C   0  0  2  0  0  0  0  0  0  0  0  0
   -4.4980   -3.7826   -1.9346 C   0  0  1  0  0  0  0  0  0  0  0  0
   -5.0305   -2.4220   -2.4031 C   0  0  1  0  0  0  0  0  0  0  0  0
   -6.5024   -1.2084   -3.9092 N   0  3  0  0  0  0  0  0  0  0  0  0
   -7.3204   -5.9382   -3.3218 N   0  3  0  0  0  0  0  0  0  0  0  0
   -3.9276   -3.6618   -0.6084 O   0  0  0  0  0  0  0  0  0  0  0  0
   -3.9463   -1.5181   -2.5887 O   0  0  0  0  0  0  0  0  0  0  0  0
  1  2  1  0  0  0  0
  3  2  1  6  0  0  0
  3  4  1  0  0  0  0
  3  5  1  0  0  0  0
  4  8  1  0  0  0  0
  5  6  1  0  0  0  0
  5 12  1  1  0  0  0
  6  7  1  1  0  0  0
  6  8  1  0  0  0  0
  8 41  1  6  0  0  0
  9 10  1  0  0  0  0
  9 17  1  0  0  0  0
  9 19  1  6  0  0  0
 10 11  1  0  0  0  0
 11 12  1  6  0  0  0
 11 13  1  0  0  0  0
 13 14  1  6  0  0  0
 13 15  1  0  0  0  0
 15 16  1  1  0  0  0
 15 17  1  0  0  0  0
 17 18  1  6  0  0  0
 19 20  1  0  0  0  0
 21 22  1  0  0  0  0
 21 29  1  0  0  0  0
 21 31  1  1  0  0  0
 22 23  1  0  0  0  0
 23 24  1  6  0  0  0
 23 25  1  0  0  0  0
 25 26  1  6  0  0  0
 25 27  1  0  0  0  0
 27 28  1  1  0  0  0
 27 29  1  0  0  0  0
 29 30  1  6  0  0  0
 31 32  1  0  0  0  0
 33 34  1  0  0  0  0
 33 38  1  0  0  0  0
 33 39  1  1  0  0  0
 34 35  1  0  0  0  0
 35 36  1  0  0  0  0
 35 40  1  1  0  0  0
 36 24  1  6  0  0  0
 36 37  1  0  0  0  0
 37 38  1  0  0  0  0
 37 41  1  1  0  0  0
 38 42  1  6  0  0  0
M  CHG  6  14   1  20   1  26   1  32   1  39   1  40   1
M  END
>  <CHROM.1>
43.06743124,-41.05731990,173.02593401,-61.05071074,-105.56448955,175.03311203
5.08423074,-30.12892620,-175.65746591,55.00042653,150.16379122,-39.81138724
79.47495299,-122.61547098,-162.66545277,62.30829380,57.63245495,-38.70340505
-63.12963431,73.50628756,-87.91034903,65.95033202,-4.35375198,-5.41856034
0.49133927,0.14008950,-1.12843783,-0.20866985

>  <Name>


>  <RI>
0

>  <Rbt.Current_Directory>
/home/itssahil/PROJECTS/Mol_Feturizer/New_Systems/rnas/1qd3

>  <Rbt.Executable>
rbdock ($Id: //depot/dev/client3/rdock/2013.1/src/exe/rbdock.cxx#4 $)

>  <Rbt.Library>
libRbt.so (2013.1, Build901 2013/11/27)

>  <Rbt.Parameter_File>
/export/apps/rDock/src/rDock_2013.1_src/data/scripts/dock_solv.prm

>  <Rbt.Receptor>
prm/blind_docking_60.prm

>  <SCORE>
-43.8462

>  <SCORE.INTER>
-39.4069

>  <SCORE.INTER.CONST>
1

>  <SCORE.INTER.POLAR>
-4.63755

>  <SCORE.INTER.ROT>
9

>  <SCORE.INTER.SOLV>
29.0248

>  <SCORE.INTER.VDW>
-30.0877

>  <SCORE.INTER.norm>
-0.938259

>  <SCORE.INTRA>
-6.07214

>  <SCORE.INTRA.DIHEDRAL>
-5.78994

>  <SCORE.INTRA.DIHEDRAL.0>
40.6252

>  <SCORE.INTRA.POLAR>
1.02663

>  <SCORE.INTRA.POLAR.0>
-1.20161

>  <SCORE.INTRA.REPUL>
-0.0643411

>  <SCORE.INTRA.REPUL.0>
0.115675

>  <SCORE.INTRA.SOLV>
-4.07784

>  <SCORE.INTRA.SOLV.lig_0>
-154.895

>  <SCORE.INTRA.VDW>
-4.3071

>  <SCORE.INTRA.VDW.0>
2.2925

>  <SCORE.INTRA.norm>
-0.144575

>  <SCORE.RESTR>
1.63284

>  <SCORE.RESTR.CAVITY>
1.63284

>  <SCORE.RESTR.norm>
0.0388772

>  <SCORE.SYSTEM>
0

>  <SCORE.SYSTEM.CONST>
0

>  <SCORE.SYSTEM.DIHEDRAL>
0

>  <SCORE.SYSTEM.SOLV>
0

>  <SCORE.SYSTEM.norm>
0

>  <SCORE.heavy>
42

>  <SCORE.norm>
-1.04396

>  <RMSD>
15.361

$$$$

 OpenBabel11021811413D
libRbt.so/2013.1/901 2013/11/27
 42 45  0  0  0  0  0  0  0  0999 V2000
   -1.2044   -3.8152    2.6282 O   0  0  0  0  0  0  0  0  0  0  0  0
   -2.2285   -4.6631    3.1280 C   0  0  0  0  0  0  0  0  0  0  0  0
   -3.5960   -4.0259    2.8783 C   0  0  1  0  0  0  0  0  0  0  0  0
   -3.5663   -3.1529    1.7282 O   0  0  0  0  0  0  0  0  0  0  0  0
   -4.6924   -5.0404    2.5985 C   0  0  2  0  0  0  0  0  0  0  0  0
   -5.7245   -4.1535    1.9224 C   0  0  1  0  0  0  0  0  0  0  0  0
   -6.4088   -3.3796    2.9015 O   0  0  0  0  0  0  0  0  0  0  0  0
   -4.8451   -3.2353    1.0494 C   0  0  2  0  0  0  0  0  0  0  0  0
   -3.4851   -8.7654    3.0152 C   0  0  2  0  0  0  0  0  0  0  0  0
   -3.8315   -7.3733    2.9556 O   0  0  0  0  0  0  0  0  0  0  0  0
   -4.8208   -7.0228    3.9401 C   0  0  2  0  0  0  0  0  0  0  0  0
   -5.1883   -5.6332    3.8149 O   0  0  0  0  0  0  0  0  0  0  0  0
   -4.3013   -7.3122    5.3588 C   0  0  2  0  0  0  0  0  0  0  0  0
   -3.3541   -6.2954    5.7776 N   0  3  0  0  0  0  0  0  0  0  0  0
   -3.6860   -8.7096    5.4987 C   0  0  1  0  0  0  0  0  0  0  0  0
   -4.7229   -9.6732    5.5942 O   0  0  0  0  0  0  0  0  0  0  0  0
   -2.7706   -9.0583    4.3283 C   0  0  2  0  0  0  0  0  0  0  0  0
   -1.5679   -8.3025    4.4107 O   0  0  0  0  0  0  0  0  0  0  0  0
   -2.6140   -9.1543    1.8241 C   0  0  0  0  0  0  0  0  0  0  0  0
   -2.6996  -10.5817    1.5786 N   0  3  0  0  0  0  0  0  0  0  0  0
   -7.2363   -3.9956   -5.5764 C   0  0  1  0  0  0  0  0  0  0  0  0
   -7.6043   -2.9800   -4.6197 O   0  0  0  0  0  0  0  0  0  0  0  0
   -7.2699   -3.3291   -3.2567 C   0  0  2  0  0  0  0  0  0  0  0  0
   -5.8378   -3.4169   -3.0538 O   0  0  0  0  0  0  0  0  0  0  0  0
   -7.9673   -4.6316   -2.8457 C   0  0  2  0  0  0  0  0  0  0  0  0
   -7.4621   -5.0803   -1.5615 N   0  3  0  0  0  0  0  0  0  0  0  0
   -7.7600   -5.7338   -3.8786 C   0  0  1  0  0  0  0  0  0  0  0  0
   -8.6070   -6.8330   -3.5812 O   0  0  0  0  0  0  0  0  0  0  0  0
   -8.0129   -5.2739   -5.3061 C   0  0  2  0  0  0  0  0  0  0  0  0
   -7.6236   -6.2831   -6.2261 O   0  0  0  0  0  0  0  0  0  0  0  0
   -7.5830   -3.5329   -6.9886 C   0  0  0  0  0  0  0  0  0  0  0  0
   -8.7036   -2.6106   -6.9668 N   0  3  0  0  0  0  0  0  0  0  0  0
   -2.8615   -0.7508   -1.5932 C   0  0  2  0  0  0  0  0  0  0  0  0
   -4.0796   -0.1555   -2.2715 C   0  0  0  0  0  0  0  0  0  0  0  0
   -4.8149   -1.2160   -3.0699 C   0  0  1  0  0  0  0  0  0  0  0  0
   -5.3252   -2.3632   -2.1968 C   0  0  2  0  0  0  0  0  0  0  0  0
   -4.1968   -2.9181   -1.2970 C   0  0  1  0  0  0  0  0  0  0  0  0
   -3.2650   -1.8811   -0.6560 C   0  0  1  0  0  0  0  0  0  0  0  0
   -2.1745    0.2829   -0.8427 N   0  3  0  0  0  0  0  0  0  0  0  0
   -5.9118   -0.5922   -3.7840 N   0  3  0  0  0  0  0  0  0  0  0  0
   -4.7170   -3.8116   -0.2821 O   0  0  0  0  0  0  0  0  0  0  0  0
   -2.1000   -2.5262   -0.1523 O   0  0  0  0  0  0  0  0  0  0  0  0
  1  2  1  0  0  0  0
  3  2  1  6  0  0  0
  3  4  1  0  0  0  0
  3  5  1  0  0  0  0
  4  8  1  0  0  0  0
  5  6  1  0  0  0  0
  5 12  1  1  0  0  0
  6  7  1  1  0  0  0
  6  8  1  0  0  0  0
  8 41  1  6  0  0  0
  9 10  1  0  0  0  0
  9 17  1  0  0  0  0
  9 19  1  6  0  0  0
 10 11  1  0  0  0  0
 11 12  1  1  0  0  0
 11 13  1  0  0  0  0
 13 14  1  6  0  0  0
 13 15  1  0  0  0  0
 15 16  1  6  0  0  0
 15 17  1  0  0  0  0
 17 18  1  1  0  0  0
 19 20  1  0  0  0  0
 21 22  1  0  0  0  0
 21 29  1  0  0  0  0
 21 31  1  6  0  0  0
 22 23  1  0  0  0  0
 23 24  1  6  0  0  0
 23 25  1  0  0  0  0
 25 26  1  1  0  0  0
 25 27  1  0  0  0  0
 27 28  1  1  0  0  0
 27 29  1  0  0  0  0
 29 30  1  6  0  0  0
 31 32  1  0  0  0  0
 33 34  1  0  0  0  0
 33 38  1  0  0  0  0
 33 39  1  1  0  0  0
 34 35  1  0  0  0  0
 35 36  1  0  0  0  0
 35 40  1  1  0  0  0
 36 24  1  6  0  0  0
 36 37  1  0  0  0  0
 37 38  1  0  0  0  0
 37 41  1  1  0  0  0
 38 42  1  6  0  0  0
M  CHG  6  14   1  20   1  26   1  32   1  39   1  40   1
M  END
>  <CHROM.1>
-47.77143126,27.29188252,-110.63173263,168.21249645,-77.36546619,-157.39833629
11.74870382,-70.46355160,-37.77577510,-62.63709855,-59.57838308,-28.07894728
111.81078165,-95.15683983,-41.13782141,64.02884156,-81.93632038,-56.29707015
77.22263523,-179.57891353,-101.58406897,0.10872633,-4.90941201,-4.74686922
-0.07227436,-0.95077951,-0.93500632,-0.59065381

>  <Name>


>  <RI>
0

>  <Rbt.Current_Directory>
/home/itssahil/PROJECTS/Mol_Feturizer/New_Systems/rnas/1qd3

>  <Rbt.Executable>
rbdock ($Id: //depot/dev/client3/rdock/2013.1/src/exe/rbdock.cxx#4 $)

>  <Rbt.Library>
libRbt.so (2013.1, Build901 2013/11/27)

>  <Rbt.Parameter_File>
/export/apps/rDock/src/rDock_2013.1_src/data/scripts/dock_solv.prm

>  <Rbt.Receptor>
prm/blind_docking_20.prm

>  <SCORE>
-46.9849

>  <SCORE.INTER>
-44.6659

>  <SCORE.INTER.CONST>
1

>  <SCORE.INTER.POLAR>
-6.01793

>  <SCORE.INTER.ROT>
9

>  <SCORE.INTER.SOLV>
27.1961

>  <SCORE.INTER.VDW>
-28.3829

>  <SCORE.INTER.norm>
-1.06347

>  <SCORE.INTRA>
-3.43088

>  <SCORE.INTRA.DIHEDRAL>
14.7892

>  <SCORE.INTRA.DIHEDRAL.0>
40.6252

>  <SCORE.INTRA.POLAR>
-1.34583

>  <SCORE.INTRA.POLAR.0>
-1.20161

>  <SCORE.INTRA.REPUL>
-0.103664

>  <SCORE.INTRA.REPUL.0>
0.115675

>  <SCORE.INTRA.SOLV>
-4.33759

>  <SCORE.INTRA.SOLV.lig_0>
-154.895

>  <SCORE.INTRA.VDW>
-3.56254

>  <SCORE.INTRA.VDW.0>
2.2925

>  <SCORE.INTRA.norm>
-0.0816877

>  <SCORE.RESTR>
1.1119

>  <SCORE.RESTR.CAVITY>
1.1119

>  <SCORE.RESTR.norm>
0.0264737

>  <SCORE.SYSTEM>
0

>  <SCORE.SYSTEM.CONST>
0

>  <SCORE.SYSTEM.DIHEDRAL>
0

>  <SCORE.SYSTEM.SOLV>
0

>  <SCORE.SYSTEM.norm>
0

>  <SCORE.heavy>
42

>  <SCORE.norm>
-1.11869

>  <RMSD>
15.377

$$$$

 OpenBabel11021811413D
libRbt.so/2013.1/901 2013/11/27
 42 45  0  0  0  0  0  0  0  0999 V2000
   -4.3550   -0.8136    1.8513 O   0  0  0  0  0  0  0  0  0  0  0  0
   -3.9561   -2.0486    2.4289 C   0  0  0  0  0  0  0  0  0  0  0  0
   -4.9975   -3.1248    2.1199 C   0  0  1  0  0  0  0  0  0  0  0  0
   -5.4918   -3.0046    0.7683 O   0  0  0  0  0  0  0  0  0  0  0  0
   -4.4560   -4.5399    2.2373 C   0  0  2  0  0  0  0  0  0  0  0  0
   -5.4883   -5.3002    1.4218 C   0  0  1  0  0  0  0  0  0  0  0  0
   -6.6749   -5.4726    2.1886 O   0  0  0  0  0  0  0  0  0  0  0  0
   -5.7568   -4.3331    0.2508 C   0  0  2  0  0  0  0  0  0  0  0  0
   -2.3800   -7.5668    5.1995 C   0  0  2  0  0  0  0  0  0  0  0  0
   -3.0963   -6.3327    5.0404 O   0  0  0  0  0  0  0  0  0  0  0  0
   -3.7479   -6.2505    3.7600 C   0  0  2  0  0  0  0  0  0  0  0  0
   -4.4085   -4.9767    3.6099 O   0  0  0  0  0  0  0  0  0  0  0  0
   -4.7571   -7.3989    3.5898 C   0  0  2  0  0  0  0  0  0  0  0  0
   -5.9646   -7.1405    4.3524 N   0  3  0  0  0  0  0  0  0  0  0  0
   -4.1739   -8.7690    3.9554 C   0  0  1  0  0  0  0  0  0  0  0  0
   -3.3497   -9.2279    2.8956 O   0  0  0  0  0  0  0  0  0  0  0  0
   -3.3659   -8.7269    5.2496 C   0  0  2  0  0  0  0  0  0  0  0  0
   -4.2397   -8.5795    6.3629 O   0  0  0  0  0  0  0  0  0  0  0  0
   -1.5193   -7.5305    6.4592 C   0  0  0  0  0  0  0  0  0  0  0  0
   -0.4289   -8.4819    6.3552 N   0  3  0  0  0  0  0  0  0  0  0  0
   -3.0985   -6.5011   -0.0213 C   0  0  1  0  0  0  0  0  0  0  0  0
   -3.5431   -6.7169   -1.3770 O   0  0  0  0  0  0  0  0  0  0  0  0
   -4.4686   -7.8205   -1.5074 C   0  0  2  0  0  0  0  0  0  0  0  0
   -5.7213   -7.5627   -0.8263 O   0  0  0  0  0  0  0  0  0  0  0  0
   -3.8287   -9.1237   -1.0134 C   0  0  2  0  0  0  0  0  0  0  0  0
   -4.8281  -10.1740   -0.9515 N   0  3  0  0  0  0  0  0  0  0  0  0
   -3.1931   -8.9551    0.3621 C   0  0  1  0  0  0  0  0  0  0  0  0
   -2.4166  -10.1015    0.6736 O   0  0  0  0  0  0  0  0  0  0  0  0
   -2.3242   -7.7118    0.4735 C   0  0  2  0  0  0  0  0  0  0  0  0
   -1.9181   -7.5124    1.8196 O   0  0  0  0  0  0  0  0  0  0  0  0
   -2.1622   -5.2975    0.0359 C   0  0  0  0  0  0  0  0  0  0  0  0
   -0.9758   -5.5304   -0.7671 N   0  3  0  0  0  0  0  0  0  0  0  0
   -6.9712   -5.0536   -4.0265 C   0  0  2  0  0  0  0  0  0  0  0  0
   -8.0089   -5.9455   -3.3741 C   0  0  0  0  0  0  0  0  0  0  0  0
   -7.3368   -7.0348   -2.5589 C   0  0  1  0  0  0  0  0  0  0  0  0
   -6.4747   -6.4762   -1.4259 C   0  0  2  0  0  0  0  0  0  0  0  0
   -5.5068   -5.3905   -1.9505 C   0  0  1  0  0  0  0  0  0  0  0  0
   -6.0816   -4.4037   -2.9753 C   0  0  1  0  0  0  0  0  0  0  0  0
   -7.6385   -4.0261   -4.8030 N   0  3  0  0  0  0  0  0  0  0  0  0
   -8.3531   -7.9259   -2.0343 N   0  3  0  0  0  0  0  0  0  0  0  0
   -4.8799   -4.6670   -0.8631 O   0  0  0  0  0  0  0  0  0  0  0  0
   -5.0214   -3.6989   -3.6128 O   0  0  0  0  0  0  0  0  0  0  0  0
  1  2  1  0  0  0  0
  3  2  1  6  0  0  0
  3  4  1  0  0  0  0
  3  5  1  0  0  0  0
  4  8  1  0  0  0  0
  5  6  1  0  0  0  0
  5 12  1  1  0  0  0
  6  7  1  1  0  0  0
  6  8  1  0  0  0  0
  8 41  1  6  0  0  0
  9 10  1  0  0  0  0
  9 17  1  0  0  0  0
  9 19  1  1  0  0  0
 10 11  1  0  0  0  0
 11 12  1  1  0  0  0
 11 13  1  0  0  0  0
 13 14  1  1  0  0  0
 13 15  1  0  0  0  0
 15 16  1  6  0  0  0
 15 17  1  0  0  0  0
 17 18  1  1  0  0  0
 19 20  1  0  0  0  0
 21 22  1  0  0  0  0
 21 29  1  0  0  0  0
 21 31  1  6  0  0  0
 22 23  1  0  0  0  0
 23 24  1  1  0  0  0
 23 25  1  0  0  0  0
 25 26  1  1  0  0  0
 25 27  1  0  0  0  0
 27 28  1  6  0  0  0
 27 29  1  0  0  0  0
 29 30  1  1  0  0  0
 31 32  1  0  0  0  0
 33 34  1  0  0  0  0
 33 38  1  0  0  0  0
 33 39  1  1  0  0  0
 34 35  1  0  0  0  0
 35 36  1  0  0  0  0
 35 40  1  1  0  0  0
 36 24  1  6  0  0  0
 36 37  1  0  0  0  0
 37 38  1  0  0  0  0
 37 41  1  1  0  0  0
 38 42  1  6  0  0  0
M  CHG  6  14   1  20   1  26   1  32   1  39   1  40   1
M  END
>  <CHROM.1>
53.79998032,39.93655044,-172.91919538,-160.20306071,-140.25806195,-157.06338597
149.49866700,60.42641911,66.48016128,-176.31141880,70.45580392,-61.95229301
66.03074928,86.57983515,179.90390975,82.05152412,-64.23739925,-143.39799719
-78.46225245,96.63940766,-41.21922128,-87.88247822,-4.44731628,-6.37402080
0.95501303,3.00339906,1.14530813,-2.66404061

>  <Name>


>  <RI>
0

>  <Rbt.Current_Directory>
/home/itssahil/PROJECTS/Mol_Feturizer/New_Systems/rnas/1qd3

>  <Rbt.Executable>
rbdock ($Id: //depot/dev/client3/rdock/2013.1/src/exe/rbdock.cxx#4 $)

>  <Rbt.Library>
libRbt.so (2013.1, Build901 2013/11/27)

>  <Rbt.Parameter_File>
/export/apps/rDock/src/rDock_2013.1_src/data/scripts/dock_solv.prm

>  <Rbt.Receptor>
prm/blind_docking_40.prm

>  <SCORE>
-38.9733

>  <SCORE.INTER>
-29.9374

>  <SCORE.INTER.CONST>
1

>  <SCORE.INTER.POLAR>
-3.94236

>  <SCORE.INTER.ROT>
9

>  <SCORE.INTER.SOLV>
33.5082

>  <SCORE.INTER.VDW>
-27.5865

>  <SCORE.INTER.norm>
-0.712796

>  <SCORE.INTRA>
-11.946

>  <SCORE.INTRA.DIHEDRAL>
-9.52694

>  <SCORE.INTRA.DIHEDRAL.0>
40.6252

>  <SCORE.INTRA.POLAR>
-0.422007

>  <SCORE.INTRA.POLAR.0>
-1.20161

>  <SCORE.INTRA.REPUL>
-0.115675

>  <SCORE.INTRA.REPUL.0>
0.115675

>  <SCORE.INTRA.SOLV>
-6.82077

>  <SCORE.INTRA.SOLV.lig_0>
-154.895

>  <SCORE.INTRA.VDW>
-1.75891

>  <SCORE.INTRA.VDW.0>
2.2925

>  <SCORE.INTRA.norm>
-0.284428

>  <SCORE.RESTR>
2.91012

>  <SCORE.RESTR.CAVITY>
2.91012

>  <SCORE.RESTR.norm>
0.0692886

>  <SCORE.SYSTEM>
0

>  <SCORE.SYSTEM.CONST>
0

>  <SCORE.SYSTEM.DIHEDRAL>
0

>  <SCORE.SYSTEM.SOLV>
0

>  <SCORE.SYSTEM.norm>
0

>  <SCORE.heavy>
42

>  <SCORE.norm>
-0.927935

>  <RMSD>
15.381

$$$$

 OpenBabel11021811413D
libRbt.so/2013.1/901 2013/11/27
 42 45  0  0  0  0  0  0  0  0999 V2000
   -5.6521   -3.1090    2.4169 O   0  0  0  0  0  0  0  0  0  0  0  0
   -4.9806   -4.3359    2.1686 C   0  0  0  0  0  0  0  0  0  0  0  0
   -3.7747   -4.4638    3.1002 C   0  0  1  0  0  0  0  0  0  0  0  0
   -3.6819   -5.7921    3.6594 O   0  0  0  0  0  0  0  0  0  0  0  0
   -2.4464   -4.2143    2.4054 C   0  0  2  0  0  0  0  0  0  0  0  0
   -1.4930   -4.8814    3.3826 C   0  0  1  0  0  0  0  0  0  0  0  0
   -1.2934   -4.0378    4.5115 O   0  0  0  0  0  0  0  0  0  0  0  0
   -2.2811   -6.1393    3.8012 C   0  0  2  0  0  0  0  0  0  0  0  0
   -4.2508    0.0121    1.1875 C   0  0  2  0  0  0  0  0  0  0  0  0
   -3.1687   -0.6989    1.8080 O   0  0  0  0  0  0  0  0  0  0  0  0
   -3.2506   -2.1159    1.5710 C   0  0  2  0  0  0  0  0  0  0  0  0
   -2.1837   -2.8053    2.2552 O   0  0  0  0  0  0  0  0  0  0  0  0
   -3.2014   -2.4180    0.0634 C   0  0  2  0  0  0  0  0  0  0  0  0
   -1.8469   -2.2927   -0.4428 N   0  3  0  0  0  0  0  0  0  0  0  0
   -4.1630   -1.5477   -0.7543 C   0  0  1  0  0  0  0  0  0  0  0  0
   -5.4838   -2.0466   -0.6149 O   0  0  0  0  0  0  0  0  0  0  0  0
   -4.1224   -0.0829   -0.3274 C   0  0  2  0  0  0  0  0  0  0  0  0
   -2.9031    0.5136   -0.7540 O   0  0  0  0  0  0  0  0  0  0  0  0
   -4.2671    1.4691    1.6411 C   0  0  0  0  0  0  0  0  0  0  0  0
   -5.5993    2.0273    1.5045 N   0  3  0  0  0  0  0  0  0  0  0  0
   -5.9392   -9.0393   -0.9812 C   0  0  1  0  0  0  0  0  0  0  0  0
   -4.6383   -9.6636   -0.9751 O   0  0  0  0  0  0  0  0  0  0  0  0
   -3.5981   -8.8145   -0.4380 C   0  0  2  0  0  0  0  0  0  0  0  0
   -3.7961   -8.5373    0.9704 O   0  0  0  0  0  0  0  0  0  0  0  0
   -3.4887   -7.5163   -1.2469 C   0  0  2  0  0  0  0  0  0  0  0  0
   -2.5956   -6.5891   -0.5773 N   0  3  0  0  0  0  0  0  0  0  0  0
   -4.8482   -6.8531   -1.4378 C   0  0  1  0  0  0  0  0  0  0  0  0
   -4.7370   -5.7975   -2.3798 O   0  0  0  0  0  0  0  0  0  0  0  0
   -5.9300   -7.8215   -1.8907 C   0  0  2  0  0  0  0  0  0  0  0  0
   -7.2007   -7.1879   -1.8677 O   0  0  0  0  0  0  0  0  0  0  0  0
   -6.9831  -10.0127   -1.5211 C   0  0  0  0  0  0  0  0  0  0  0  0
   -6.7232  -11.3600   -1.0478 N   0  3  0  0  0  0  0  0  0  0  0  0
   -2.6194  -10.6781    4.4536 C   0  0  2  0  0  0  0  0  0  0  0  0
   -2.5811  -11.4054    3.1241 C   0  0  0  0  0  0  0  0  0  0  0  0
   -3.3934  -10.6557    2.0844 C   0  0  1  0  0  0  0  0  0  0  0  0
   -2.8582   -9.2475    1.8211 C   0  0  2  0  0  0  0  0  0  0  0  0
   -2.6585   -8.4747    3.1454 C   0  0  1  0  0  0  0  0  0  0  0  0
   -2.0594   -9.2690    4.3135 C   0  0  1  0  0  0  0  0  0  0  0  0
   -1.8415  -11.4170    5.4297 N   0  3  0  0  0  0  0  0  0  0  0  0
   -3.4181  -11.4291    0.8582 N   0  3  0  0  0  0  0  0  0  0  0  0
   -1.9077   -7.2529    2.9398 O   0  0  0  0  0  0  0  0  0  0  0  0
   -2.2488   -8.5539    5.5299 O   0  0  0  0  0  0  0  0  0  0  0  0
  1  2  1  0  0  0  0
  3  2  1  6  0  0  0
  3  4  1  0  0  0  0
  3  5  1  0  0  0  0
  4  8  1  0  0  0  0
  5  6  1  0  0  0  0
  5 12  1  1  0  0  0
  6  7  1  1  0  0  0
  6  8  1  0  0  0  0
  8 41  1  6  0  0  0
  9 10  1  0  0  0  0
  9 17  1  0  0  0  0
  9 19  1  6  0  0  0
 10 11  1  0  0  0  0
 11 12  1  1  0  0  0
 11 13  1  0  0  0  0
 13 14  1  6  0  0  0
 13 15  1  0  0  0  0
 15 16  1  1  0  0  0
 15 17  1  0  0  0  0
 17 18  1  1  0  0  0
 19 20  1  0  0  0  0
 21 22  1  0  0  0  0
 21 29  1  0  0  0  0
 21 31  1  6  0  0  0
 22 23  1  0  0  0  0
 23 24  1  1  0  0  0
 23 25  1  0  0  0  0
 25 26  1  1  0  0  0
 25 27  1  0  0  0  0
 27 28  1  6  0  0  0
 27 29  1  0  0  0  0
 29 30  1  1  0  0  0
 31 32  1  0  0  0  0
 33 34  1  0  0  0  0
 33 38  1  0  0  0  0
 33 39  1  1  0  0  0
 34 35  1  0  0  0  0
 35 36  1  0  0  0  0
 35 40  1  6  0  0  0
 36 24  1  6  0  0  0
 36 37  1  0  0  0  0
 37 38  1  0  0  0  0
 37 41  1  6  0  0  0
 38 42  1  1  0  0  0
M  CHG  6  14   1  20   1  26   1  32   1  39   1  40   1
M  END
>  <CHROM.1>
-66.15022127,136.32907139,-55.12791058,-46.48415606,-57.99704312,-155.84786552
161.76464568,118.37683171,85.92220740,-60.37693888,-75.98348538,38.71718792
106.99594797,-84.26946359,63.65370195,-54.77046293,59.19938781,-50.28326678
-69.25956424,74.51223982,146.18047620,62.16013105,-3.72639326,-5.79349527
1.25544630,-1.61204825,1.02862877,3.08438313

>  <Name>


>  <RI>
0

>  <Rbt.Current_Directory>
/home/itssahil/PROJECTS/Mol_Feturizer/New_Systems/rnas/1qd3

>  <Rbt.Executable>
rbdock ($Id: //depot/dev/client3/rdock/2013.1/src/exe/rbdock.cxx#4 $)

>  <Rbt.Library>
libRbt.so (2013.1, Build901 2013/11/27)

>  <Rbt.Parameter_File>
/export/apps/rDock/src/rDock_2013.1_src/data/scripts/dock_solv.prm

>  <Rbt.Receptor>
prm/blind_docking_60.prm

>  <SCORE>
-64.2359

>  <SCORE.INTER>
-52.5222

>  <SCORE.INTER.CONST>
1

>  <SCORE.INTER.POLAR>
-7.67338

>  <SCORE.INTER.ROT>
9

>  <SCORE.INTER.SOLV>
35.4565

>  <SCORE.INTER.VDW>
-30.8557

>  <SCORE.INTER.norm>
-1.25053

>  <SCORE.INTRA>
-14.6079

>  <SCORE.INTRA.DIHEDRAL>
-9.05467

>  <SCORE.INTRA.DIHEDRAL.0>
40.6252

>  <SCORE.INTRA.POLAR>
-0.142337

>  <SCORE.INTRA.POLAR.0>
-1.20161

>  <SCORE.INTRA.REPUL>
0.00190347

>  <SCORE.INTRA.REPUL.0>
0.115675

>  <SCORE.INTRA.SOLV>
-4.38569

>  <SCORE.INTRA.SOLV.lig_0>
-154.895

>  <SCORE.INTRA.VDW>
-7.41326

>  <SCORE.INTRA.VDW.0>
2.2925

>  <SCORE.INTRA.norm>
-0.347806

>  <SCORE.RESTR>
2.89415

>  <SCORE.RESTR.CAVITY>
2.89415

>  <SCORE.RESTR.norm>
0.0689083

>  <SCORE.SYSTEM>
0

>  <SCORE.SYSTEM.CONST>
0

>  <SCORE.SYSTEM.DIHEDRAL>
0

>  <SCORE.SYSTEM.SOLV>
0

>  <SCORE.SYSTEM.norm>
0

>  <SCORE.heavy>
42

>  <SCORE.norm>
-1.52943

>  <RMSD>
15.402

$$$$

 OpenBabel11021811413D
libRbt.so/2013.1/901 2013/11/27
 42 45  0  0  0  0  0  0  0  0999 V2000
   -7.2489   -5.1786   -3.3458 O   0  0  0  0  0  0  0  0  0  0  0  0
   -6.7893   -4.7518   -2.0713 C   0  0  0  0  0  0  0  0  0  0  0  0
   -5.5958   -5.6046   -1.6391 C   0  0  1  0  0  0  0  0  0  0  0  0
   -4.8767   -4.9874   -0.5494 O   0  0  0  0  0  0  0  0  0  0  0  0
   -5.9893   -6.9865   -1.1442 C   0  0  2  0  0  0  0  0  0  0  0  0
   -4.7461   -7.3627   -0.3557 C   0  0  1  0  0  0  0  0  0  0  0  0
   -3.7099   -7.7544   -1.2495 O   0  0  0  0  0  0  0  0  0  0  0  0
   -4.3748   -6.0296    0.3251 C   0  0  2  0  0  0  0  0  0  0  0  0
   -9.3167   -8.1157   -4.1981 C   0  0  2  0  0  0  0  0  0  0  0  0
   -7.9146   -8.0034   -3.9101 O   0  0  0  0  0  0  0  0  0  0  0  0
   -7.6497   -8.0633   -2.4969 C   0  0  2  0  0  0  0  0  0  0  0  0
   -6.2408   -7.8894   -2.2390 O   0  0  0  0  0  0  0  0  0  0  0  0
   -8.1396   -9.3976   -1.9088 C   0  0  2  0  0  0  0  0  0  0  0  0
   -7.2265  -10.4746   -2.2448 N   0  3  0  0  0  0  0  0  0  0  0  0
   -9.5689   -9.7524   -2.3356 C   0  0  1  0  0  0  0  0  0  0  0  0
  -10.4908   -8.9862   -1.5768 O   0  0  0  0  0  0  0  0  0  0  0  0
   -9.8052   -9.5092   -3.8238 C   0  0  2  0  0  0  0  0  0  0  0  0
   -9.1191  -10.4914   -4.5912 O   0  0  0  0  0  0  0  0  0  0  0  0
   -9.5884   -7.8222   -5.6709 C   0  0  0  0  0  0  0  0  0  0  0  0
   -8.7639   -8.6654   -6.5159 N   0  3  0  0  0  0  0  0  0  0  0  0
   -2.8130   -9.2133    3.0508 C   0  0  1  0  0  0  0  0  0  0  0  0
   -3.8551   -8.2889    2.6745 O   0  0  0  0  0  0  0  0  0  0  0  0
   -4.1184   -7.2826    3.6792 C   0  0  2  0  0  0  0  0  0  0  0  0
   -2.9905   -6.3921    3.8650 O   0  0  0  0  0  0  0  0  0  0  0  0
   -4.5307   -7.9363    5.0038 C   0  0  2  0  0  0  0  0  0  0  0  0
   -4.5861   -6.9361    6.0537 N   0  3  0  0  0  0  0  0  0  0  0  0
   -3.5630   -9.0406    5.4143 C   0  0  1  0  0  0  0  0  0  0  0  0
   -4.1041   -9.7691    6.5055 O   0  0  0  0  0  0  0  0  0  0  0  0
   -3.2323  -10.0004    4.2816 C   0  0  2  0  0  0  0  0  0  0  0  0
   -2.1913  -10.8841    4.6716 O   0  0  0  0  0  0  0  0  0  0  0  0
   -2.5687  -10.2122    1.9233 C   0  0  0  0  0  0  0  0  0  0  0  0
   -2.3193   -9.5227    0.6707 N   0  3  0  0  0  0  0  0  0  0  0  0
   -3.9928   -2.4367    2.6609 C   0  0  2  0  0  0  0  0  0  0  0  0
   -2.5266   -2.7747    2.8454 C   0  0  0  0  0  0  0  0  0  0  0  0
   -2.3728   -4.0553    3.6449 C   0  0  1  0  0  0  0  0  0  0  0  0
   -3.0098   -5.2619    2.9541 C   0  0  2  0  0  0  0  0  0  0  0  0
   -4.4640   -4.9523    2.5292 C   0  0  1  0  0  0  0  0  0  0  0  0
   -4.7178   -3.5611    1.9338 C   0  0  1  0  0  0  0  0  0  0  0  0
   -4.1119   -1.2076    1.8998 N   0  3  0  0  0  0  0  0  0  0  0  0
   -0.9633   -4.2927    3.8881 N   0  3  0  0  0  0  0  0  0  0  0  0
   -4.9881   -5.9733    1.6450 O   0  0  0  0  0  0  0  0  0  0  0  0
   -6.1162   -3.2947    1.9106 O   0  0  0  0  0  0  0  0  0  0  0  0
  1  2  1  0  0  0  0
  3  2  1  1  0  0  0
  3  4  1  0  0  0  0
  3  5  1  0  0  0  0
  4  8  1  0  0  0  0
  5  6  1  0  0  0  0
  5 12  1  6  0  0  0
  6  7  1  6  0  0  0
  6  8  1  0  0  0  0
  8 41  1  1  0  0  0
  9 10  1  0  0  0  0
  9 17  1  0  0  0  0
  9 19  1  6  0  0  0
 10 11  1  0  0  0  0
 11 12  1  6  0  0  0
 11 13  1  0  0  0  0
 13 14  1  6  0  0  0
 13 15  1  0  0  0  0
 15 16  1  1  0  0  0
 15 17  1  0  0  0  0
 17 18  1  6  0  0  0
 19 20  1  0  0  0  0
 21 22  1  0  0  0  0
 21 29  1  0  0  0  0
 21 31  1  6  0  0  0
 22 23  1  0  0  0  0
 23 24  1  1  0  0  0
 23 25  1  0  0  0  0
 25 26  1  1  0  0  0
 25 27  1  0  0  0  0
 27 28  1  1  0  0  0
 27 29  1  0  0  0  0
 29 30  1  1  0  0  0
 31 32  1  0  0  0  0
 33 34  1  0  0  0  0
 33 38  1  0  0  0  0
 33 39  1  6  0  0  0
 34 35  1  0  0  0  0
 35 36  1  0  0  0  0
 35 40  1  6  0  0  0
 36 24  1  1  0  0  0
 36 37  1  0  0  0  0
 37 38  1  0  0  0  0
 37 41  1  6  0  0  0
 38 42  1  1  0  0  0
M  CHG  6  14   1  20   1  26   1  32   1  39   1  40   1
M  END
>  <CHROM.1>
170.53628700,164.20863405,-100.99325422,-12.31553951,-78.10876836,53.98203827
135.57903524,-72.07978927,61.72057259,-171.91040239,-77.05078275,53.19076323
87.50673780,148.21120545,-103.79834745,141.19249402,-166.68997933,-160.98165167
54.61283799,-77.99371773,-68.23255970,171.50612186,-5.36292726,-7.14459348
0.49995268,3.10683392,0.98179670,2.92386397

>  <Name>


>  <RI>
0

>  <Rbt.Current_Directory>
/home/itssahil/PROJECTS/Mol_Feturizer/New_Systems/rnas/1qd3

>  <Rbt.Executable>
rbdock ($Id: //depot/dev/client3/rdock/2013.1/src/exe/rbdock.cxx#4 $)

>  <Rbt.Library>
libRbt.so (2013.1, Build901 2013/11/27)

>  <Rbt.Parameter_File>
/export/apps/rDock/src/rDock_2013.1_src/data/scripts/dock_solv.prm

>  <Rbt.Receptor>
prm/blind_docking_100.prm

>  <SCORE>
-46.0703

>  <SCORE.INTER>
-37.7585

>  <SCORE.INTER.CONST>
1

>  <SCORE.INTER.POLAR>
-5.38545

>  <SCORE.INTER.ROT>
9

>  <SCORE.INTER.SOLV>
25.6826

>  <SCORE.INTER.VDW>
-25.3817

>  <SCORE.INTER.norm>
-0.899013

>  <SCORE.INTRA>
-9.65734

>  <SCORE.INTRA.DIHEDRAL>
1.38625

>  <SCORE.INTRA.DIHEDRAL.0>
40.6252

>  <SCORE.INTRA.POLAR>
-0.921315

>  <SCORE.INTRA.POLAR.0>
-1.20161

>  <SCORE.INTRA.REPUL>
-0.115675

>  <SCORE.INTRA.REPUL.0>
0.115675

>  <SCORE.INTRA.SOLV>
-6.82041

>  <SCORE.INTRA.SOLV.lig_0>
-154.895

>  <SCORE.INTRA.VDW>
-3.22941

>  <SCORE.INTRA.VDW.0>
2.2925

>  <SCORE.INTRA.norm>
-0.229937

>  <SCORE.RESTR>
1.34561

>  <SCORE.RESTR.CAVITY>
1.34561

>  <SCORE.RESTR.norm>
0.0320383

>  <SCORE.SYSTEM>
0

>  <SCORE.SYSTEM.CONST>
0

>  <SCORE.SYSTEM.DIHEDRAL>
0

>  <SCORE.SYSTEM.SOLV>
0

>  <SCORE.SYSTEM.norm>
0

>  <SCORE.heavy>
42

>  <SCORE.norm>
-1.09691

>  <RMSD>
15.422

$$$$

 OpenBabel11021811413D
libRbt.so/2013.1/901 2013/11/27
 42 45  0  0  0  0  0  0  0  0999 V2000
   -1.8598   -2.6951   -0.3685 O   0  0  0  0  0  0  0  0  0  0  0  0
   -2.7725   -1.6068   -0.3533 C   0  0  0  0  0  0  0  0  0  0  0  0
   -3.8240   -1.7978   -1.4471 C   0  0  1  0  0  0  0  0  0  0  0  0
   -3.8580   -3.1654   -1.9097 O   0  0  0  0  0  0  0  0  0  0  0  0
   -5.2375   -1.4822   -0.9869 C   0  0  2  0  0  0  0  0  0  0  0  0
   -6.0438   -2.2164   -2.0450 C   0  0  1  0  0  0  0  0  0  0  0  0
   -6.0505   -1.4635   -3.2529 O   0  0  0  0  0  0  0  0  0  0  0  0
   -5.2275   -3.5105   -2.2387 C   0  0  2  0  0  0  0  0  0  0  0  0
   -2.6748    2.2533   -0.7545 C   0  0  2  0  0  0  0  0  0  0  0  0
   -3.7771    1.5349   -1.3292 O   0  0  0  0  0  0  0  0  0  0  0  0
   -4.4268    0.6865   -0.3655 C   0  0  2  0  0  0  0  0  0  0  0  0
   -5.4906   -0.0634   -0.9882 O   0  0  0  0  0  0  0  0  0  0  0  0
   -4.9747    1.5175    0.8074 C   0  0  2  0  0  0  0  0  0  0  0  0
   -6.1904    2.2110    0.4234 N   0  3  0  0  0  0  0  0  0  0  0  0
   -3.9482    2.5061    1.3729 C   0  0  1  0  0  0  0  0  0  0  0  0
   -3.0244    1.8081    2.1929 O   0  0  0  0  0  0  0  0  0  0  0  0
   -3.1950    3.2500    0.2735 C   0  0  2  0  0  0  0  0  0  0  0  0
   -4.0564    4.1941   -0.3519 O   0  0  0  0  0  0  0  0  0  0  0  0
   -1.8704    2.9626   -1.8402 C   0  0  0  0  0  0  0  0  0  0  0  0
   -2.7507    3.7206   -2.7093 N   0  3  0  0  0  0  0  0  0  0  0  0
   -4.6758   -7.3226    2.6092 C   0  0  1  0  0  0  0  0  0  0  0  0
   -5.0474   -6.1739    1.8190 O   0  0  0  0  0  0  0  0  0  0  0  0
   -4.5037   -6.2000    0.4792 C   0  0  2  0  0  0  0  0  0  0  0  0
   -5.0511   -7.2862   -0.3083 O   0  0  0  0  0  0  0  0  0  0  0  0
   -2.9720   -6.2631    0.5187 C   0  0  2  0  0  0  0  0  0  0  0  0
   -2.4514   -6.5008   -0.8148 N   0  3  0  0  0  0  0  0  0  0  0  0
   -2.4755   -7.3606    1.4534 C   0  0  1  0  0  0  0  0  0  0  0  0
   -1.0749   -7.2306    1.6417 O   0  0  0  0  0  0  0  0  0  0  0  0
   -3.1691   -7.3552    2.8070 C   0  0  2  0  0  0  0  0  0  0  0  0
   -2.8016   -8.5054    3.5544 O   0  0  0  0  0  0  0  0  0  0  0  0
   -5.3223   -7.2389    3.9889 C   0  0  0  0  0  0  0  0  0  0  0  0
   -4.8633   -8.3226    4.8384 N   0  3  0  0  0  0  0  0  0  0  0  0
   -7.6768   -6.9258   -3.6363 C   0  0  2  0  0  0  0  0  0  0  0  0
   -8.0726   -7.8672   -2.5159 C   0  0  0  0  0  0  0  0  0  0  0  0
   -6.8762   -8.1789   -1.6360 C   0  0  1  0  0  0  0  0  0  0  0  0
   -6.2956   -6.9323   -0.9668 C   0  0  2  0  0  0  0  0  0  0  0  0
   -6.0432   -5.8140   -2.0044 C   0  0  1  0  0  0  0  0  0  0  0  0
   -7.1252   -5.6221   -3.0753 C   0  0  1  0  0  0  0  0  0  0  0  0
   -8.8349   -6.6488   -4.4646 N   0  3  0  0  0  0  0  0  0  0  0  0
   -7.2663   -9.1574   -0.6395 N   0  3  0  0  0  0  0  0  0  0  0  0
   -5.7516   -4.5487   -1.3619 O   0  0  0  0  0  0  0  0  0  0  0  0
   -6.6165   -4.8202   -4.1361 O   0  0  0  0  0  0  0  0  0  0  0  0
  1  2  1  0  0  0  0
  3  2  1  1  0  0  0
  3  4  1  0  0  0  0
  3  5  1  0  0  0  0
  4  8  1  0  0  0  0
  5  6  1  0  0  0  0
  5 12  1  6  0  0  0
  6  7  1  6  0  0  0
  6  8  1  0  0  0  0
  8 41  1  1  0  0  0
  9 10  1  0  0  0  0
  9 17  1  0  0  0  0
  9 19  1  6  0  0  0
 10 11  1  0  0  0  0
 11 12  1  6  0  0  0
 11 13  1  0  0  0  0
 13 14  1  6  0  0  0
 13 15  1  0  0  0  0
 15 16  1  6  0  0  0
 15 17  1  0  0  0  0
 17 18  1  6  0  0  0
 19 20  1  0  0  0  0
 21 22  1  0  0  0  0
 21 29  1  0  0  0  0
 21 31  1  1  0  0  0
 22 23  1  0  0  0  0
 23 24  1  1  0  0  0
 23 25  1  0  0  0  0
 25 26  1  6  0  0  0
 25 27  1  0  0  0  0
 27 28  1  1  0  0  0
 27 29  1  0  0  0  0
 29 30  1  6  0  0  0
 31 32  1  0  0  0  0
 33 34  1  0  0  0  0
 33 38  1  0  0  0  0
 33 39  1  1  0  0  0
 34 35  1  0  0  0  0
 35 36  1  0  0  0  0
 35 40  1  1  0  0  0
 36 24  1  6  0  0  0
 36 37  1  0  0  0  0
 37 38  1  0  0  0  0
 37 41  1  1  0  0  0
 38 42  1  6  0  0  0
M  CHG  6  14   1  20   1  26   1  32   1  39   1  40   1
M  END
>  <CHROM.1>
144.16913997,17.29413249,-46.88244637,63.19075846,-113.83776653,49.69868202
115.15566344,103.59028359,173.02272764,167.03081873,55.43092583,-174.82902389
86.52318501,-173.54276353,142.38263241,53.88411912,-179.61870608,-171.22225867
-178.86099432,-169.48981452,167.61869474,-46.89166200,-4.65501902,-3.40652106
-0.41854375,-1.31191855,0.94223422,2.83338524

>  <Name>


>  <RI>
0

>  <Rbt.Current_Directory>
/home/itssahil/PROJECTS/Mol_Feturizer/New_Systems/rnas/1qd3

>  <Rbt.Executable>
rbdock ($Id: //depot/dev/client3/rdock/2013.1/src/exe/rbdock.cxx#4 $)

>  <Rbt.Library>
libRbt.so (2013.1, Build901 2013/11/27)

>  <Rbt.Parameter_File>
/export/apps/rDock/src/rDock_2013.1_src/data/scripts/dock_solv.prm

>  <Rbt.Receptor>
prm/blind_docking_100.prm

>  <SCORE>
-70.9638

>  <SCORE.INTER>
-65.7398

>  <SCORE.INTER.CONST>
1

>  <SCORE.INTER.POLAR>
-9.94106

>  <SCORE.INTER.ROT>
9

>  <SCORE.INTER.SOLV>
33.7875

>  <SCORE.INTER.VDW>
-31.5522

>  <SCORE.INTER.norm>
-1.56523

>  <SCORE.INTRA>
-8.47825

>  <SCORE.INTRA.DIHEDRAL>
-3.48458

>  <SCORE.INTRA.DIHEDRAL.0>
40.6252

>  <SCORE.INTRA.POLAR>
0.303668

>  <SCORE.INTRA.POLAR.0>
-1.20161

>  <SCORE.INTRA.REPUL>
-0.115675

>  <SCORE.INTRA.REPUL.0>
0.115675

>  <SCORE.INTRA.SOLV>
-7.88528

>  <SCORE.INTRA.SOLV.lig_0>
-154.895

>  <SCORE.INTRA.VDW>
-3.24742

>  <SCORE.INTRA.VDW.0>
2.2925

>  <SCORE.INTRA.norm>
-0.201863

>  <SCORE.RESTR>
3.25422

>  <SCORE.RESTR.CAVITY>
3.25422

>  <SCORE.RESTR.norm>
0.0774814

>  <SCORE.SYSTEM>
0

>  <SCORE.SYSTEM.CONST>
0

>  <SCORE.SYSTEM.DIHEDRAL>
0

>  <SCORE.SYSTEM.SOLV>
0

>  <SCORE.SYSTEM.norm>
0

>  <SCORE.heavy>
42

>  <SCORE.norm>
-1.68961

>  <RMSD>
15.434

$$$$

 OpenBabel11021811413D
libRbt.so/2013.1/901 2013/11/27
 42 45  0  0  0  0  0  0  0  0999 V2000
   -2.4716   -4.1804    5.1125 O   0  0  0  0  0  0  0  0  0  0  0  0
   -1.1562   -3.9742    4.6175 C   0  0  0  0  0  0  0  0  0  0  0  0
   -1.0878   -4.3801    3.1447 C   0  0  1  0  0  0  0  0  0  0  0  0
   -1.1961   -5.8118    2.9891 O   0  0  0  0  0  0  0  0  0  0  0  0
   -2.2057   -3.7874    2.3030 C   0  0  2  0  0  0  0  0  0  0  0  0
   -2.1759   -4.7219    1.1052 C   0  0  1  0  0  0  0  0  0  0  0  0
   -1.0828   -4.3838    0.2585 O   0  0  0  0  0  0  0  0  0  0  0  0
   -1.9227   -6.0923    1.7659 C   0  0  2  0  0  0  0  0  0  0  0  0
   -4.1749    0.3487    1.1432 C   0  0  2  0  0  0  0  0  0  0  0  0
   -3.0142   -0.3382    1.6355 O   0  0  0  0  0  0  0  0  0  0  0  0
   -3.0801   -1.7535    1.3838 C   0  0  2  0  0  0  0  0  0  0  0  0
   -1.9284   -2.4201    1.9413 O   0  0  0  0  0  0  0  0  0  0  0  0
   -3.1799   -2.0324   -0.1257 C   0  0  2  0  0  0  0  0  0  0  0  0
   -1.8898   -1.8593   -0.7677 N   0  3  0  0  0  0  0  0  0  0  0  0
   -4.2460   -1.1799   -0.8239 C   0  0  1  0  0  0  0  0  0  0  0  0
   -5.5303   -1.7202   -0.5567 O   0  0  0  0  0  0  0  0  0  0  0  0
   -4.2027    0.2793   -0.3783 C   0  0  2  0  0  0  0  0  0  0  0  0
   -3.0520    0.9182   -0.9189 O   0  0  0  0  0  0  0  0  0  0  0  0
   -4.1853    1.7980    1.6212 C   0  0  0  0  0  0  0  0  0  0  0  0
   -5.5155    2.1777    2.0585 N   0  3  0  0  0  0  0  0  0  0  0  0
   -6.8713   -9.7670   -1.4737 C   0  0  1  0  0  0  0  0  0  0  0  0
   -5.5071   -9.5769   -1.9039 O   0  0  0  0  0  0  0  0  0  0  0  0
   -4.9068   -8.3670   -1.3870 C   0  0  2  0  0  0  0  0  0  0  0  0
   -4.7562   -8.4076    0.0536 O   0  0  0  0  0  0  0  0  0  0  0  0
   -5.7096   -7.1358   -1.8245 C   0  0  2  0  0  0  0  0  0  0  0  0
   -5.2250   -5.9566   -1.1315 N   0  3  0  0  0  0  0  0  0  0  0  0
   -7.1991   -7.3041   -1.5457 C   0  0  1  0  0  0  0  0  0  0  0  0
   -7.9241   -6.2581   -2.1736 O   0  0  0  0  0  0  0  0  0  0  0  0
   -7.7481   -8.6456   -2.0066 C   0  0  2  0  0  0  0  0  0  0  0  0
   -9.0830   -8.8147   -1.5528 O   0  0  0  0  0  0  0  0  0  0  0  0
   -7.4146  -11.0818   -2.0257 C   0  0  0  0  0  0  0  0  0  0  0  0
   -8.8236  -11.2289   -1.7096 N   0  3  0  0  0  0  0  0  0  0  0  0
   -1.7272  -10.2411    2.4121 C   0  0  2  0  0  0  0  0  0  0  0  0
   -1.7543  -10.5444    0.9271 C   0  0  0  0  0  0  0  0  0  0  0  0
   -3.0933  -10.1538    0.3292 C   0  0  1  0  0  0  0  0  0  0  0  0
   -3.3884   -8.6598    0.4696 C   0  0  2  0  0  0  0  0  0  0  0  0
   -3.1865   -8.1906    1.9290 C   0  0  1  0  0  0  0  0  0  0  0  0
   -1.9650   -8.7583    2.6638 C   0  0  1  0  0  0  0  0  0  0  0  0
   -0.4410  -10.6284    2.9596 N   0  3  0  0  0  0  0  0  0  0  0  0
   -3.1202  -10.5498   -1.0654 N   0  3  0  0  0  0  0  0  0  0  0  0
   -3.1977   -6.7453    2.0290 O   0  0  0  0  0  0  0  0  0  0  0  0
   -2.0916   -8.5230    4.0623 O   0  0  0  0  0  0  0  0  0  0  0  0
  1  2  1  0  0  0  0
  3  2  1  1  0  0  0
  3  4  1  0  0  0  0
  3  5  1  0  0  0  0
  4  8  1  0  0  0  0
  5  6  1  0  0  0  0
  5 12  1  6  0  0  0
  6  7  1  6  0  0  0
  6  8  1  0  0  0  0
  8 41  1  1  0  0  0
  9 10  1  0  0  0  0
  9 17  1  0  0  0  0
  9 19  1  6  0  0  0
 10 11  1  0  0  0  0
 11 12  1  6  0  0  0
 11 13  1  0  0  0  0
 13 14  1  6  0  0  0
 13 15  1  0  0  0  0
 15 16  1  1  0  0  0
 15 17  1  0  0  0  0
 17 18  1  6  0  0  0
 19 20  1  0  0  0  0
 21 22  1  0  0  0  0
 21 29  1  0  0  0  0
 21 31  1  6  0  0  0
 22 23  1  0  0  0  0
 23 24  1  1  0  0  0
 23 25  1  0  0  0  0
 25 26  1  1  0  0  0
 25 27  1  0  0  0  0
 27 28  1  6  0  0  0
 27 29  1  0  0  0  0
 29 30  1  1  0  0  0
 31 32  1  0  0  0  0
 33 34  1  0  0  0  0
 33 38  1  0  0  0  0
 33 39  1  6  0  0  0
 34 35  1  0  0  0  0
 35 36  1  0  0  0  0
 35 40  1  6  0  0  0
 36 24  1  1  0  0  0
 36 37  1  0  0  0  0
 37 38  1  0  0  0  0
 37 41  1  6  0  0  0
 38 42  1  1  0  0  0
M  CHG  6  14   1  20   1  26   1  32   1  39   1  40   1
M  END
>  <CHROM.1>
67.65989389,-70.06829682,-168.10265290,70.20736387,-96.00363175,-136.87648857
151.98312928,-53.31183997,-60.86194011,-47.36737112,76.30696509,-174.57761612
103.72916816,-78.75983842,177.58209579,-63.97981469,171.84876182,178.58464186
-80.47769055,-67.40199845,-84.73394892,165.91333509,-3.88578716,-5.65899087
0.60798339,-1.30395450,0.68194366,-3.13295086

>  <Name>


>  <RI>
0

>  <Rbt.Current_Directory>
/home/itssahil/PROJECTS/Mol_Feturizer/New_Systems/rnas/1qd3

>  <Rbt.Executable>
rbdock ($Id: //depot/dev/client3/rdock/2013.1/src/exe/rbdock.cxx#4 $)

>  <Rbt.Library>
libRbt.so (2013.1, Build901 2013/11/27)

>  <Rbt.Parameter_File>
/export/apps/rDock/src/rDock_2013.1_src/data/scripts/dock_solv.prm

>  <Rbt.Receptor>
prm/blind_docking_100.prm

>  <SCORE>
-56.3956

>  <SCORE.INTER>
-40.0581

>  <SCORE.INTER.CONST>
1

>  <SCORE.INTER.POLAR>
-5.65702

>  <SCORE.INTER.ROT>
9

>  <SCORE.INTER.SOLV>
33.5196

>  <SCORE.INTER.VDW>
-28.6219

>  <SCORE.INTER.norm>
-0.953765

>  <SCORE.INTRA>
-16.3821

>  <SCORE.INTRA.DIHEDRAL>
-10.341

>  <SCORE.INTRA.DIHEDRAL.0>
40.6252

>  <SCORE.INTRA.POLAR>
-0.937709

>  <SCORE.INTRA.POLAR.0>
-1.20161

>  <SCORE.INTRA.REPUL>
-0.00908755

>  <SCORE.INTRA.REPUL.0>
0.115675

>  <SCORE.INTRA.SOLV>
-5.19549

>  <SCORE.INTRA.SOLV.lig_0>
-154.895

>  <SCORE.INTRA.VDW>
-5.38019

>  <SCORE.INTRA.VDW.0>
2.2925

>  <SCORE.INTRA.norm>
-0.390049

>  <SCORE.RESTR>
0.0446076

>  <SCORE.RESTR.CAVITY>
0.0446076

>  <SCORE.RESTR.norm>
0.00106209

>  <SCORE.SYSTEM>
0

>  <SCORE.SYSTEM.CONST>
0

>  <SCORE.SYSTEM.DIHEDRAL>
0

>  <SCORE.SYSTEM.SOLV>
0

>  <SCORE.SYSTEM.norm>
0

>  <SCORE.heavy>
42

>  <SCORE.norm>
-1.34275

>  <RMSD>
15.468

$$$$

 OpenBabel11021811413D
libRbt.so/2013.1/901 2013/11/27
 42 45  0  0  0  0  0  0  0  0999 V2000
   -3.8892   -2.1495    1.7069 O   0  0  0  0  0  0  0  0  0  0  0  0
   -3.5392   -3.0410    2.7560 C   0  0  0  0  0  0  0  0  0  0  0  0
   -4.1103   -4.4298    2.4673 C   0  0  1  0  0  0  0  0  0  0  0  0
   -5.4938   -4.3543    2.0599 O   0  0  0  0  0  0  0  0  0  0  0  0
   -3.3885   -5.1578    1.3455 C   0  0  2  0  0  0  0  0  0  0  0  0
   -4.4341   -6.1945    0.9702 C   0  0  1  0  0  0  0  0  0  0  0  0
   -4.4335   -7.2468    1.9286 O   0  0  0  0  0  0  0  0  0  0  0  0
   -5.7454   -5.3897    1.0763 C   0  0  2  0  0  0  0  0  0  0  0  0
   -2.0247   -8.5588    4.1460 C   0  0  2  0  0  0  0  0  0  0  0  0
   -1.8226   -7.8072    2.9394 O   0  0  0  0  0  0  0  0  0  0  0  0
   -2.3267   -6.4641    3.0520 C   0  0  2  0  0  0  0  0  0  0  0  0
   -2.1609   -5.7559    1.8060 O   0  0  0  0  0  0  0  0  0  0  0  0
   -1.6186   -5.7122    4.1921 C   0  0  2  0  0  0  0  0  0  0  0  0
   -0.2855   -5.3036    3.7892 N   0  3  0  0  0  0  0  0  0  0  0  0
   -1.5628   -6.5159    5.4966 C   0  0  1  0  0  0  0  0  0  0  0  0
   -2.8274   -6.4619    6.1374 O   0  0  0  0  0  0  0  0  0  0  0  0
   -1.1704   -7.9722    5.2624 C   0  0  2  0  0  0  0  0  0  0  0  0
    0.2080   -8.0545    4.9193 O   0  0  0  0  0  0  0  0  0  0  0  0
   -1.6922  -10.0316    3.9242 C   0  0  0  0  0  0  0  0  0  0  0  0
   -2.7836  -10.7000    3.2407 N   0  3  0  0  0  0  0  0  0  0  0  0
   -5.7543   -3.0877   -2.9360 C   0  0  1  0  0  0  0  0  0  0  0  0
   -6.2891   -2.6365   -1.6740 O   0  0  0  0  0  0  0  0  0  0  0  0
   -7.7287   -2.4988   -1.6785 C   0  0  2  0  0  0  0  0  0  0  0  0
   -8.3962   -3.7748   -1.8397 O   0  0  0  0  0  0  0  0  0  0  0  0
   -8.1730   -1.5024   -2.7563 C   0  0  2  0  0  0  0  0  0  0  0  0
   -9.6173   -1.5316   -2.8928 N   0  3  0  0  0  0  0  0  0  0  0  0
   -7.5357   -1.8095   -4.1069 C   0  0  1  0  0  0  0  0  0  0  0  0
   -7.7819   -0.7393   -5.0060 O   0  0  0  0  0  0  0  0  0  0  0  0
   -6.0382   -2.0613   -4.0205 C   0  0  2  0  0  0  0  0  0  0  0  0
   -5.5426   -2.5230   -5.2686 O   0  0  0  0  0  0  0  0  0  0  0  0
   -4.2400   -3.2472   -2.8343 C   0  0  0  0  0  0  0  0  0  0  0  0
   -3.8981   -4.4559   -2.1071 N   0  3  0  0  0  0  0  0  0  0  0  0
   -7.1720   -7.8203   -2.3244 C   0  0  2  0  0  0  0  0  0  0  0  0
   -7.4311   -7.0004   -3.5729 C   0  0  0  0  0  0  0  0  0  0  0  0
   -8.2275   -5.7539   -3.2345 C   0  0  1  0  0  0  0  0  0  0  0  0
   -7.4945   -4.8327   -2.2583 C   0  0  2  0  0  0  0  0  0  0  0  0
   -6.9958   -5.6190   -1.0238 C   0  0  1  0  0  0  0  0  0  0  0  0
   -6.3987   -7.0061   -1.2958 C   0  0  1  0  0  0  0  0  0  0  0  0
   -6.4154   -9.0069   -2.6755 N   0  3  0  0  0  0  0  0  0  0  0  0
   -8.5430   -5.0486   -4.4615 N   0  3  0  0  0  0  0  0  0  0  0  0
   -6.0770   -4.8313   -0.2274 O   0  0  0  0  0  0  0  0  0  0  0  0
   -6.3038   -7.7372   -0.0778 O   0  0  0  0  0  0  0  0  0  0  0  0
  1  2  1  0  0  0  0
  3  2  1  6  0  0  0
  3  4  1  0  0  0  0
  3  5  1  0  0  0  0
  4  8  1  0  0  0  0
  5  6  1  0  0  0  0
  5 12  1  1  0  0  0
  6  7  1  1  0  0  0
  6  8  1  0  0  0  0
  8 41  1  6  0  0  0
  9 10  1  0  0  0  0
  9 17  1  0  0  0  0
  9 19  1  6  0  0  0
 10 11  1  0  0  0  0
 11 12  1  6  0  0  0
 11 13  1  0  0  0  0
 13 14  1  6  0  0  0
 13 15  1  0  0  0  0
 15 16  1  6  0  0  0
 15 17  1  0  0  0  0
 17 18  1  6  0  0  0
 19 20  1  0  0  0  0
 21 22  1  0  0  0  0
 21 29  1  0  0  0  0
 21 31  1  1  0  0  0
 22 23  1  0  0  0  0
 23 24  1  6  0  0  0
 23 25  1  0  0  0  0
 25 26  1  6  0  0  0
 25 27  1  0  0  0  0
 27 28  1  6  0  0  0
 27 29  1  0  0  0  0
 29 30  1  6  0  0  0
 31 32  1  0  0  0  0
 33 34  1  0  0  0  0
 33 38  1  0  0  0  0
 33 39  1  6  0  0  0
 34 35  1  0  0  0  0
 35 36  1  0  0  0  0
 35 40  1  6  0  0  0
 36 24  1  1  0  0  0
 36 37  1  0  0  0  0
 37 38  1  0  0  0  0
 37 41  1  6  0  0  0
 38 42  1  1  0  0  0
M  CHG  6  14   1  20   1  26   1  32   1  39   1  40   1
M  END
>  <CHROM.1>
-54.50411105,-46.78710860,45.98082704,-173.28637173,-148.04866777,-78.69227133
127.50210872,-176.36601655,-42.62813227,-177.82547094,170.11646445,76.05850469
-13.11934937,-142.99631320,80.64738322,-169.27693154,-41.13542105,95.73999844
-179.24745990,-48.58914783,169.23586930,61.64106766,-4.91475422,-5.29349342
0.10904059,-0.48797884,-0.90228301,-0.09118908

>  <Name>


>  <RI>
0

>  <Rbt.Current_Directory>
/home/itssahil/PROJECTS/Mol_Feturizer/New_Systems/rnas/1qd3

>  <Rbt.Executable>
rbdock ($Id: //depot/dev/client3/rdock/2013.1/src/exe/rbdock.cxx#4 $)

>  <Rbt.Library>
libRbt.so (2013.1, Build901 2013/11/27)

>  <Rbt.Parameter_File>
/export/apps/rDock/src/rDock_2013.1_src/data/scripts/dock_solv.prm

>  <Rbt.Receptor>
prm/blind_docking_40.prm

>  <SCORE>
-26.3527

>  <SCORE.INTER>
-26.3651

>  <SCORE.INTER.CONST>
1

>  <SCORE.INTER.POLAR>
-4.47307

>  <SCORE.INTER.ROT>
9

>  <SCORE.INTER.SOLV>
24.6325

>  <SCORE.INTER.VDW>
-20.4773

>  <SCORE.INTER.norm>
-0.627739

>  <SCORE.INTRA>
-6.7404

>  <SCORE.INTRA.DIHEDRAL>
-6.00454

>  <SCORE.INTRA.DIHEDRAL.0>
40.6252

>  <SCORE.INTRA.POLAR>
-0.38663

>  <SCORE.INTRA.POLAR.0>
-1.20161

>  <SCORE.INTRA.REPUL>
-0.115675

>  <SCORE.INTRA.REPUL.0>
0.115675

>  <SCORE.INTRA.SOLV>
-3.7102

>  <SCORE.INTRA.SOLV.lig_0>
-154.895

>  <SCORE.INTRA.VDW>
0.00988538

>  <SCORE.INTRA.VDW.0>
2.2925

>  <SCORE.INTRA.norm>
-0.160486

>  <SCORE.RESTR>
6.75278

>  <SCORE.RESTR.CAVITY>
6.75278

>  <SCORE.RESTR.norm>
0.16078

>  <SCORE.SYSTEM>
0

>  <SCORE.SYSTEM.CONST>
0

>  <SCORE.SYSTEM.DIHEDRAL>
0

>  <SCORE.SYSTEM.SOLV>
0

>  <SCORE.SYSTEM.norm>
0

>  <SCORE.heavy>
42

>  <SCORE.norm>
-0.627445

>  <RMSD>
15.490

$$$$

 OpenBabel11021811413D
libRbt.so/2013.1/901 2013/11/27
 42 45  0  0  0  0  0  0  0  0999 V2000
   -6.2508   -4.9481    1.3197 O   0  0  0  0  0  0  0  0  0  0  0  0
   -5.9547   -5.0025    2.7079 C   0  0  0  0  0  0  0  0  0  0  0  0
   -4.4561   -5.2309    2.9090 C   0  0  1  0  0  0  0  0  0  0  0  0
   -4.0945   -6.6042    2.6467 O   0  0  0  0  0  0  0  0  0  0  0  0
   -3.5886   -4.3916    1.9857 C   0  0  2  0  0  0  0  0  0  0  0  0
   -2.2840   -5.1679    2.0499 C   0  0  1  0  0  0  0  0  0  0  0  0
   -1.6142   -4.8825    3.2730 O   0  0  0  0  0  0  0  0  0  0  0  0
   -2.7734   -6.6305    2.0493 C   0  0  2  0  0  0  0  0  0  0  0  0
   -4.1785    0.2245    1.0039 C   0  0  2  0  0  0  0  0  0  0  0  0
   -3.9118   -0.7656    2.0089 O   0  0  0  0  0  0  0  0  0  0  0  0
   -3.6563   -2.0598    1.4340 C   0  0  2  0  0  0  0  0  0  0  0  0
   -3.4502   -3.0417    2.4709 O   0  0  0  0  0  0  0  0  0  0  0  0
   -2.4365   -2.0070    0.4983 C   0  0  2  0  0  0  0  0  0  0  0  0
   -1.2028   -1.9726    1.2621 N   0  3  0  0  0  0  0  0  0  0  0  0
   -2.4891   -0.8361   -0.4901 C   0  0  1  0  0  0  0  0  0  0  0  0
   -3.3859   -1.1494   -1.5439 O   0  0  0  0  0  0  0  0  0  0  0  0
   -2.9212    0.4661    0.1784 C   0  0  2  0  0  0  0  0  0  0  0  0
   -1.8756    0.9551    1.0103 O   0  0  0  0  0  0  0  0  0  0  0  0
   -4.6665    1.5216    1.6429 C   0  0  0  0  0  0  0  0  0  0  0  0
   -5.7484    2.0942    0.8642 N   0  3  0  0  0  0  0  0  0  0  0  0
   -6.1394   -5.5907   -2.1791 C   0  0  1  0  0  0  0  0  0  0  0  0
   -5.7086   -6.0677   -0.8873 O   0  0  0  0  0  0  0  0  0  0  0  0
   -5.5498   -7.5040   -0.8309 C   0  0  2  0  0  0  0  0  0  0  0  0
   -4.4755   -7.9660   -1.6865 O   0  0  0  0  0  0  0  0  0  0  0  0
   -6.8692   -8.2075   -1.1715 C   0  0  2  0  0  0  0  0  0  0  0  0
   -6.6468   -9.6339   -1.3179 N   0  3  0  0  0  0  0  0  0  0  0  0
   -7.4854   -7.6620   -2.4549 C   0  0  1  0  0  0  0  0  0  0  0  0
   -8.8038   -8.1659   -2.6039 O   0  0  0  0  0  0  0  0  0  0  0  0
   -7.5174   -6.1423   -2.5067 C   0  0  2  0  0  0  0  0  0  0  0  0
   -7.9246   -5.7008   -3.7935 O   0  0  0  0  0  0  0  0  0  0  0  0
   -6.2411   -4.0681   -2.1664 C   0  0  0  0  0  0  0  0  0  0  0  0
   -5.3369   -3.5007   -1.1829 N   0  3  0  0  0  0  0  0  0  0  0  0
   -3.2958  -10.8757    1.1844 C   0  0  2  0  0  0  0  0  0  0  0  0
   -3.1283  -11.2153   -0.2836 C   0  0  0  0  0  0  0  0  0  0  0  0
   -3.9488  -10.2724   -1.1442 C   0  0  1  0  0  0  0  0  0  0  0  0
   -3.5239   -8.8115   -0.9884 C   0  0  2  0  0  0  0  0  0  0  0  0
   -3.4582   -8.4104    0.5035 C   0  0  1  0  0  0  0  0  0  0  0  0
   -2.8525   -9.4454    1.4607 C   0  0  1  0  0  0  0  0  0  0  0  0
   -2.5073  -11.7936    1.9842 N   0  3  0  0  0  0  0  0  0  0  0  0
   -3.8453  -10.6882   -2.5293 N   0  3  0  0  0  0  0  0  0  0  0  0
   -2.8057   -7.1292    0.6812 O   0  0  0  0  0  0  0  0  0  0  0  0
   -3.1636   -9.0978    2.8059 O   0  0  0  0  0  0  0  0  0  0  0  0
  1  2  1  0  0  0  0
  3  2  1  6  0  0  0
  3  4  1  0  0  0  0
  3  5  1  0  0  0  0
  4  8  1  0  0  0  0
  5  6  1  0  0  0  0
  5 12  1  1  0  0  0
  6  7  1  1  0  0  0
  6  8  1  0  0  0  0
  8 41  1  6  0  0  0
  9 10  1  0  0  0  0
  9 17  1  0  0  0  0
  9 19  1  1  0  0  0
 10 11  1  0  0  0  0
 11 12  1  1  0  0  0
 11 13  1  0  0  0  0
 13 14  1  1  0  0  0
 13 15  1  0  0  0  0
 15 16  1  6  0  0  0
 15 17  1  0  0  0  0
 17 18  1  1  0  0  0
 19 20  1  0  0  0  0
 21 22  1  0  0  0  0
 21 29  1  0  0  0  0
 21 31  1  1  0  0  0
 22 23  1  0  0  0  0
 23 24  1  6  0  0  0
 23 25  1  0  0  0  0
 25 26  1  6  0  0  0
 25 27  1  0  0  0  0
 27 28  1  1  0  0  0
 27 29  1  0  0  0  0
 29 30  1  6  0  0  0
 31 32  1  0  0  0  0
 33 34  1  0  0  0  0
 33 38  1  0  0  0  0
 33 39  1  1  0  0  0
 34 35  1  0  0  0  0
 35 36  1  0  0  0  0
 35 40  1  6  0  0  0
 36 24  1  6  0  0  0
 36 37  1  0  0  0  0
 37 38  1  0  0  0  0
 37 41  1  6  0  0  0
 38 42  1  1  0  0  0
M  CHG  6  14   1  20   1  26   1  32   1  39   1  40   1
M  END
>  <CHROM.1>
114.56566388,-76.00294657,-133.39972776,175.78362259,-53.11224974,-139.15052222
162.62267987,77.08836555,-84.23467930,-165.47261615,-53.28038285,26.75582160
127.80032215,92.15042062,-177.82690894,64.73141772,58.06119326,-165.42505282
-179.83445874,65.54268508,176.29476499,-57.45548589,-4.34304322,-5.39750934
0.23703896,1.40582170,-0.78184334,0.03852063

>  <Name>


>  <RI>
0

>  <Rbt.Current_Directory>
/home/itssahil/PROJECTS/Mol_Feturizer/New_Systems/rnas/1qd3

>  <Rbt.Executable>
rbdock ($Id: //depot/dev/client3/rdock/2013.1/src/exe/rbdock.cxx#4 $)

>  <Rbt.Library>
libRbt.so (2013.1, Build901 2013/11/27)

>  <Rbt.Parameter_File>
/export/apps/rDock/src/rDock_2013.1_src/data/scripts/dock_solv.prm

>  <Rbt.Receptor>
prm/blind_docking_100.prm

>  <SCORE>
-59.9245

>  <SCORE.INTER>
-54.4861

>  <SCORE.INTER.CONST>
1

>  <SCORE.INTER.POLAR>
-6.72397

>  <SCORE.INTER.ROT>
9

>  <SCORE.INTER.SOLV>
28.4309

>  <SCORE.INTER.VDW>
-32.9878

>  <SCORE.INTER.norm>
-1.29729

>  <SCORE.INTRA>
-6.60671

>  <SCORE.INTRA.DIHEDRAL>
-0.261778

>  <SCORE.INTRA.DIHEDRAL.0>
40.6252

>  <SCORE.INTRA.POLAR>
0.0349408

>  <SCORE.INTRA.POLAR.0>
-1.20161

>  <SCORE.INTRA.REPUL>
-0.115675

>  <SCORE.INTRA.REPUL.0>
0.115675

>  <SCORE.INTRA.SOLV>
2.11785

>  <SCORE.INTRA.SOLV.lig_0>
-154.895

>  <SCORE.INTRA.VDW>
-7.07517

>  <SCORE.INTRA.VDW.0>
2.2925

>  <SCORE.INTRA.norm>
-0.157303

>  <SCORE.RESTR>
1.16825

>  <SCORE.RESTR.CAVITY>
1.16825

>  <SCORE.RESTR.norm>
0.0278156

>  <SCORE.SYSTEM>
0

>  <SCORE.SYSTEM.CONST>
0

>  <SCORE.SYSTEM.DIHEDRAL>
0

>  <SCORE.SYSTEM.SOLV>
0

>  <SCORE.SYSTEM.norm>
0

>  <SCORE.heavy>
42

>  <SCORE.norm>
-1.42677

>  <RMSD>
15.510

$$$$

 OpenBabel11021811413D
libRbt.so/2013.1/901 2013/11/27
 42 45  0  0  0  0  0  0  0  0999 V2000
   -6.8973   -4.6612    0.2981 O   0  0  0  0  0  0  0  0  0  0  0  0
   -5.5606   -4.2443    0.5371 C   0  0  0  0  0  0  0  0  0  0  0  0
   -5.0979   -4.7480    1.9048 C   0  0  1  0  0  0  0  0  0  0  0  0
   -4.9960   -6.1885    1.9268 O   0  0  0  0  0  0  0  0  0  0  0  0
   -3.7265   -4.2307    2.3060 C   0  0  2  0  0  0  0  0  0  0  0  0
   -3.3498   -5.2438    3.3741 C   0  0  1  0  0  0  0  0  0  0  0  0
   -4.0404   -4.9474    4.5829 O   0  0  0  0  0  0  0  0  0  0  0  0
   -3.8818   -6.5622    2.7764 C   0  0  2  0  0  0  0  0  0  0  0  0
   -4.4738    0.1712    0.9409 C   0  0  2  0  0  0  0  0  0  0  0  0
   -4.5676   -0.8107    1.9843 O   0  0  0  0  0  0  0  0  0  0  0  0
   -3.6372   -1.8913    1.7908 C   0  0  2  0  0  0  0  0  0  0  0  0
   -3.7975   -2.8871    2.8224 O   0  0  0  0  0  0  0  0  0  0  0  0
   -2.1913   -1.3666    1.7749 C   0  0  2  0  0  0  0  0  0  0  0  0
   -1.7391   -1.0624    3.1201 N   0  3  0  0  0  0  0  0  0  0  0  0
   -2.0040   -0.1522    0.8579 C   0  0  1  0  0  0  0  0  0  0  0  0
   -1.9476   -0.5856   -0.4919 O   0  0  0  0  0  0  0  0  0  0  0  0
   -3.1237    0.8724    1.0191 C   0  0  2  0  0  0  0  0  0  0  0  0
   -2.9919    1.5434    2.2669 O   0  0  0  0  0  0  0  0  0  0  0  0
   -5.6159    1.1779    1.0456 C   0  0  0  0  0  0  0  0  0  0  0  0
   -5.3419    2.3420    0.2242 N   0  3  0  0  0  0  0  0  0  0  0  0
   -6.1794   -9.4298   -1.5921 C   0  0  1  0  0  0  0  0  0  0  0  0
   -4.8496   -9.9118   -1.8773 O   0  0  0  0  0  0  0  0  0  0  0  0
   -3.8162   -9.2024   -1.1560 C   0  0  2  0  0  0  0  0  0  0  0  0
   -3.9053   -9.4188    0.2740 O   0  0  0  0  0  0  0  0  0  0  0  0
   -3.8522   -7.7066   -1.4921 C   0  0  2  0  0  0  0  0  0  0  0  0
   -2.9579   -6.9791   -0.6107 N   0  3  0  0  0  0  0  0  0  0  0  0
   -5.2587   -7.1323   -1.3641 C   0  0  1  0  0  0  0  0  0  0  0  0
   -5.2908   -5.8211   -1.9063 O   0  0  0  0  0  0  0  0  0  0  0  0
   -6.3193   -7.9851   -2.0432 C   0  0  2  0  0  0  0  0  0  0  0  0
   -7.6170   -7.5012   -1.7295 O   0  0  0  0  0  0  0  0  0  0  0  0
   -7.2096  -10.2557   -2.3572 C   0  0  0  0  0  0  0  0  0  0  0  0
   -6.9965  -10.1452   -3.7886 N   0  3  0  0  0  0  0  0  0  0  0  0
   -1.1649  -10.3665    3.3871 C   0  0  2  0  0  0  0  0  0  0  0  0
   -0.9282  -10.9771    2.0199 C   0  0  0  0  0  0  0  0  0  0  0  0
   -2.1790  -10.8722    1.1671 C   0  0  1  0  0  0  0  0  0  0  0  0
   -2.6074   -9.4243    0.9243 C   0  0  2  0  0  0  0  0  0  0  0  0
   -2.6809   -8.6386    2.2540 C   0  0  1  0  0  0  0  0  0  0  0  0
   -1.5540   -8.8997    3.2622 C   0  0  1  0  0  0  0  0  0  0  0  0
    0.0419  -10.4846    4.1831 N   0  3  0  0  0  0  0  0  0  0  0  0
   -1.9494  -11.5537   -0.0920 N   0  3  0  0  0  0  0  0  0  0  0  0
   -2.8197   -7.2151    2.0233 O   0  0  0  0  0  0  0  0  0  0  0  0
   -1.9228   -8.3904    4.5396 O   0  0  0  0  0  0  0  0  0  0  0  0
  1  2  1  0  0  0  0
  3  2  1  6  0  0  0
  3  4  1  0  0  0  0
  3  5  1  0  0  0  0
  4  8  1  0  0  0  0
  5  6  1  0  0  0  0
  5 12  1  1  0  0  0
  6  7  1  1  0  0  0
  6  8  1  0  0  0  0
  8 41  1  6  0  0  0
  9 10  1  0  0  0  0
  9 17  1  0  0  0  0
  9 19  1  1  0  0  0
 10 11  1  0  0  0  0
 11 12  1  1  0  0  0
 11 13  1  0  0  0  0
 13 14  1  1  0  0  0
 13 15  1  0  0  0  0
 15 16  1  6  0  0  0
 15 17  1  0  0  0  0
 17 18  1  1  0  0  0
 19 20  1  0  0  0  0
 21 22  1  0  0  0  0
 21 29  1  0  0  0  0
 21 31  1  6  0  0  0
 22 23  1  0  0  0  0
 23 24  1  1  0  0  0
 23 25  1  0  0  0  0
 25 26  1  1  0  0  0
 25 27  1  0  0  0  0
 27 28  1  6  0  0  0
 27 29  1  0  0  0  0
 29 30  1  1  0  0  0
 31 32  1  0  0  0  0
 33 34  1  0  0  0  0
 33 38  1  0  0  0  0
 33 39  1  1  0  0  0
 34 35  1  0  0  0  0
 35 36  1  0  0  0  0
 35 40  1  6  0  0  0
 36 24  1  1  0  0  0
 36 37  1  0  0  0  0
 37 38  1  0  0  0  0
 37 41  1  6  0  0  0
 38 42  1  1  0  0  0
M  CHG  6  14   1  20   1  26   1  32   1  39   1  40   1
M  END
>  <CHROM.1>
-55.47347206,66.69141143,-90.40455592,-55.57729107,-108.10532675,165.60423179
138.30538994,38.96307433,-62.79466035,-156.81579166,123.36609857,-60.99668332
146.79535761,-100.22192826,58.23285417,-176.46339140,63.98820211,171.57240345
-69.51771240,-56.16746478,130.85949120,-58.62753591,-3.84370527,-5.72503339
0.92586312,1.59074554,-0.84578706,0.14431071

>  <Name>


>  <RI>
0

>  <Rbt.Current_Directory>
/home/itssahil/PROJECTS/Mol_Feturizer/New_Systems/rnas/1qd3

>  <Rbt.Executable>
rbdock ($Id: //depot/dev/client3/rdock/2013.1/src/exe/rbdock.cxx#4 $)

>  <Rbt.Library>
libRbt.so (2013.1, Build901 2013/11/27)

>  <Rbt.Parameter_File>
/export/apps/rDock/src/rDock_2013.1_src/data/scripts/dock_solv.prm

>  <Rbt.Receptor>
prm/blind_docking_100.prm

>  <SCORE>
-63.376

>  <SCORE.INTER>
-51.1351

>  <SCORE.INTER.CONST>
1

>  <SCORE.INTER.POLAR>
-7.16945

>  <SCORE.INTER.ROT>
9

>  <SCORE.INTER.SOLV>
28.9746

>  <SCORE.INTER.VDW>
-29.4501

>  <SCORE.INTER.norm>
-1.2175

>  <SCORE.INTRA>
-13.2973

>  <SCORE.INTRA.DIHEDRAL>
1.15461

>  <SCORE.INTRA.DIHEDRAL.0>
40.6252

>  <SCORE.INTRA.POLAR>
-0.211092

>  <SCORE.INTRA.POLAR.0>
-1.20161

>  <SCORE.INTRA.REPUL>
-0.115675

>  <SCORE.INTRA.REPUL.0>
0.115675

>  <SCORE.INTRA.SOLV>
-4.98327

>  <SCORE.INTRA.SOLV.lig_0>
-154.895

>  <SCORE.INTRA.VDW>
-10.0869

>  <SCORE.INTRA.VDW.0>
2.2925

>  <SCORE.INTRA.norm>
-0.316603

>  <SCORE.RESTR>
1.05637

>  <SCORE.RESTR.CAVITY>
1.05637

>  <SCORE.RESTR.norm>
0.0251517

>  <SCORE.SYSTEM>
0

>  <SCORE.SYSTEM.CONST>
0

>  <SCORE.SYSTEM.DIHEDRAL>
0

>  <SCORE.SYSTEM.SOLV>
0

>  <SCORE.SYSTEM.norm>
0

>  <SCORE.heavy>
42

>  <SCORE.norm>
-1.50895

>  <RMSD>
15.618

$$$$

 OpenBabel11021811413D
libRbt.so/2013.1/901 2013/11/27
 42 45  0  0  0  0  0  0  0  0999 V2000
   -4.4016   -3.9468    1.8202 O   0  0  0  0  0  0  0  0  0  0  0  0
   -5.0197   -5.1128    2.3458 C   0  0  0  0  0  0  0  0  0  0  0  0
   -4.9920   -6.2291    1.3011 C   0  0  1  0  0  0  0  0  0  0  0  0
   -5.2414   -5.7137   -0.0248 O   0  0  0  0  0  0  0  0  0  0  0  0
   -3.6550   -6.9470    1.2204 C   0  0  2  0  0  0  0  0  0  0  0  0
   -3.7657   -7.5852   -0.1541 C   0  0  1  0  0  0  0  0  0  0  0  0
   -4.6077   -8.7308   -0.0861 O   0  0  0  0  0  0  0  0  0  0  0  0
   -4.4550   -6.4762   -0.9750 C   0  0  2  0  0  0  0  0  0  0  0  0
   -1.8997   -5.7008    4.6800 C   0  0  2  0  0  0  0  0  0  0  0  0
   -2.8528   -6.1644    3.7114 O   0  0  0  0  0  0  0  0  0  0  0  0
   -2.5744   -7.5102    3.2847 C   0  0  2  0  0  0  0  0  0  0  0  0
   -3.5140   -7.9236    2.2709 O   0  0  0  0  0  0  0  0  0  0  0  0
   -2.6172   -8.4784    4.4793 C   0  0  2  0  0  0  0  0  0  0  0  0
   -3.9878   -8.7593    4.8655 N   0  3  0  0  0  0  0  0  0  0  0  0
   -1.8110   -7.9800    5.6845 C   0  0  1  0  0  0  0  0  0  0  0  0
   -0.4293   -8.2011    5.4507 O   0  0  0  0  0  0  0  0  0  0  0  0
   -2.0507   -6.4996    5.9683 C   0  0  2  0  0  0  0  0  0  0  0  0
   -3.3532   -6.3137    6.5100 O   0  0  0  0  0  0  0  0  0  0  0  0
   -2.0812   -4.2084    4.9416 C   0  0  0  0  0  0  0  0  0  0  0  0
   -1.6238   -3.4350    3.8025 N   0  3  0  0  0  0  0  0  0  0  0  0
   -7.8155   -4.2979   -5.2375 C   0  0  1  0  0  0  0  0  0  0  0  0
   -8.0569   -3.9439   -3.8596 O   0  0  0  0  0  0  0  0  0  0  0  0
   -7.3658   -4.7980   -2.9193 C   0  0  2  0  0  0  0  0  0  0  0  0
   -5.9268   -4.6541   -3.0104 O   0  0  0  0  0  0  0  0  0  0  0  0
   -7.7881   -6.2604   -3.1059 C   0  0  2  0  0  0  0  0  0  0  0  0
   -6.9399   -7.1267   -2.3086 N   0  3  0  0  0  0  0  0  0  0  0  0
   -7.7098   -6.6890   -4.5670 C   0  0  1  0  0  0  0  0  0  0  0  0
   -8.3272   -7.9569   -4.7269 O   0  0  0  0  0  0  0  0  0  0  0  0
   -8.3509   -5.6921   -5.5201 C   0  0  2  0  0  0  0  0  0  0  0  0
   -8.0807   -6.0529   -6.8667 O   0  0  0  0  0  0  0  0  0  0  0  0
   -8.5436   -3.3261   -6.1617 C   0  0  0  0  0  0  0  0  0  0  0  0
   -8.1170   -3.5074   -7.5372 N   0  3  0  0  0  0  0  0  0  0  0  0
   -3.4789   -1.9219   -0.8558 C   0  0  2  0  0  0  0  0  0  0  0  0
   -4.9777   -1.8609   -0.6362 C   0  0  0  0  0  0  0  0  0  0  0  0
   -5.7079   -2.5939   -1.7462 C   0  0  1  0  0  0  0  0  0  0  0  0
   -5.3420   -4.0773   -1.8134 C   0  0  2  0  0  0  0  0  0  0  0  0
   -3.8077   -4.2686   -1.8318 C   0  0  1  0  0  0  0  0  0  0  0  0
   -2.9978   -3.3662   -0.8916 C   0  0  1  0  0  0  0  0  0  0  0  0
   -2.8058   -1.2102    0.2139 N   0  3  0  0  0  0  0  0  0  0  0  0
   -7.1363   -2.4292   -1.5596 N   0  3  0  0  0  0  0  0  0  0  0  0
   -3.4425   -5.6552   -1.6247 O   0  0  0  0  0  0  0  0  0  0  0  0
   -1.6214   -3.4049   -1.2537 O   0  0  0  0  0  0  0  0  0  0  0  0
  1  2  1  0  0  0  0
  3  2  1  1  0  0  0
  3  4  1  0  0  0  0
  3  5  1  0  0  0  0
  4  8  1  0  0  0  0
  5  6  1  0  0  0  0
  5 12  1  1  0  0  0
  6  7  1  1  0  0  0
  6  8  1  0  0  0  0
  8 41  1  1  0  0  0
  9 10  1  0  0  0  0
  9 17  1  0  0  0  0
  9 19  1  1  0  0  0
 10 11  1  0  0  0  0
 11 12  1  6  0  0  0
 11 13  1  0  0  0  0
 13 14  1  1  0  0  0
 13 15  1  0  0  0  0
 15 16  1  6  0  0  0
 15 17  1  0  0  0  0
 17 18  1  6  0  0  0
 19 20  1  0  0  0  0
 21 22  1  0  0  0  0
 21 29  1  0  0  0  0
 21 31  1  6  0  0  0
 22 23  1  0  0  0  0
 23 24  1  6  0  0  0
 23 25  1  0  0  0  0
 25 26  1  1  0  0  0
 25 27  1  0  0  0  0
 27 28  1  1  0  0  0
 27 29  1  0  0  0  0
 29 30  1  6  0  0  0
 31 32  1  0  0  0  0
 33 34  1  0  0  0  0
 33 38  1  0  0  0  0
 33 39  1  1  0  0  0
 34 35  1  0  0  0  0
 35 36  1  0  0  0  0
 35 40  1  1  0  0  0
 36 24  1  6  0  0  0
 36 37  1  0  0  0  0
 37 38  1  0  0  0  0
 37 41  1  1  0  0  0
 38 42  1  6  0  0  0
M  CHG  6  14   1  20   1  26   1  32   1  39   1  40   1
M  END
>  <CHROM.1>
-173.34830641,-39.06938152,-107.60674320,49.93787259,-32.66615039,-71.97925216
48.79955729,14.46065136,-178.33137165,-168.82006739,22.21630773,169.32529638
114.07909101,-71.94894856,-67.35905490,-60.61549595,179.09436414,67.61639608
-66.97791149,-64.20355053,-21.48119324,-179.28441221,-4.74897117,-5.40881256
-0.15940407,-0.55646948,-0.97644334,-0.45443323

>  <Name>


>  <RI>
0

>  <Rbt.Current_Directory>
/home/itssahil/PROJECTS/Mol_Feturizer/New_Systems/rnas/1qd3

>  <Rbt.Executable>
rbdock ($Id: //depot/dev/client3/rdock/2013.1/src/exe/rbdock.cxx#4 $)

>  <Rbt.Library>
libRbt.so (2013.1, Build901 2013/11/27)

>  <Rbt.Parameter_File>
/export/apps/rDock/src/rDock_2013.1_src/data/scripts/dock_solv.prm

>  <Rbt.Receptor>
prm/blind_docking_60.prm

>  <SCORE>
-42.5257

>  <SCORE.INTER>
-39.3822

>  <SCORE.INTER.CONST>
1

>  <SCORE.INTER.POLAR>
-6.05444

>  <SCORE.INTER.ROT>
9

>  <SCORE.INTER.SOLV>
29.1208

>  <SCORE.INTER.VDW>
-25.3802

>  <SCORE.INTER.norm>
-0.93767

>  <SCORE.INTRA>
-6.87756

>  <SCORE.INTRA.DIHEDRAL>
-7.66477

>  <SCORE.INTRA.DIHEDRAL.0>
40.6252

>  <SCORE.INTRA.POLAR>
-1.03203

>  <SCORE.INTRA.POLAR.0>
-1.20161

>  <SCORE.INTRA.REPUL>
-0.115675

>  <SCORE.INTRA.REPUL.0>
0.115675

>  <SCORE.INTRA.SOLV>
1.52634

>  <SCORE.INTRA.SOLV.lig_0>
-154.895

>  <SCORE.INTRA.VDW>
0.278943

>  <SCORE.INTRA.VDW.0>
2.2925

>  <SCORE.INTRA.norm>
-0.163751

>  <SCORE.RESTR>
3.73397

>  <SCORE.RESTR.CAVITY>
3.73397

>  <SCORE.RESTR.norm>
0.088904

>  <SCORE.SYSTEM>
0

>  <SCORE.SYSTEM.CONST>
0

>  <SCORE.SYSTEM.DIHEDRAL>
0

>  <SCORE.SYSTEM.SOLV>
0

>  <SCORE.SYSTEM.norm>
0

>  <SCORE.heavy>
42

>  <SCORE.norm>
-1.01252

>  <RMSD>
15.620

$$$$

 OpenBabel11021811413D
libRbt.so/2013.1/901 2013/11/27
 42 45  0  0  0  0  0  0  0  0999 V2000
   -1.0690   -2.9113    1.6735 O   0  0  0  0  0  0  0  0  0  0  0  0
   -1.9136   -1.9459    1.0633 C   0  0  0  0  0  0  0  0  0  0  0  0
   -2.6363   -2.5711   -0.1306 C   0  0  1  0  0  0  0  0  0  0  0  0
   -3.0114   -3.9391    0.1403 O   0  0  0  0  0  0  0  0  0  0  0  0
   -3.9249   -1.8546   -0.4987 C   0  0  2  0  0  0  0  0  0  0  0  0
   -4.6216   -2.9356   -1.3079 C   0  0  1  0  0  0  0  0  0  0  0  0
   -4.0495   -3.0062   -2.6093 O   0  0  0  0  0  0  0  0  0  0  0  0
   -4.2766   -4.2120   -0.5138 C   0  0  2  0  0  0  0  0  0  0  0  0
   -2.7886    2.7859   -0.4635 C   0  0  2  0  0  0  0  0  0  0  0  0
   -3.2112    1.6564   -1.2427 O   0  0  0  0  0  0  0  0  0  0  0  0
   -3.2980    0.4586   -0.4500 C   0  0  2  0  0  0  0  0  0  0  0  0
   -3.6678   -0.6668   -1.2735 O   0  0  0  0  0  0  0  0  0  0  0  0
   -4.3094    0.6377    0.6953 C   0  0  2  0  0  0  0  0  0  0  0  0
   -5.6703    0.5485    0.1989 N   0  3  0  0  0  0  0  0  0  0  0  0
   -4.1067    1.9417    1.4759 C   0  0  1  0  0  0  0  0  0  0  0  0
   -3.0076    1.7948    2.3609 O   0  0  0  0  0  0  0  0  0  0  0  0
   -3.8657    3.1352    0.5555 C   0  0  2  0  0  0  0  0  0  0  0  0
   -5.0734    3.4873   -0.1093 O   0  0  0  0  0  0  0  0  0  0  0  0
   -2.4869    3.9792   -1.3657 C   0  0  0  0  0  0  0  0  0  0  0  0
   -1.5478    3.6032   -2.4058 N   0  3  0  0  0  0  0  0  0  0  0  0
   -6.1582   -9.8790   -1.4368 C   0  0  1  0  0  0  0  0  0  0  0  0
   -5.1072   -8.9190   -1.6734 O   0  0  0  0  0  0  0  0  0  0  0  0
   -5.4545   -7.5766   -1.2627 C   0  0  2  0  0  0  0  0  0  0  0  0
   -5.6261   -7.4746    0.1725 O   0  0  0  0  0  0  0  0  0  0  0  0
   -6.7054   -7.0909   -2.0050 C   0  0  2  0  0  0  0  0  0  0  0  0
   -7.1637   -5.8372   -1.4358 N   0  3  0  0  0  0  0  0  0  0  0  0
   -7.8343   -8.1136   -1.9390 C   0  0  1  0  0  0  0  0  0  0  0  0
   -8.8751   -7.7345   -2.8263 O   0  0  0  0  0  0  0  0  0  0  0  0
   -7.3824   -9.5284   -2.2667 C   0  0  2  0  0  0  0  0  0  0  0  0
   -8.4278  -10.4533   -2.0058 O   0  0  0  0  0  0  0  0  0  0  0  0
   -5.6975  -11.2719   -1.8566 C   0  0  0  0  0  0  0  0  0  0  0  0
   -4.7738  -11.1930   -2.9734 N   0  3  0  0  0  0  0  0  0  0  0  0
   -3.5253   -5.8653    3.5037 C   0  0  2  0  0  0  0  0  0  0  0  0
   -2.8934   -7.0220    2.7547 C   0  0  0  0  0  0  0  0  0  0  0  0
   -3.9237   -7.7185    1.8851 C   0  0  1  0  0  0  0  0  0  0  0  0
   -4.5221   -6.7935    0.8244 C   0  0  2  0  0  0  0  0  0  0  0  0
   -5.0180   -5.4730    1.4577 C   0  0  1  0  0  0  0  0  0  0  0  0
   -4.1153   -4.8521    2.5320 C   0  0  1  0  0  0  0  0  0  0  0  0
   -2.5225   -5.2212    4.3304 N   0  3  0  0  0  0  0  0  0  0  0  0
   -3.3109   -8.8766    1.2643 N   0  3  0  0  0  0  0  0  0  0  0  0
   -5.3368   -4.4854    0.4468 O   0  0  0  0  0  0  0  0  0  0  0  0
   -4.8373   -3.8594    3.2533 O   0  0  0  0  0  0  0  0  0  0  0  0
  1  2  1  0  0  0  0
  3  2  1  1  0  0  0
  3  4  1  0  0  0  0
  3  5  1  0  0  0  0
  4  8  1  0  0  0  0
  5  6  1  0  0  0  0
  5 12  1  6  0  0  0
  6  7  1  6  0  0  0
  6  8  1  0  0  0  0
  8 41  1  1  0  0  0
  9 10  1  0  0  0  0
  9 17  1  0  0  0  0
  9 19  1  6  0  0  0
 10 11  1  0  0  0  0
 11 12  1  6  0  0  0
 11 13  1  0  0  0  0
 13 14  1  6  0  0  0
 13 15  1  0  0  0  0
 15 16  1  1  0  0  0
 15 17  1  0  0  0  0
 17 18  1  6  0  0  0
 19 20  1  0  0  0  0
 21 22  1  0  0  0  0
 21 29  1  0  0  0  0
 21 31  1  6  0  0  0
 22 23  1  0  0  0  0
 23 24  1  1  0  0  0
 23 25  1  0  0  0  0
 25 26  1  1  0  0  0
 25 27  1  0  0  0  0
 27 28  1  6  0  0  0
 27 29  1  0  0  0  0
 29 30  1  1  0  0  0
 31 32  1  0  0  0  0
 33 34  1  0  0  0  0
 33 38  1  0  0  0  0
 33 39  1  6  0  0  0
 34 35  1  0  0  0  0
 35 36  1  0  0  0  0
 35 40  1  6  0  0  0
 36 24  1  1  0  0  0
 36 37  1  0  0  0  0
 37 38  1  0  0  0  0
 37 41  1  6  0  0  0
 38 42  1  1  0  0  0
M  CHG  6  14   1  20   1  26   1  32   1  39   1  40   1
M  END
>  <CHROM.1>
-42.41925626,37.75890005,-81.42857166,39.87457065,-50.08541408,-53.18521468
-172.96509397,-166.43987939,61.55379564,-170.47538266,-89.68679494,-31.76266622
105.96548737,-122.78345607,-62.27977941,-86.21889629,67.07195439,-167.38334094
43.76130455,160.96583879,-53.48921324,64.47388770,-4.46925379,-3.92570778
-0.09527220,-1.11842619,0.97784966,2.85187222

>  <Name>


>  <RI>
0

>  <Rbt.Current_Directory>
/home/itssahil/PROJECTS/Mol_Feturizer/New_Systems/rnas/1qd3

>  <Rbt.Executable>
rbdock ($Id: //depot/dev/client3/rdock/2013.1/src/exe/rbdock.cxx#4 $)

>  <Rbt.Library>
libRbt.so (2013.1, Build901 2013/11/27)

>  <Rbt.Parameter_File>
/export/apps/rDock/src/rDock_2013.1_src/data/scripts/dock_solv.prm

>  <Rbt.Receptor>
prm/blind_docking_20.prm

>  <SCORE>
-65.9179

>  <SCORE.INTER>
-52.4348

>  <SCORE.INTER.CONST>
1

>  <SCORE.INTER.POLAR>
-7.16014

>  <SCORE.INTER.ROT>
9

>  <SCORE.INTER.SOLV>
31.0965

>  <SCORE.INTER.VDW>
-31.0549

>  <SCORE.INTER.norm>
-1.24845

>  <SCORE.INTRA>
-14.9798

>  <SCORE.INTRA.DIHEDRAL>
-8.58737

>  <SCORE.INTRA.DIHEDRAL.0>
40.6252

>  <SCORE.INTRA.POLAR>
0.245857

>  <SCORE.INTRA.POLAR.0>
-1.20161

>  <SCORE.INTRA.REPUL>
-0.113796

>  <SCORE.INTRA.REPUL.0>
0.115675

>  <SCORE.INTRA.SOLV>
-6.47408

>  <SCORE.INTRA.SOLV.lig_0>
-154.895

>  <SCORE.INTRA.VDW>
-7.71601

>  <SCORE.INTRA.VDW.0>
2.2925

>  <SCORE.INTRA.norm>
-0.356662

>  <SCORE.RESTR>
1.49678

>  <SCORE.RESTR.CAVITY>
1.49678

>  <SCORE.RESTR.norm>
0.0356376

>  <SCORE.SYSTEM>
0

>  <SCORE.SYSTEM.CONST>
0

>  <SCORE.SYSTEM.DIHEDRAL>
0

>  <SCORE.SYSTEM.SOLV>
0

>  <SCORE.SYSTEM.norm>
0

>  <SCORE.heavy>
42

>  <SCORE.norm>
-1.56947

>  <RMSD>
15.724

$$$$

 OpenBabel11021811413D
libRbt.so/2013.1/901 2013/11/27
 42 45  0  0  0  0  0  0  0  0999 V2000
   -2.2463   -5.0027   -0.7705 O   0  0  0  0  0  0  0  0  0  0  0  0
   -1.9819   -3.8005   -0.0617 C   0  0  0  0  0  0  0  0  0  0  0  0
   -3.1458   -3.4880    0.8797 C   0  0  1  0  0  0  0  0  0  0  0  0
   -4.3393   -3.1439    0.1429 O   0  0  0  0  0  0  0  0  0  0  0  0
   -3.5326   -4.6575    1.7697 C   0  0  2  0  0  0  0  0  0  0  0  0
   -4.9380   -4.2448    2.1743 C   0  0  1  0  0  0  0  0  0  0  0  0
   -4.8732   -3.2380    3.1784 O   0  0  0  0  0  0  0  0  0  0  0  0
   -5.4921   -3.6451    0.8659 C   0  0  2  0  0  0  0  0  0  0  0  0
   -2.8146   -8.3794    3.4939 C   0  0  2  0  0  0  0  0  0  0  0  0
   -2.5615   -7.1426    2.8100 O   0  0  0  0  0  0  0  0  0  0  0  0
   -2.8565   -6.0016    3.6358 C   0  0  2  0  0  0  0  0  0  0  0  0
   -2.6474   -4.7780    2.9006 O   0  0  0  0  0  0  0  0  0  0  0  0
   -1.9921   -6.0145    4.9083 C   0  0  2  0  0  0  0  0  0  0  0  0
   -0.6340   -5.5969    4.6124 N   0  3  0  0  0  0  0  0  0  0  0  0
   -1.9935   -7.3722    5.6205 C   0  0  1  0  0  0  0  0  0  0  0  0
   -3.2046   -7.5233    6.3439 O   0  0  0  0  0  0  0  0  0  0  0  0
   -1.8313   -8.5363    4.6467 C   0  0  2  0  0  0  0  0  0  0  0  0
   -0.4979   -8.5730    4.1516 O   0  0  0  0  0  0  0  0  0  0  0  0
   -2.7135   -9.5577    2.5294 C   0  0  0  0  0  0  0  0  0  0  0  0
   -2.9722  -10.8048    3.2242 N   0  3  0  0  0  0  0  0  0  0  0  0
   -6.7547   -9.4875   -1.4744 C   0  0  1  0  0  0  0  0  0  0  0  0
   -6.7815   -8.3943   -0.5329 O   0  0  0  0  0  0  0  0  0  0  0  0
   -5.6061   -7.5543   -0.5970 C   0  0  2  0  0  0  0  0  0  0  0  0
   -5.5095   -6.8503   -1.8599 O   0  0  0  0  0  0  0  0  0  0  0  0
   -4.3398   -8.3747   -0.3232 C   0  0  2  0  0  0  0  0  0  0  0  0
   -3.1614   -7.5733   -0.5966 N   0  3  0  0  0  0  0  0  0  0  0  0
   -4.2925   -9.6409   -1.1712 C   0  0  1  0  0  0  0  0  0  0  0  0
   -3.2389  -10.4785   -0.7211 O   0  0  0  0  0  0  0  0  0  0  0  0
   -5.5979  -10.4212   -1.1579 C   0  0  2  0  0  0  0  0  0  0  0  0
   -5.5516  -11.4769   -2.1066 O   0  0  0  0  0  0  0  0  0  0  0  0
   -8.0444  -10.2967   -1.3719 C   0  0  0  0  0  0  0  0  0  0  0  0
   -9.2033   -9.4233   -1.4041 N   0  3  0  0  0  0  0  0  0  0  0  0
   -7.1279   -3.1715   -3.2550 C   0  0  2  0  0  0  0  0  0  0  0  0
   -7.7108   -4.4591   -3.8031 C   0  0  0  0  0  0  0  0  0  0  0  0
   -6.7795   -5.6246   -3.5258 C   0  0  1  0  0  0  0  0  0  0  0  0
   -6.5530   -5.8558   -2.0311 C   0  0  2  0  0  0  0  0  0  0  0  0
   -6.1500   -4.5418   -1.3227 C   0  0  1  0  0  0  0  0  0  0  0  0
   -6.9055   -3.2772   -1.7523 C   0  0  1  0  0  0  0  0  0  0  0  0
   -8.0331   -2.0739   -3.5378 N   0  3  0  0  0  0  0  0  0  0  0  0
   -7.3182   -6.8172   -4.1501 N   0  3  0  0  0  0  0  0  0  0  0  0
   -6.1939   -4.6799    0.1188 O   0  0  0  0  0  0  0  0  0  0  0  0
   -6.2156   -2.1221   -1.2866 O   0  0  0  0  0  0  0  0  0  0  0  0
  1  2  1  0  0  0  0
  3  2  1  6  0  0  0
  3  4  1  0  0  0  0
  3  5  1  0  0  0  0
  4  8  1  0  0  0  0
  5  6  1  0  0  0  0
  5 12  1  1  0  0  0
  6  7  1  1  0  0  0
  6  8  1  0  0  0  0
  8 41  1  6  0  0  0
  9 10  1  0  0  0  0
  9 17  1  0  0  0  0
  9 19  1  6  0  0  0
 10 11  1  0  0  0  0
 11 12  1  6  0  0  0
 11 13  1  0  0  0  0
 13 14  1  6  0  0  0
 13 15  1  0  0  0  0
 15 16  1  6  0  0  0
 15 17  1  0  0  0  0
 17 18  1  6  0  0  0
 19 20  1  0  0  0  0
 21 22  1  0  0  0  0
 21 29  1  0  0  0  0
 21 31  1  1  0  0  0
 22 23  1  0  0  0  0
 23 24  1  6  0  0  0
 23 25  1  0  0  0  0
 25 26  1  6  0  0  0
 25 27  1  0  0  0  0
 27 28  1  1  0  0  0
 27 29  1  0  0  0  0
 29 30  1  6  0  0  0
 31 32  1  0  0  0  0
 33 34  1  0  0  0  0
 33 38  1  0  0  0  0
 33 39  1  1  0  0  0
 34 35  1  0  0  0  0
 35 36  1  0  0  0  0
 35 40  1  1  0  0  0
 36 24  1  6  0  0  0
 36 37  1  0  0  0  0
 37 38  1  0  0  0  0
 37 41  1  1  0  0  0
 38 42  1  6  0  0  0
M  CHG  6  14   1  20   1  26   1  32   1  39   1  40   1
M  END
>  <CHROM.1>
69.65720410,-67.90159354,-170.46620518,-54.84312635,-31.79628570,-179.90252214
63.08488256,-176.97271098,-62.12555471,-65.66807070,51.82700687,48.91781550
67.54190858,-154.88533760,-177.98964066,63.21088845,-169.87432260,-171.68907564
174.08429593,62.62613664,163.78119971,-62.03928801,-4.61075348,-6.54826048
0.46160907,-0.21876049,-0.92969652,0.00806582

>  <Name>


>  <RI>
0

>  <Rbt.Current_Directory>
/home/itssahil/PROJECTS/Mol_Feturizer/New_Systems/rnas/1qd3

>  <Rbt.Executable>
rbdock ($Id: //depot/dev/client3/rdock/2013.1/src/exe/rbdock.cxx#4 $)

>  <Rbt.Library>
libRbt.so (2013.1, Build901 2013/11/27)

>  <Rbt.Parameter_File>
/export/apps/rDock/src/rDock_2013.1_src/data/scripts/dock_solv.prm

>  <Rbt.Receptor>
prm/blind_docking_60.prm

>  <SCORE>
-55.8817

>  <SCORE.INTER>
-29.6503

>  <SCORE.INTER.CONST>
1

>  <SCORE.INTER.POLAR>
-3.32503

>  <SCORE.INTER.ROT>
9

>  <SCORE.INTER.SOLV>
24.1986

>  <SCORE.INTER.VDW>
-26.3496

>  <SCORE.INTER.norm>
-0.70596

>  <SCORE.INTRA>
-26.7142

>  <SCORE.INTRA.DIHEDRAL>
-28.5333

>  <SCORE.INTRA.DIHEDRAL.0>
40.6252

>  <SCORE.INTRA.POLAR>
0.451487

>  <SCORE.INTRA.POLAR.0>
-1.20161

>  <SCORE.INTRA.REPUL>
-0.115675

>  <SCORE.INTRA.REPUL.0>
0.115675

>  <SCORE.INTRA.SOLV>
-6.6589

>  <SCORE.INTRA.SOLV.lig_0>
-154.895

>  <SCORE.INTRA.VDW>
-10.0748

>  <SCORE.INTRA.VDW.0>
2.2925

>  <SCORE.INTRA.norm>
-0.636051

>  <SCORE.RESTR>
0.482799

>  <SCORE.RESTR.CAVITY>
0.482799

>  <SCORE.RESTR.norm>
0.0114952

>  <SCORE.SYSTEM>
0

>  <SCORE.SYSTEM.CONST>
0

>  <SCORE.SYSTEM.DIHEDRAL>
0

>  <SCORE.SYSTEM.SOLV>
0

>  <SCORE.SYSTEM.norm>
0

>  <SCORE.heavy>
42

>  <SCORE.norm>
-1.33052

>  <RMSD>
15.732

$$$$

 OpenBabel11021811413D
libRbt.so/2013.1/901 2013/11/27
 42 45  0  0  0  0  0  0  0  0999 V2000
   -5.2598   -2.5982    1.9503 O   0  0  0  0  0  0  0  0  0  0  0  0
   -5.8385   -3.7132    2.6135 C   0  0  0  0  0  0  0  0  0  0  0  0
   -5.9380   -4.8951    1.6483 C   0  0  1  0  0  0  0  0  0  0  0  0
   -5.9980   -4.4489    0.2761 O   0  0  0  0  0  0  0  0  0  0  0  0
   -4.7485   -5.8380    1.7244 C   0  0  2  0  0  0  0  0  0  0  0  0
   -4.8752   -6.5521    0.3892 C   0  0  1  0  0  0  0  0  0  0  0  0
   -5.9111   -7.5256    0.4609 O   0  0  0  0  0  0  0  0  0  0  0  0
   -5.2961   -5.4076   -0.5551 C   0  0  2  0  0  0  0  0  0  0  0  0
   -1.5319   -6.2213    4.2642 C   0  0  2  0  0  0  0  0  0  0  0  0
   -2.8410   -5.9086    3.7642 O   0  0  0  0  0  0  0  0  0  0  0  0
   -3.5722   -7.0917    3.3949 C   0  0  2  0  0  0  0  0  0  0  0  0
   -4.8581   -6.7396    2.8433 O   0  0  0  0  0  0  0  0  0  0  0  0
   -3.7478   -8.0220    4.6074 C   0  0  2  0  0  0  0  0  0  0  0  0
   -4.7791   -7.5199    5.4966 N   0  3  0  0  0  0  0  0  0  0  0  0
   -2.4427   -8.2569    5.3770 C   0  0  1  0  0  0  0  0  0  0  0  0
   -1.6423   -9.1927    4.6723 O   0  0  0  0  0  0  0  0  0  0  0  0
   -1.6549   -6.9666    5.5871 C   0  0  2  0  0  0  0  0  0  0  0  0
   -2.3094   -6.1495    6.5506 O   0  0  0  0  0  0  0  0  0  0  0  0
   -0.7024   -4.9514    4.4311 C   0  0  0  0  0  0  0  0  0  0  0  0
    0.5669   -5.2550    5.0647 N   0  3  0  0  0  0  0  0  0  0  0  0
   -8.1288   -3.0353   -5.1796 C   0  0  1  0  0  0  0  0  0  0  0  0
   -8.3830   -3.1294   -3.7623 O   0  0  0  0  0  0  0  0  0  0  0  0
   -7.5906   -4.1446   -3.1044 C   0  0  2  0  0  0  0  0  0  0  0  0
   -6.1764   -3.8299   -3.1276 O   0  0  0  0  0  0  0  0  0  0  0  0
   -7.8603   -5.5234   -3.7192 C   0  0  2  0  0  0  0  0  0  0  0  0
   -6.9128   -6.4916   -3.1992 N   0  3  0  0  0  0  0  0  0  0  0  0
   -7.7618   -5.4929   -5.2403 C   0  0  1  0  0  0  0  0  0  0  0  0
   -8.2454   -6.7153   -5.7752 O   0  0  0  0  0  0  0  0  0  0  0  0
   -8.5196   -4.3330   -5.8677 C   0  0  2  0  0  0  0  0  0  0  0  0
   -8.2356   -4.2515   -7.2567 O   0  0  0  0  0  0  0  0  0  0  0  0
   -8.9700   -1.9168   -5.7880 C   0  0  0  0  0  0  0  0  0  0  0  0
   -8.5287   -1.6179   -7.1380 N   0  3  0  0  0  0  0  0  0  0  0  0
   -3.8104   -1.0331   -0.9644 C   0  0  2  0  0  0  0  0  0  0  0  0
   -5.3050   -0.7918   -1.0417 C   0  0  0  0  0  0  0  0  0  0  0  0
   -5.9207   -1.6219   -2.1528 C   0  0  1  0  0  0  0  0  0  0  0  0
   -5.7371   -3.1248   -1.9370 C   0  0  2  0  0  0  0  0  0  0  0  0
   -4.2585   -3.4646   -1.6388 C   0  0  1  0  0  0  0  0  0  0  0  0
   -3.5147   -2.5036   -0.7020 C   0  0  1  0  0  0  0  0  0  0  0  0
   -3.2462   -0.2249    0.0999 N   0  3  0  0  0  0  0  0  0  0  0  0
   -7.3280   -1.2911   -2.2638 N   0  3  0  0  0  0  0  0  0  0  0  0
   -4.1102   -4.8275   -1.1705 O   0  0  0  0  0  0  0  0  0  0  0  0
   -2.1124   -2.7343   -0.7893 O   0  0  0  0  0  0  0  0  0  0  0  0
  1  2  1  0  0  0  0
  3  2  1  1  0  0  0
  3  4  1  0  0  0  0
  3  5  1  0  0  0  0
  4  8  1  0  0  0  0
  5  6  1  0  0  0  0
  5 12  1  1  0  0  0
  6  7  1  1  0  0  0
  6  8  1  0  0  0  0
  8 41  1  1  0  0  0
  9 10  1  0  0  0  0
  9 17  1  0  0  0  0
  9 19  1  1  0  0  0
 10 11  1  0  0  0  0
 11 12  1  1  0  0  0
 11 13  1  0  0  0  0
 13 14  1  1  0  0  0
 13 15  1  0  0  0  0
 15 16  1  6  0  0  0
 15 17  1  0  0  0  0
 17 18  1  1  0  0  0
 19 20  1  0  0  0  0
 21 22  1  0  0  0  0
 21 29  1  0  0  0  0
 21 31  1  6  0  0  0
 22 23  1  0  0  0  0
 23 24  1  6  0  0  0
 23 25  1  0  0  0  0
 25 26  1  1  0  0  0
 25 27  1  0  0  0  0
 27 28  1  6  0  0  0
 27 29  1  0  0  0  0
 29 30  1  6  0  0  0
 31 32  1  0  0  0  0
 33 34  1  0  0  0  0
 33 38  1  0  0  0  0
 33 39  1  1  0  0  0
 34 35  1  0  0  0  0
 35 36  1  0  0  0  0
 35 40  1  1  0  0  0
 36 24  1  6  0  0  0
 36 37  1  0  0  0  0
 37 38  1  0  0  0  0
 37 41  1  1  0  0  0
 38 42  1  6  0  0  0
M  CHG  6  14   1  20   1  26   1  32   1  39   1  40   1
M  END
>  <CHROM.1>
74.64807064,-25.33774664,-147.85213392,69.00510095,-39.63673360,174.11462031
55.73012224,41.54099009,-54.83649162,41.61092393,-59.76086916,167.95580328
93.52639346,-88.19045945,175.97973828,62.60395013,-167.32658549,6.32869936
-177.30353741,73.95189832,-24.24031448,-47.45153955,-5.09555566,-4.65088398
-0.17088016,-0.68286423,-0.92383725,-0.47645654

>  <Name>


>  <RI>
0

>  <Rbt.Current_Directory>
/home/itssahil/PROJECTS/Mol_Feturizer/New_Systems/rnas/1qd3

>  <Rbt.Executable>
rbdock ($Id: //depot/dev/client3/rdock/2013.1/src/exe/rbdock.cxx#4 $)

>  <Rbt.Library>
libRbt.so (2013.1, Build901 2013/11/27)

>  <Rbt.Parameter_File>
/export/apps/rDock/src/rDock_2013.1_src/data/scripts/dock_solv.prm

>  <Rbt.Receptor>
prm/blind_docking_80.prm

>  <SCORE>
-60.7056

>  <SCORE.INTER>
-49.0798

>  <SCORE.INTER.CONST>
1

>  <SCORE.INTER.POLAR>
-7.54028

>  <SCORE.INTER.ROT>
9

>  <SCORE.INTER.SOLV>
32.5725

>  <SCORE.INTER.VDW>
-28.0431

>  <SCORE.INTER.norm>
-1.16857

>  <SCORE.INTRA>
-13.2406

>  <SCORE.INTRA.DIHEDRAL>
-7.51771

>  <SCORE.INTRA.DIHEDRAL.0>
40.6252

>  <SCORE.INTRA.POLAR>
-0.564484

>  <SCORE.INTRA.POLAR.0>
-1.20161

>  <SCORE.INTRA.REPUL>
-0.115675

>  <SCORE.INTRA.REPUL.0>
0.115675

>  <SCORE.INTRA.SOLV>
-3.42964

>  <SCORE.INTRA.SOLV.lig_0>
-154.895

>  <SCORE.INTRA.VDW>
-5.26928

>  <SCORE.INTRA.VDW.0>
2.2925

>  <SCORE.INTRA.norm>
-0.315252

>  <SCORE.RESTR>
1.61481

>  <SCORE.RESTR.CAVITY>
1.61481

>  <SCORE.RESTR.norm>
0.0384479

>  <SCORE.SYSTEM>
0

>  <SCORE.SYSTEM.CONST>
0

>  <SCORE.SYSTEM.DIHEDRAL>
0

>  <SCORE.SYSTEM.SOLV>
0

>  <SCORE.SYSTEM.norm>
0

>  <SCORE.heavy>
42

>  <SCORE.norm>
-1.44537

>  <RMSD>
15.750

$$$$

 OpenBabel11021811413D
libRbt.so/2013.1/901 2013/11/27
 42 45  0  0  0  0  0  0  0  0999 V2000
   -3.6569   -1.1344   -3.3253 O   0  0  0  0  0  0  0  0  0  0  0  0
   -4.0106   -2.4795   -3.0367 C   0  0  0  0  0  0  0  0  0  0  0  0
   -5.5229   -2.5853   -2.8358 C   0  0  1  0  0  0  0  0  0  0  0  0
   -6.0146   -3.8861   -3.2257 O   0  0  0  0  0  0  0  0  0  0  0  0
   -5.9542   -2.3968   -1.3909 C   0  0  2  0  0  0  0  0  0  0  0  0
   -7.3333   -3.0338   -1.4281 C   0  0  1  0  0  0  0  0  0  0  0  0
   -8.2597   -2.1398   -2.0350 O   0  0  0  0  0  0  0  0  0  0  0  0
   -7.1054   -4.2537   -2.3438 C   0  0  2  0  0  0  0  0  0  0  0  0
   -3.5080    1.4601    0.0039 C   0  0  2  0  0  0  0  0  0  0  0  0
   -4.7960    0.8598   -0.2017 O   0  0  0  0  0  0  0  0  0  0  0  0
   -4.6909   -0.4524   -0.7831 C   0  0  2  0  0  0  0  0  0  0  0  0
   -6.0017   -1.0024   -1.0299 O   0  0  0  0  0  0  0  0  0  0  0  0
   -3.8826   -1.3884    0.1319 C   0  0  2  0  0  0  0  0  0  0  0  0
   -4.6846   -1.8242    1.2602 N   0  3  0  0  0  0  0  0  0  0  0  0
   -2.5679   -0.7654    0.6160 C   0  0  1  0  0  0  0  0  0  0  0  0
   -1.6076   -0.8226   -0.4268 O   0  0  0  0  0  0  0  0  0  0  0  0
   -2.7456    0.6814    1.0683 C   0  0  2  0  0  0  0  0  0  0  0  0
   -3.4509    0.7209    2.3035 O   0  0  0  0  0  0  0  0  0  0  0  0
   -3.6553    2.9254    0.4038 C   0  0  0  0  0  0  0  0  0  0  0  0
   -4.8190    3.5104   -0.2353 N   0  3  0  0  0  0  0  0  0  0  0  0
   -5.1509   -7.2672    2.2965 C   0  0  1  0  0  0  0  0  0  0  0  0
   -5.6245   -6.3725    1.2682 O   0  0  0  0  0  0  0  0  0  0  0  0
   -4.9918   -6.5879   -0.0143 C   0  0  2  0  0  0  0  0  0  0  0  0
   -5.3266   -7.8814   -0.5750 O   0  0  0  0  0  0  0  0  0  0  0  0
   -3.4727   -6.4095    0.0957 C   0  0  2  0  0  0  0  0  0  0  0  0
   -2.8337   -6.8316   -1.1368 N   0  3  0  0  0  0  0  0  0  0  0  0
   -2.8929   -7.2063    1.2591 C   0  0  1  0  0  0  0  0  0  0  0  0
   -1.5404   -6.8307    1.4688 O   0  0  0  0  0  0  0  0  0  0  0  0
   -3.6716   -7.0309    2.5538 C   0  0  2  0  0  0  0  0  0  0  0  0
   -3.1990   -7.9363    3.5405 O   0  0  0  0  0  0  0  0  0  0  0  0
   -5.8959   -7.0036    3.6019 C   0  0  0  0  0  0  0  0  0  0  0  0
   -5.1783   -7.5737    4.7275 N   0  3  0  0  0  0  0  0  0  0  0  0
   -7.7799   -8.0986   -4.0440 C   0  0  2  0  0  0  0  0  0  0  0  0
   -7.9221   -9.1904   -3.0020 C   0  0  0  0  0  0  0  0  0  0  0  0
   -6.7298   -9.1878   -2.0633 C   0  0  1  0  0  0  0  0  0  0  0  0
   -6.5877   -7.8736   -1.2941 C   0  0  2  0  0  0  0  0  0  0  0  0
   -6.6397   -6.6623   -2.2538 C   0  0  1  0  0  0  0  0  0  0  0  0
   -7.6778   -6.7313   -3.3816 C   0  0  1  0  0  0  0  0  0  0  0  0
   -8.9276   -8.1262   -4.9306 N   0  3  0  0  0  0  0  0  0  0  0  0
   -6.8495  -10.3046   -1.1464 N   0  3  0  0  0  0  0  0  0  0  0  0
   -6.7771   -5.4155   -1.5290 O   0  0  0  0  0  0  0  0  0  0  0  0
   -7.3885   -5.7422   -4.3640 O   0  0  0  0  0  0  0  0  0  0  0  0
  1  2  1  0  0  0  0
  3  2  1  1  0  0  0
  3  4  1  0  0  0  0
  3  5  1  0  0  0  0
  4  8  1  0  0  0  0
  5  6  1  0  0  0  0
  5 12  1  6  0  0  0
  6  7  1  6  0  0  0
  6  8  1  0  0  0  0
  8 41  1  1  0  0  0
  9 10  1  0  0  0  0
  9 17  1  0  0  0  0
  9 19  1  1  0  0  0
 10 11  1  0  0  0  0
 11 12  1  1  0  0  0
 11 13  1  0  0  0  0
 13 14  1  1  0  0  0
 13 15  1  0  0  0  0
 15 16  1  6  0  0  0
 15 17  1  0  0  0  0
 17 18  1  1  0  0  0
 19 20  1  0  0  0  0
 21 22  1  0  0  0  0
 21 29  1  0  0  0  0
 21 31  1  1  0  0  0
 22 23  1  0  0  0  0
 23 24  1  1  0  0  0
 23 25  1  0  0  0  0
 25 26  1  6  0  0  0
 25 27  1  0  0  0  0
 27 28  1  1  0  0  0
 27 29  1  0  0  0  0
 29 30  1  1  0  0  0
 31 32  1  0  0  0  0
 33 34  1  0  0  0  0
 33 38  1  0  0  0  0
 33 39  1  6  0  0  0
 34 35  1  0  0  0  0
 35 36  1  0  0  0  0
 35 40  1  1  0  0  0
 36 24  1  6  0  0  0
 36 37  1  0  0  0  0
 37 38  1  0  0  0  0
 37 41  1  1  0  0  0
 38 42  1  6  0  0  0
M  CHG  6  14   1  20   1  26   1  32   1  39   1  40   1
M  END
>  <CHROM.1>
-178.95225519,150.07869795,-77.35097114,-54.50443823,-67.78540765,-32.80522192
-169.84151666,145.05460073,-91.91817682,51.62073041,-115.31942790,-162.31363526
84.16157664,169.50164883,-29.18101057,-71.91166161,-175.86134240,-27.89980837
80.37570534,-161.11368986,-168.07484475,-53.51563980,-5.15887270,-4.27915375
-0.59031653,1.10033417,-0.97908053,-0.28665766

>  <Name>


>  <RI>
0

>  <Rbt.Current_Directory>
/home/itssahil/PROJECTS/Mol_Feturizer/New_Systems/rnas/1qd3

>  <Rbt.Executable>
rbdock ($Id: //depot/dev/client3/rdock/2013.1/src/exe/rbdock.cxx#4 $)

>  <Rbt.Library>
libRbt.so (2013.1, Build901 2013/11/27)

>  <Rbt.Parameter_File>
/export/apps/rDock/src/rDock_2013.1_src/data/scripts/dock_solv.prm

>  <Rbt.Receptor>
prm/blind_docking_20.prm

>  <SCORE>
-68.4482

>  <SCORE.INTER>
-62.0366

>  <SCORE.INTER.CONST>
1

>  <SCORE.INTER.POLAR>
-8.69546

>  <SCORE.INTER.ROT>
9

>  <SCORE.INTER.SOLV>
30.4979

>  <SCORE.INTER.VDW>
-32.1388

>  <SCORE.INTER.norm>
-1.47706

>  <SCORE.INTRA>
-6.49661

>  <SCORE.INTRA.DIHEDRAL>
-11.7321

>  <SCORE.INTRA.DIHEDRAL.0>
40.6252

>  <SCORE.INTRA.POLAR>
0.619452

>  <SCORE.INTRA.POLAR.0>
-1.20161

>  <SCORE.INTRA.REPUL>
-0.115675

>  <SCORE.INTRA.REPUL.0>
0.115675

>  <SCORE.INTRA.SOLV>
-7.57615

>  <SCORE.INTRA.SOLV.lig_0>
-154.895

>  <SCORE.INTRA.VDW>
1.62978

>  <SCORE.INTRA.VDW.0>
2.2925

>  <SCORE.INTRA.norm>
-0.154681

>  <SCORE.RESTR>
0.084943

>  <SCORE.RESTR.CAVITY>
0.084943

>  <SCORE.RESTR.norm>
0.00202245

>  <SCORE.SYSTEM>
0

>  <SCORE.SYSTEM.CONST>
0

>  <SCORE.SYSTEM.DIHEDRAL>
0

>  <SCORE.SYSTEM.SOLV>
0

>  <SCORE.SYSTEM.norm>
0

>  <SCORE.heavy>
42

>  <SCORE.norm>
-1.62972

>  <RMSD>
15.817

$$$$

 OpenBabel11021811413D
libRbt.so/2013.1/901 2013/11/27
 42 45  0  0  0  0  0  0  0  0999 V2000
   -1.0916   -6.1777    0.8282 O   0  0  0  0  0  0  0  0  0  0  0  0
   -0.6710   -5.5182   -0.3575 C   0  0  0  0  0  0  0  0  0  0  0  0
   -1.8572   -5.3578   -1.3091 C   0  0  1  0  0  0  0  0  0  0  0  0
   -2.5448   -6.6122   -1.5072 O   0  0  0  0  0  0  0  0  0  0  0  0
   -2.9096   -4.3853   -0.8030 C   0  0  2  0  0  0  0  0  0  0  0  0
   -4.1049   -4.8106   -1.6391 C   0  0  1  0  0  0  0  0  0  0  0  0
   -3.9739   -4.2986   -2.9607 O   0  0  0  0  0  0  0  0  0  0  0  0
   -3.9626   -6.3463   -1.6557 C   0  0  2  0  0  0  0  0  0  0  0  0
   -4.7895   -1.9009    1.5974 C   0  0  2  0  0  0  0  0  0  0  0  0
   -4.0797   -2.7969    0.7285 O   0  0  0  0  0  0  0  0  0  0  0  0
   -3.1797   -2.0952   -0.1482 C   0  0  2  0  0  0  0  0  0  0  0  0
   -2.5270   -3.0172   -1.0457 O   0  0  0  0  0  0  0  0  0  0  0  0
   -2.1352   -1.3088    0.6623 C   0  0  2  0  0  0  0  0  0  0  0  0
   -1.1161   -2.1980    1.1888 N   0  3  0  0  0  0  0  0  0  0  0  0
   -2.7548   -0.4746    1.7897 C   0  0  1  0  0  0  0  0  0  0  0  0
   -3.3337    0.6996    1.2430 O   0  0  0  0  0  0  0  0  0  0  0  0
   -3.8129   -1.2508    2.5691 C   0  0  2  0  0  0  0  0  0  0  0  0
   -3.1905   -2.2440    3.3758 O   0  0  0  0  0  0  0  0  0  0  0  0
   -5.8920   -2.6414    2.3491 C   0  0  0  0  0  0  0  0  0  0  0  0
   -5.4982   -4.0146    2.6022 N   0  3  0  0  0  0  0  0  0  0  0  0
   -7.4388   -6.5880   -2.7171 C   0  0  1  0  0  0  0  0  0  0  0  0
   -6.9704   -7.0795   -1.4438 O   0  0  0  0  0  0  0  0  0  0  0  0
   -6.9251   -8.5231   -1.3687 C   0  0  2  0  0  0  0  0  0  0  0  0
   -5.9455   -9.0840   -2.2772 O   0  0  0  0  0  0  0  0  0  0  0  0
   -8.3153   -9.1210   -1.6167 C   0  0  2  0  0  0  0  0  0  0  0  0
   -8.2181  -10.5629   -1.7480 N   0  3  0  0  0  0  0  0  0  0  0  0
   -8.9620   -8.5460   -2.8719 C   0  0  1  0  0  0  0  0  0  0  0  0
  -10.3235   -8.9424   -2.9326 O   0  0  0  0  0  0  0  0  0  0  0  0
   -8.8741   -7.0297   -2.9515 C   0  0  2  0  0  0  0  0  0  0  0  0
   -9.3215   -6.5754   -4.2204 O   0  0  0  0  0  0  0  0  0  0  0  0
   -7.4161   -5.0622   -2.7282 C   0  0  0  0  0  0  0  0  0  0  0  0
   -7.4836   -4.5570   -4.0873 N   0  3  0  0  0  0  0  0  0  0  0  0
   -2.9961  -10.0932    0.6181 C   0  0  2  0  0  0  0  0  0  0  0  0
   -2.8554  -10.6756   -0.7744 C   0  0  0  0  0  0  0  0  0  0  0  0
   -4.1623  -10.5542   -1.5360 C   0  0  1  0  0  0  0  0  0  0  0  0
   -4.6055   -9.1020   -1.7188 C   0  0  2  0  0  0  0  0  0  0  0  0
   -4.5859   -8.3436   -0.3715 C   0  0  1  0  0  0  0  0  0  0  0  0
   -3.3919   -8.6243    0.5504 C   0  0  1  0  0  0  0  0  0  0  0  0
   -1.7370  -10.2266    1.3257 N   0  3  0  0  0  0  0  0  0  0  0  0
   -4.0213  -11.2098   -2.8215 N   0  3  0  0  0  0  0  0  0  0  0  0
   -4.7394   -6.9157   -0.5630 O   0  0  0  0  0  0  0  0  0  0  0  0
   -3.6707   -8.1414    1.8605 O   0  0  0  0  0  0  0  0  0  0  0  0
  1  2  1  0  0  0  0
  3  2  1  1  0  0  0
  3  4  1  0  0  0  0
  3  5  1  0  0  0  0
  4  8  1  0  0  0  0
  5  6  1  0  0  0  0
  5 12  1  6  0  0  0
  6  7  1  6  0  0  0
  6  8  1  0  0  0  0
  8 41  1  1  0  0  0
  9 10  1  0  0  0  0
  9 17  1  0  0  0  0
  9 19  1  1  0  0  0
 10 11  1  0  0  0  0
 11 12  1  6  0  0  0
 11 13  1  0  0  0  0
 13 14  1  1  0  0  0
 13 15  1  0  0  0  0
 15 16  1  6  0  0  0
 15 17  1  0  0  0  0
 17 18  1  6  0  0  0
 19 20  1  0  0  0  0
 21 22  1  0  0  0  0
 21 29  1  0  0  0  0
 21 31  1  1  0  0  0
 22 23  1  0  0  0  0
 23 24  1  6  0  0  0
 23 25  1  0  0  0  0
 25 26  1  6  0  0  0
 25 27  1  0  0  0  0
 27 28  1  1  0  0  0
 27 29  1  0  0  0  0
 29 30  1  6  0  0  0
 31 32  1  0  0  0  0
 33 34  1  0  0  0  0
 33 38  1  0  0  0  0
 33 39  1  6  0  0  0
 34 35  1  0  0  0  0
 35 36  1  0  0  0  0
 35 40  1  6  0  0  0
 36 24  1  1  0  0  0
 36 37  1  0  0  0  0
 37 38  1  0  0  0  0
 37 41  1  6  0  0  0
 38 42  1  1  0  0  0
M  CHG  6  14   1  20   1  26   1  32   1  39   1  40   1
M  END
>  <CHROM.1>
-54.63711091,-50.90174428,-156.63962579,-55.48025394,-56.93817950,32.17262884
-1.86809101,-162.02388719,-58.49511393,42.42495576,85.86894281,162.62659557
84.34975336,114.57469185,-35.50412409,-172.52025395,68.71517304,-174.25297431
63.12266543,-150.85161467,-43.27880745,58.58891055,-4.67361349,-6.00973050
-0.64056578,-1.03269321,0.49665143,-2.96128646

>  <Name>


>  <RI>
0

>  <Rbt.Current_Directory>
/home/itssahil/PROJECTS/Mol_Feturizer/New_Systems/rnas/1qd3

>  <Rbt.Executable>
rbdock ($Id: //depot/dev/client3/rdock/2013.1/src/exe/rbdock.cxx#4 $)

>  <Rbt.Library>
libRbt.so (2013.1, Build901 2013/11/27)

>  <Rbt.Parameter_File>
/export/apps/rDock/src/rDock_2013.1_src/data/scripts/dock_solv.prm

>  <Rbt.Receptor>
prm/blind_docking_60.prm

>  <SCORE>
-25.8094

>  <SCORE.INTER>
-21.2442

>  <SCORE.INTER.CONST>
1

>  <SCORE.INTER.POLAR>
-3.35722

>  <SCORE.INTER.ROT>
9

>  <SCORE.INTER.SOLV>
30.0744

>  <SCORE.INTER.VDW>
-22.5969

>  <SCORE.INTER.norm>
-0.505815

>  <SCORE.INTRA>
-6.01812

>  <SCORE.INTRA.DIHEDRAL>
-8.10371

>  <SCORE.INTRA.DIHEDRAL.0>
40.6252

>  <SCORE.INTRA.POLAR>
0.698883

>  <SCORE.INTRA.POLAR.0>
-1.20161

>  <SCORE.INTRA.REPUL>
-0.106521

>  <SCORE.INTRA.REPUL.0>
0.115675

>  <SCORE.INTRA.SOLV>
-4.23977

>  <SCORE.INTRA.SOLV.lig_0>
-154.895

>  <SCORE.INTRA.VDW>
-1.68998

>  <SCORE.INTRA.VDW.0>
2.2925

>  <SCORE.INTRA.norm>
-0.143289

>  <SCORE.RESTR>
1.453

>  <SCORE.RESTR.CAVITY>
1.453

>  <SCORE.RESTR.norm>
0.0345952

>  <SCORE.SYSTEM>
0

>  <SCORE.SYSTEM.CONST>
0

>  <SCORE.SYSTEM.DIHEDRAL>
0

>  <SCORE.SYSTEM.SOLV>
0

>  <SCORE.SYSTEM.norm>
0

>  <SCORE.heavy>
42

>  <SCORE.norm>
-0.614508

>  <RMSD>
15.830

$$$$

 OpenBabel11021811413D
libRbt.so/2013.1/901 2013/11/27
 42 45  0  0  0  0  0  0  0  0999 V2000
   -6.8748   -6.7795   -3.6310 O   0  0  0  0  0  0  0  0  0  0  0  0
   -6.9271   -5.3995   -3.9635 C   0  0  0  0  0  0  0  0  0  0  0  0
   -7.4396   -4.5978   -2.7664 C   0  0  1  0  0  0  0  0  0  0  0  0
   -6.4203   -4.4581   -1.7529 O   0  0  0  0  0  0  0  0  0  0  0  0
   -7.8627   -3.1828   -3.1245 C   0  0  2  0  0  0  0  0  0  0  0  0
   -7.8224   -2.5265   -1.7546 C   0  0  1  0  0  0  0  0  0  0  0  0
   -8.9752   -2.9005   -1.0081 O   0  0  0  0  0  0  0  0  0  0  0  0
   -6.5635   -3.1582   -1.1263 C   0  0  2  0  0  0  0  0  0  0  0  0
  -10.4392   -4.9639   -6.6237 C   0  0  2  0  0  0  0  0  0  0  0  0
  -10.4165   -4.3883   -5.3086 O   0  0  0  0  0  0  0  0  0  0  0  0
   -9.1947   -3.6709   -5.0568 C   0  0  2  0  0  0  0  0  0  0  0  0
   -9.1797   -3.1557   -3.7092 O   0  0  0  0  0  0  0  0  0  0  0  0
   -9.0193   -2.5255   -6.0685 C   0  0  2  0  0  0  0  0  0  0  0  0
   -9.8825   -1.4073   -5.7351 N   0  3  0  0  0  0  0  0  0  0  0  0
   -9.2477   -2.9664   -7.5191 C   0  0  1  0  0  0  0  0  0  0  0  0
   -8.1027   -3.6623   -7.9856 O   0  0  0  0  0  0  0  0  0  0  0  0
  -10.4805   -3.8541   -7.6665 C   0  0  2  0  0  0  0  0  0  0  0  0
  -11.6610   -3.0760   -7.5071 O   0  0  0  0  0  0  0  0  0  0  0  0
  -11.6333   -5.9011   -6.7801 C   0  0  0  0  0  0  0  0  0  0  0  0
  -11.4251   -7.1184   -6.0186 N   0  3  0  0  0  0  0  0  0  0  0  0
   -4.9791   -6.3664    0.6526 C   0  0  1  0  0  0  0  0  0  0  0  0
   -5.5973   -5.0675    0.5394 O   0  0  0  0  0  0  0  0  0  0  0  0
   -4.8248   -4.0101    1.1531 C   0  0  2  0  0  0  0  0  0  0  0  0
   -3.5633   -3.7940    0.4735 O   0  0  0  0  0  0  0  0  0  0  0  0
   -4.6077   -4.2950    2.6442 C   0  0  2  0  0  0  0  0  0  0  0  0
   -3.6612   -3.3443    3.1975 N   0  3  0  0  0  0  0  0  0  0  0  0
   -4.0922   -5.7103    2.8800 C   0  0  1  0  0  0  0  0  0  0  0  0
   -4.1312   -6.0084    4.2670 O   0  0  0  0  0  0  0  0  0  0  0  0
   -4.8720   -6.7683    2.1146 C   0  0  2  0  0  0  0  0  0  0  0  0
   -4.2313   -8.0307    2.2261 O   0  0  0  0  0  0  0  0  0  0  0  0
   -5.8334   -7.4148   -0.0544 C   0  0  0  0  0  0  0  0  0  0  0  0
   -5.2033   -7.8433   -1.2898 N   0  3  0  0  0  0  0  0  0  0  0  0
   -3.9259    0.4307    0.8196 C   0  0  2  0  0  0  0  0  0  0  0  0
   -2.5328   -0.1671    0.8254 C   0  0  0  0  0  0  0  0  0  0  0  0
   -2.5955   -1.6583    1.0999 C   0  0  1  0  0  0  0  0  0  0  0  0
   -3.3874   -2.4208    0.0367 C   0  0  2  0  0  0  0  0  0  0  0  0
   -4.7662   -1.7636   -0.2036 C   0  0  1  0  0  0  0  0  0  0  0  0
   -4.7915   -0.2299   -0.2448 C   0  0  1  0  0  0  0  0  0  0  0  0
   -3.8379    1.8553    0.5613 N   0  3  0  0  0  0  0  0  0  0  0  0
   -1.2449   -2.1764    1.1985 N   0  3  0  0  0  0  0  0  0  0  0  0
   -5.4135   -2.3020   -1.3826 O   0  0  0  0  0  0  0  0  0  0  0  0
   -6.1328    0.2333   -0.1284 O   0  0  0  0  0  0  0  0  0  0  0  0
  1  2  1  0  0  0  0
  3  2  1  6  0  0  0
  3  4  1  0  0  0  0
  3  5  1  0  0  0  0
  4  8  1  0  0  0  0
  5  6  1  0  0  0  0
  5 12  1  1  0  0  0
  6  7  1  1  0  0  0
  6  8  1  0  0  0  0
  8 41  1  6  0  0  0
  9 10  1  0  0  0  0
  9 17  1  0  0  0  0
  9 19  1  1  0  0  0
 10 11  1  0  0  0  0
 11 12  1  1  0  0  0
 11 13  1  0  0  0  0
 13 14  1  1  0  0  0
 13 15  1  0  0  0  0
 15 16  1  1  0  0  0
 15 17  1  0  0  0  0
 17 18  1  1  0  0  0
 19 20  1  0  0  0  0
 21 22  1  0  0  0  0
 21 29  1  0  0  0  0
 21 31  1  6  0  0  0
 22 23  1  0  0  0  0
 23 24  1  6  0  0  0
 23 25  1  0  0  0  0
 25 26  1  6  0  0  0
 25 27  1  0  0  0  0
 27 28  1  1  0  0  0
 27 29  1  0  0  0  0
 29 30  1  6  0  0  0
 31 32  1  0  0  0  0
 33 34  1  0  0  0  0
 33 38  1  0  0  0  0
 33 39  1  6  0  0  0
 34 35  1  0  0  0  0
 35 36  1  0  0  0  0
 35 40  1  6  0  0  0
 36 24  1  1  0  0  0
 36 37  1  0  0  0  0
 37 38  1  0  0  0  0
 37 41  1  6  0  0  0
 38 42  1  1  0  0  0
M  CHG  6  14   1  20   1  26   1  32   1  39   1  40   1
M  END
>  <CHROM.1>
-173.65521256,75.50583735,-73.10350319,-58.53496594,-125.00513055,-72.08653374
144.38098696,-178.43973557,86.92424429,-171.00007662,61.20309453,107.46312931
124.44328777,94.80813280,173.59489618,-58.34737172,-64.98511671,162.69479231
179.41518144,-170.98132656,108.72162351,66.82419789,-6.52963382,-3.74706663
-1.75928169,3.00710344,-0.89783141,-0.26266053

>  <Name>


>  <RI>
0

>  <Rbt.Current_Directory>
/home/itssahil/PROJECTS/Mol_Feturizer/New_Systems/rnas/1qd3

>  <Rbt.Executable>
rbdock ($Id: //depot/dev/client3/rdock/2013.1/src/exe/rbdock.cxx#4 $)

>  <Rbt.Library>
libRbt.so (2013.1, Build901 2013/11/27)

>  <Rbt.Parameter_File>
/export/apps/rDock/src/rDock_2013.1_src/data/scripts/dock_solv.prm

>  <Rbt.Receptor>
prm/blind_docking_80.prm

>  <SCORE>
-36.0382

>  <SCORE.INTER>
-30.77

>  <SCORE.INTER.CONST>
1

>  <SCORE.INTER.POLAR>
-4.32418

>  <SCORE.INTER.ROT>
9

>  <SCORE.INTER.SOLV>
27.6327

>  <SCORE.INTER.VDW>
-24.9103

>  <SCORE.INTER.norm>
-0.732619

>  <SCORE.INTRA>
-7.26969

>  <SCORE.INTRA.DIHEDRAL>
3.05393

>  <SCORE.INTRA.DIHEDRAL.0>
40.6252

>  <SCORE.INTRA.POLAR>
-0.0046867

>  <SCORE.INTRA.POLAR.0>
-1.20161

>  <SCORE.INTRA.REPUL>
0.0240295

>  <SCORE.INTRA.REPUL.0>
0.115675

>  <SCORE.INTRA.SOLV>
-6.51496

>  <SCORE.INTRA.SOLV.lig_0>
-154.895

>  <SCORE.INTRA.VDW>
-5.64339

>  <SCORE.INTRA.VDW.0>
2.2925

>  <SCORE.INTRA.norm>
-0.173088

>  <SCORE.RESTR>
2.0015

>  <SCORE.RESTR.CAVITY>
2.0015

>  <SCORE.RESTR.norm>
0.0476548

>  <SCORE.SYSTEM>
0

>  <SCORE.SYSTEM.CONST>
0

>  <SCORE.SYSTEM.DIHEDRAL>
0

>  <SCORE.SYSTEM.SOLV>
0

>  <SCORE.SYSTEM.norm>
0

>  <SCORE.heavy>
42

>  <SCORE.norm>
-0.858052

>  <RMSD>
15.849

$$$$

 OpenBabel11021811413D
libRbt.so/2013.1/901 2013/11/27
 42 45  0  0  0  0  0  0  0  0999 V2000
   -0.9378   -3.8511    0.9140 O   0  0  0  0  0  0  0  0  0  0  0  0
   -1.9750   -4.0631   -0.0331 C   0  0  0  0  0  0  0  0  0  0  0  0
   -3.2602   -3.3874    0.4467 C   0  0  1  0  0  0  0  0  0  0  0  0
   -4.2298   -3.2868   -0.6188 O   0  0  0  0  0  0  0  0  0  0  0  0
   -3.9556   -4.1409    1.5683 C   0  0  2  0  0  0  0  0  0  0  0  0
   -5.3546   -3.5563    1.4691 C   0  0  1  0  0  0  0  0  0  0  0  0
   -5.3759   -2.2583    2.0527 O   0  0  0  0  0  0  0  0  0  0  0  0
   -5.5565   -3.4485   -0.0561 C   0  0  2  0  0  0  0  0  0  0  0  0
   -2.5237   -7.3013    3.8313 C   0  0  2  0  0  0  0  0  0  0  0  0
   -2.5412   -6.0994    3.0460 O   0  0  0  0  0  0  0  0  0  0  0  0
   -3.2923   -5.0511    3.6844 C   0  0  2  0  0  0  0  0  0  0  0  0
   -3.3389   -3.8791    2.8443 O   0  0  0  0  0  0  0  0  0  0  0  0
   -2.6830   -4.7030    5.0534 C   0  0  2  0  0  0  0  0  0  0  0  0
   -1.4809   -3.9055    4.8942 N   0  3  0  0  0  0  0  0  0  0  0  0
   -2.3975   -5.9391    5.9144 C   0  0  1  0  0  0  0  0  0  0  0  0
   -3.6102   -6.4078    6.4824 O   0  0  0  0  0  0  0  0  0  0  0  0
   -1.7402   -7.0612    5.1154 C   0  0  2  0  0  0  0  0  0  0  0  0
   -0.3939   -6.7161    4.8106 O   0  0  0  0  0  0  0  0  0  0  0  0
   -1.9212   -8.4553    3.0349 C   0  0  0  0  0  0  0  0  0  0  0  0
   -0.7961   -7.9924    2.2445 N   0  3  0  0  0  0  0  0  0  0  0  0
   -6.3224  -10.0071   -1.6778 C   0  0  1  0  0  0  0  0  0  0  0  0
   -6.8956   -8.9424   -0.8905 O   0  0  0  0  0  0  0  0  0  0  0  0
   -6.1283   -7.7174   -0.9386 C   0  0  2  0  0  0  0  0  0  0  0  0
   -6.1231   -7.1311   -2.2637 O   0  0  0  0  0  0  0  0  0  0  0  0
   -4.6999   -7.9542   -0.4332 C   0  0  2  0  0  0  0  0  0  0  0  0
   -3.8851   -6.7797   -0.6826 N   0  3  0  0  0  0  0  0  0  0  0  0
   -4.0561   -9.1624   -1.1043 C   0  0  1  0  0  0  0  0  0  0  0  0
   -2.8413   -9.4845   -0.4449 O   0  0  0  0  0  0  0  0  0  0  0  0
   -4.9575  -10.3873   -1.1274 C   0  0  2  0  0  0  0  0  0  0  0  0
   -4.3795  -11.4104   -1.9247 O   0  0  0  0  0  0  0  0  0  0  0  0
   -7.2114  -11.2454   -1.6077 C   0  0  0  0  0  0  0  0  0  0  0  0
   -8.5835  -10.8770   -1.3105 N   0  3  0  0  0  0  0  0  0  0  0  0
   -7.5976   -3.4903   -3.8976 C   0  0  2  0  0  0  0  0  0  0  0  0
   -8.3971   -4.7551   -4.1408 C   0  0  0  0  0  0  0  0  0  0  0  0
   -7.5512   -5.9820   -3.8545 C   0  0  1  0  0  0  0  0  0  0  0  0
   -7.0761   -6.0448   -2.4021 C   0  0  2  0  0  0  0  0  0  0  0  0
   -6.4201   -4.7109   -1.9763 C   0  0  1  0  0  0  0  0  0  0  0  0
   -7.1125   -3.4282   -2.4556 C   0  0  1  0  0  0  0  0  0  0  0  0
   -8.4257   -2.3343   -4.1836 N   0  3  0  0  0  0  0  0  0  0  0  0
   -8.3122   -7.1687   -4.1935 N   0  3  0  0  0  0  0  0  0  0  0  0
   -6.2100   -4.6554   -0.5439 O   0  0  0  0  0  0  0  0  0  0  0  0
   -6.2369   -2.3176   -2.2910 O   0  0  0  0  0  0  0  0  0  0  0  0
  1  2  1  0  0  0  0
  3  2  1  6  0  0  0
  3  4  1  0  0  0  0
  3  5  1  0  0  0  0
  4  8  1  0  0  0  0
  5  6  1  0  0  0  0
  5 12  1  1  0  0  0
  6  7  1  1  0  0  0
  6  8  1  0  0  0  0
  8 41  1  6  0  0  0
  9 10  1  0  0  0  0
  9 17  1  0  0  0  0
  9 19  1  6  0  0  0
 10 11  1  0  0  0  0
 11 12  1  6  0  0  0
 11 13  1  0  0  0  0
 13 14  1  6  0  0  0
 13 15  1  0  0  0  0
 15 16  1  6  0  0  0
 15 17  1  0  0  0  0
 17 18  1  6  0  0  0
 19 20  1  0  0  0  0
 21 22  1  0  0  0  0
 21 29  1  0  0  0  0
 21 31  1  1  0  0  0
 22 23  1  0  0  0  0
 23 24  1  6  0  0  0
 23 25  1  0  0  0  0
 25 26  1  6  0  0  0
 25 27  1  0  0  0  0
 27 28  1  1  0  0  0
 27 29  1  0  0  0  0
 29 30  1  6  0  0  0
 31 32  1  0  0  0  0
 33 34  1  0  0  0  0
 33 38  1  0  0  0  0
 33 39  1  1  0  0  0
 34 35  1  0  0  0  0
 35 36  1  0  0  0  0
 35 40  1  1  0  0  0
 36 24  1  6  0  0  0
 36 37  1  0  0  0  0
 37 38  1  0  0  0  0
 37 41  1  1  0  0  0
 38 42  1  6  0  0  0
M  CHG  6  14   1  20   1  26   1  32   1  39   1  40   1
M  END
>  <CHROM.1>
-72.35748755,165.51791722,-142.01497158,174.86674542,-61.02315775,39.29024894
59.79289005,53.84692781,73.63209392,-169.44440447,-38.76271924,25.09541009
99.65624055,-150.38842976,178.45301913,65.48732243,-173.48813081,-26.62969798
59.84041536,178.09445934,178.15810940,69.82735287,-4.65691344,-6.12874240
0.30292067,0.14097702,-0.92123239,0.07004256

>  <Name>


>  <RI>
0

>  <Rbt.Current_Directory>
/home/itssahil/PROJECTS/Mol_Feturizer/New_Systems/rnas/1qd3

>  <Rbt.Executable>
rbdock ($Id: //depot/dev/client3/rdock/2013.1/src/exe/rbdock.cxx#4 $)

>  <Rbt.Library>
libRbt.so (2013.1, Build901 2013/11/27)

>  <Rbt.Parameter_File>
/export/apps/rDock/src/rDock_2013.1_src/data/scripts/dock_solv.prm

>  <Rbt.Receptor>
prm/blind_docking_60.prm

>  <SCORE>
-51.9684

>  <SCORE.INTER>
-38.1161

>  <SCORE.INTER.CONST>
1

>  <SCORE.INTER.POLAR>
-4.87203

>  <SCORE.INTER.ROT>
9

>  <SCORE.INTER.SOLV>
21.2958

>  <SCORE.INTER.VDW>
-25.8693

>  <SCORE.INTER.norm>
-0.907527

>  <SCORE.INTRA>
-15.407

>  <SCORE.INTRA.DIHEDRAL>
-12.8686

>  <SCORE.INTRA.DIHEDRAL.0>
40.6252

>  <SCORE.INTRA.POLAR>
0.495112

>  <SCORE.INTRA.POLAR.0>
-1.20161

>  <SCORE.INTRA.REPUL>
-0.115675

>  <SCORE.INTRA.REPUL.0>
0.115675

>  <SCORE.INTRA.SOLV>
-2.0089

>  <SCORE.INTRA.SOLV.lig_0>
-154.895

>  <SCORE.INTRA.VDW>
-9.07324

>  <SCORE.INTRA.VDW.0>
2.2925

>  <SCORE.INTRA.norm>
-0.366833

>  <SCORE.RESTR>
1.55477

>  <SCORE.RESTR.CAVITY>
1.55477

>  <SCORE.RESTR.norm>
0.0370184

>  <SCORE.SYSTEM>
0

>  <SCORE.SYSTEM.CONST>
0

>  <SCORE.SYSTEM.DIHEDRAL>
0

>  <SCORE.SYSTEM.SOLV>
0

>  <SCORE.SYSTEM.norm>
0

>  <SCORE.heavy>
42

>  <SCORE.norm>
-1.23734

>  <RMSD>
15.863

$$$$

 OpenBabel11021811413D
libRbt.so/2013.1/901 2013/11/27
 42 45  0  0  0  0  0  0  0  0999 V2000
   -3.5452   -3.3022    1.6166 O   0  0  0  0  0  0  0  0  0  0  0  0
   -4.8316   -3.3766    2.2143 C   0  0  0  0  0  0  0  0  0  0  0  0
   -5.4849   -4.7160    1.8717 C   0  0  1  0  0  0  0  0  0  0  0  0
   -5.7600   -4.8196    0.4578 O   0  0  0  0  0  0  0  0  0  0  0  0
   -4.6165   -5.9156    2.2125 C   0  0  2  0  0  0  0  0  0  0  0  0
   -5.2598   -6.9803    1.3399 C   0  0  1  0  0  0  0  0  0  0  0  0
   -6.4698   -7.4281    1.9410 O   0  0  0  0  0  0  0  0  0  0  0  0
   -5.5744   -6.1983    0.0484 C   0  0  2  0  0  0  0  0  0  0  0  0
   -1.9392   -8.6316    3.8956 C   0  0  2  0  0  0  0  0  0  0  0  0
   -2.6171   -7.3901    3.6498 O   0  0  0  0  0  0  0  0  0  0  0  0
   -4.0260   -7.4827    3.9277 C   0  0  2  0  0  0  0  0  0  0  0  0
   -4.6857   -6.2382    3.6155 O   0  0  0  0  0  0  0  0  0  0  0  0
   -4.2653   -7.8595    5.3999 C   0  0  2  0  0  0  0  0  0  0  0  0
   -4.0503   -6.7147    6.2657 N   0  3  0  0  0  0  0  0  0  0  0  0
   -3.4144   -9.0488    5.8605 C   0  0  1  0  0  0  0  0  0  0  0  0
   -3.9862  -10.2530    5.3749 O   0  0  0  0  0  0  0  0  0  0  0  0
   -1.9675   -8.9427    5.3866 C   0  0  2  0  0  0  0  0  0  0  0  0
   -1.2923   -7.9222    6.1127 O   0  0  0  0  0  0  0  0  0  0  0  0
   -0.5040   -8.5720    3.3802 C   0  0  0  0  0  0  0  0  0  0  0  0
   -0.3785   -9.3198    2.1433 N   0  3  0  0  0  0  0  0  0  0  0  0
   -7.8696   -5.2113   -5.5581 C   0  0  1  0  0  0  0  0  0  0  0  0
   -8.1193   -4.6930   -4.2348 O   0  0  0  0  0  0  0  0  0  0  0  0
   -7.4644   -5.4492   -3.1904 C   0  0  2  0  0  0  0  0  0  0  0  0
   -6.0209   -5.3541   -3.2743 O   0  0  0  0  0  0  0  0  0  0  0  0
   -7.9243   -6.9119   -3.2127 C   0  0  2  0  0  0  0  0  0  0  0  0
   -7.1107   -7.7009   -2.3065 N   0  3  0  0  0  0  0  0  0  0  0  0
   -7.8386   -7.5099   -4.6126 C   0  0  1  0  0  0  0  0  0  0  0  0
   -8.4885   -8.7714   -4.6341 O   0  0  0  0  0  0  0  0  0  0  0  0
   -8.4394   -6.6147   -5.6854 C   0  0  2  0  0  0  0  0  0  0  0  0
   -8.1616   -7.1369   -6.9764 O   0  0  0  0  0  0  0  0  0  0  0  0
   -8.5585   -4.3354   -6.6006 C   0  0  0  0  0  0  0  0  0  0  0  0
   -7.8996   -3.0464   -6.7055 N   0  3  0  0  0  0  0  0  0  0  0  0
   -3.0309   -2.8730   -1.5411 C   0  0  2  0  0  0  0  0  0  0  0  0
   -4.3735   -2.2487   -1.8662 C   0  0  0  0  0  0  0  0  0  0  0  0
   -5.1537   -3.1330   -2.8212 C   0  0  1  0  0  0  0  0  0  0  0  0
   -5.4509   -4.5144   -2.2362 C   0  0  2  0  0  0  0  0  0  0  0  0
   -4.1654   -5.1670   -1.6772 C   0  0  1  0  0  0  0  0  0  0  0  0
   -3.2141   -4.2440   -0.9042 C   0  0  1  0  0  0  0  0  0  0  0  0
   -2.3039   -2.0068   -0.6327 N   0  3  0  0  0  0  0  0  0  0  0  0
   -6.3841   -2.4595   -3.1885 N   0  3  0  0  0  0  0  0  0  0  0  0
   -4.4668   -6.3429   -0.8864 O   0  0  0  0  0  0  0  0  0  0  0  0
   -1.9473   -4.8759   -0.7522 O   0  0  0  0  0  0  0  0  0  0  0  0
  1  2  1  0  0  0  0
  3  2  1  6  0  0  0
  3  4  1  0  0  0  0
  3  5  1  0  0  0  0
  4  8  1  0  0  0  0
  5  6  1  0  0  0  0
  5 12  1  1  0  0  0
  6  7  1  1  0  0  0
  6  8  1  0  0  0  0
  8 41  1  6  0  0  0
  9 10  1  0  0  0  0
  9 17  1  0  0  0  0
  9 19  1  1  0  0  0
 10 11  1  0  0  0  0
 11 12  1  1  0  0  0
 11 13  1  0  0  0  0
 13 14  1  1  0  0  0
 13 15  1  0  0  0  0
 15 16  1  6  0  0  0
 15 17  1  0  0  0  0
 17 18  1  1  0  0  0
 19 20  1  0  0  0  0
 21 22  1  0  0  0  0
 21 29  1  0  0  0  0
 21 31  1  6  0  0  0
 22 23  1  0  0  0  0
 23 24  1  6  0  0  0
 23 25  1  0  0  0  0
 25 26  1  1  0  0  0
 25 27  1  0  0  0  0
 27 28  1  1  0  0  0
 27 29  1  0  0  0  0
 29 30  1  6  0  0  0
 31 32  1  0  0  0  0
 33 34  1  0  0  0  0
 33 38  1  0  0  0  0
 33 39  1  1  0  0  0
 34 35  1  0  0  0  0
 35 36  1  0  0  0  0
 35 40  1  1  0  0  0
 36 24  1  6  0  0  0
 36 37  1  0  0  0  0
 37 38  1  0  0  0  0
 37 41  1  1  0  0  0
 38 42  1  6  0  0  0
M  CHG  6  14   1  20   1  26   1  32   1  39   1  40   1
M  END
>  <CHROM.1>
-61.56991112,-65.83961483,171.64572379,85.06903933,-26.49573535,-104.36449408
63.72756942,-110.95269130,-169.06926502,49.51551294,-51.78851816,70.35043875
106.75653926,-99.83851606,-59.33052275,-68.58601473,76.20467183,103.18699905
-46.87057798,-160.45741503,-44.55580977,-61.02405766,-4.96054170,-5.99709250
-0.16096441,-0.80611637,-0.90655181,-0.64439123

>  <Name>


>  <RI>
0

>  <Rbt.Current_Directory>
/home/itssahil/PROJECTS/Mol_Feturizer/New_Systems/rnas/1qd3

>  <Rbt.Executable>
rbdock ($Id: //depot/dev/client3/rdock/2013.1/src/exe/rbdock.cxx#4 $)

>  <Rbt.Library>
libRbt.so (2013.1, Build901 2013/11/27)

>  <Rbt.Parameter_File>
/export/apps/rDock/src/rDock_2013.1_src/data/scripts/dock_solv.prm

>  <Rbt.Receptor>
prm/blind_docking_100.prm

>  <SCORE>
-40.407

>  <SCORE.INTER>
-30.4817

>  <SCORE.INTER.CONST>
1

>  <SCORE.INTER.POLAR>
-3.67014

>  <SCORE.INTER.ROT>
9

>  <SCORE.INTER.SOLV>
28.3503

>  <SCORE.INTER.VDW>
-27.1374

>  <SCORE.INTER.norm>
-0.725755

>  <SCORE.INTRA>
-11.4668

>  <SCORE.INTRA.DIHEDRAL>
-4.10861

>  <SCORE.INTRA.DIHEDRAL.0>
40.6252

>  <SCORE.INTRA.POLAR>
-0.506799

>  <SCORE.INTRA.POLAR.0>
-1.20161

>  <SCORE.INTRA.REPUL>
-0.115675

>  <SCORE.INTRA.REPUL.0>
0.115675

>  <SCORE.INTRA.SOLV>
-2.97626

>  <SCORE.INTRA.SOLV.lig_0>
-154.895

>  <SCORE.INTRA.VDW>
-5.62284

>  <SCORE.INTRA.VDW.0>
2.2925

>  <SCORE.INTRA.norm>
-0.273018

>  <SCORE.RESTR>
1.54149

>  <SCORE.RESTR.CAVITY>
1.54149

>  <SCORE.RESTR.norm>
0.0367022

>  <SCORE.SYSTEM>
0

>  <SCORE.SYSTEM.CONST>
0

>  <SCORE.SYSTEM.DIHEDRAL>
0

>  <SCORE.SYSTEM.SOLV>
0

>  <SCORE.SYSTEM.norm>
0

>  <SCORE.heavy>
42

>  <SCORE.norm>
-0.962071

>  <RMSD>
15.886

$$$$

 OpenBabel11021811413D
libRbt.so/2013.1/901 2013/11/27
 42 45  0  0  0  0  0  0  0  0999 V2000
   -3.6338   -2.6338   -3.7635 O   0  0  0  0  0  0  0  0  0  0  0  0
   -4.1319   -3.4959   -2.7505 C   0  0  0  0  0  0  0  0  0  0  0  0
   -5.6352   -3.2758   -2.5765 C   0  0  1  0  0  0  0  0  0  0  0  0
   -6.3930   -4.3852   -3.1061 O   0  0  0  0  0  0  0  0  0  0  0  0
   -6.0611   -3.1406   -1.1240 C   0  0  2  0  0  0  0  0  0  0  0  0
   -7.5459   -3.4413   -1.2415 C   0  0  1  0  0  0  0  0  0  0  0  0
   -8.2273   -2.3041   -1.7597 O   0  0  0  0  0  0  0  0  0  0  0  0
   -7.5673   -4.5827   -2.2785 C   0  0  2  0  0  0  0  0  0  0  0  0
   -2.7679    0.0348    0.2159 C   0  0  2  0  0  0  0  0  0  0  0  0
   -4.1553   -0.2129   -0.0580 O   0  0  0  0  0  0  0  0  0  0  0  0
   -4.4167   -1.6089   -0.2895 C   0  0  2  0  0  0  0  0  0  0  0  0
   -5.8062   -1.8152   -0.6185 O   0  0  0  0  0  0  0  0  0  0  0  0
   -4.0296   -2.4452    0.9423 C   0  0  2  0  0  0  0  0  0  0  0  0
   -5.0260   -2.3116    1.9891 N   0  3  0  0  0  0  0  0  0  0  0  0
   -2.6348   -2.1077    1.4821 C   0  0  1  0  0  0  0  0  0  0  0  0
   -1.6517   -2.7157    0.6594 O   0  0  0  0  0  0  0  0  0  0  0  0
   -2.3880   -0.6029    1.5462 C   0  0  2  0  0  0  0  0  0  0  0  0
   -3.1530   -0.0299    2.6002 O   0  0  0  0  0  0  0  0  0  0  0  0
   -2.4818    1.5337    0.2306 C   0  0  0  0  0  0  0  0  0  0  0  0
   -3.2198    2.1798    1.2997 N   0  3  0  0  0  0  0  0  0  0  0  0
   -4.0511   -6.8323    0.6723 C   0  0  1  0  0  0  0  0  0  0  0  0
   -4.3828   -6.7785   -0.7310 O   0  0  0  0  0  0  0  0  0  0  0  0
   -4.8893   -8.0304   -1.2483 C   0  0  2  0  0  0  0  0  0  0  0  0
   -6.1649   -8.3853   -0.6596 O   0  0  0  0  0  0  0  0  0  0  0  0
   -3.8603   -9.1509   -1.0550 C   0  0  2  0  0  0  0  0  0  0  0  0
   -4.4565  -10.4329   -1.3816 N   0  3  0  0  0  0  0  0  0  0  0  0
   -3.3329   -9.1933    0.3749 C   0  0  1  0  0  0  0  0  0  0  0  0
   -2.2246  -10.0766    0.4496 O   0  0  0  0  0  0  0  0  0  0  0  0
   -2.9257   -7.8272    0.9052 C   0  0  2  0  0  0  0  0  0  0  0  0
   -2.6248   -7.9052    2.2908 O   0  0  0  0  0  0  0  0  0  0  0  0
   -3.5665   -5.4655    1.1473 C   0  0  0  0  0  0  0  0  0  0  0  0
   -3.4158   -5.4466    2.5908 N   0  3  0  0  0  0  0  0  0  0  0  0
   -7.8780   -8.2375   -4.5510 C   0  0  2  0  0  0  0  0  0  0  0  0
   -8.1602   -9.4563   -3.6947 C   0  0  0  0  0  0  0  0  0  0  0  0
   -7.1760   -9.5357   -2.5424 C   0  0  1  0  0  0  0  0  0  0  0  0
   -7.2598   -8.3256   -1.6109 C   0  0  2  0  0  0  0  0  0  0  0  0
   -7.1905   -7.0048   -2.4119 C   0  0  1  0  0  0  0  0  0  0  0  0
   -7.9831   -6.9625   -3.7251 C   0  0  1  0  0  0  0  0  0  0  0  0
   -8.8272   -8.1881   -5.6466 N   0  3  0  0  0  0  0  0  0  0  0  0
   -7.4104  -10.7627   -1.8062 N   0  3  0  0  0  0  0  0  0  0  0  0
   -7.5355   -5.8645   -1.5876 O   0  0  0  0  0  0  0  0  0  0  0  0
   -7.5628   -5.8487   -4.5060 O   0  0  0  0  0  0  0  0  0  0  0  0
  1  2  1  0  0  0  0
  3  2  1  1  0  0  0
  3  4  1  0  0  0  0
  3  5  1  0  0  0  0
  4  8  1  0  0  0  0
  5  6  1  0  0  0  0
  5 12  1  6  0  0  0
  6  7  1  6  0  0  0
  6  8  1  0  0  0  0
  8 41  1  1  0  0  0
  9 10  1  0  0  0  0
  9 17  1  0  0  0  0
  9 19  1  1  0  0  0
 10 11  1  0  0  0  0
 11 12  1  1  0  0  0
 11 13  1  0  0  0  0
 13 14  1  1  0  0  0
 13 15  1  0  0  0  0
 15 16  1  6  0  0  0
 15 17  1  0  0  0  0
 17 18  1  1  0  0  0
 19 20  1  0  0  0  0
 21 22  1  0  0  0  0
 21 29  1  0  0  0  0
 21 31  1  6  0  0  0
 22 23  1  0  0  0  0
 23 24  1  1  0  0  0
 23 25  1  0  0  0  0
 25 26  1  1  0  0  0
 25 27  1  0  0  0  0
 27 28  1  6  0  0  0
 27 29  1  0  0  0  0
 29 30  1  1  0  0  0
 31 32  1  0  0  0  0
 33 34  1  0  0  0  0
 33 38  1  0  0  0  0
 33 39  1  6  0  0  0
 34 35  1  0  0  0  0
 35 36  1  0  0  0  0
 35 40  1  1  0  0  0
 36 24  1  1  0  0  0
 36 37  1  0  0  0  0
 37 38  1  0  0  0  0
 37 41  1  1  0  0  0
 38 42  1  6  0  0  0
M  CHG  6  14   1  20   1  26   1  32   1  39   1  40   1
M  END
>  <CHROM.1>
-74.10113559,107.64264145,-77.94467254,-168.18038784,-47.17634346,63.06725713
168.05270343,70.65557282,176.90468472,-179.17436247,122.79027913,171.62565953
111.81494999,74.84304086,-176.06507001,71.08250851,-167.92147522,-169.84100754
61.01460585,-148.32948974,-176.82042403,57.38578325,-5.07893980,-5.06003356
-0.86439361,1.07705350,-0.79153635,0.00521441

>  <Name>


>  <RI>
0

>  <Rbt.Current_Directory>
/home/itssahil/PROJECTS/Mol_Feturizer/New_Systems/rnas/1qd3

>  <Rbt.Executable>
rbdock ($Id: //depot/dev/client3/rdock/2013.1/src/exe/rbdock.cxx#4 $)

>  <Rbt.Library>
libRbt.so (2013.1, Build901 2013/11/27)

>  <Rbt.Parameter_File>
/export/apps/rDock/src/rDock_2013.1_src/data/scripts/dock_solv.prm

>  <Rbt.Receptor>
prm/blind_docking_60.prm

>  <SCORE>
-40.2343

>  <SCORE.INTER>
-33.3975

>  <SCORE.INTER.CONST>
1

>  <SCORE.INTER.POLAR>
-3.46229

>  <SCORE.INTER.ROT>
9

>  <SCORE.INTER.SOLV>
24.6071

>  <SCORE.INTER.VDW>
-28.5264

>  <SCORE.INTER.norm>
-0.795179

>  <SCORE.INTRA>
-8.62186

>  <SCORE.INTRA.DIHEDRAL>
-15.242

>  <SCORE.INTRA.DIHEDRAL.0>
40.6252

>  <SCORE.INTRA.POLAR>
0.217374

>  <SCORE.INTRA.POLAR.0>
-1.20161

>  <SCORE.INTRA.REPUL>
0.26961

>  <SCORE.INTRA.REPUL.0>
0.115675

>  <SCORE.INTRA.SOLV>
3.09229

>  <SCORE.INTRA.SOLV.lig_0>
-154.895

>  <SCORE.INTRA.VDW>
-4.63412

>  <SCORE.INTRA.VDW.0>
2.2925

>  <SCORE.INTRA.norm>
-0.205282

>  <SCORE.RESTR>
1.78505

>  <SCORE.RESTR.CAVITY>
1.78505

>  <SCORE.RESTR.norm>
0.0425013

>  <SCORE.SYSTEM>
0

>  <SCORE.SYSTEM.CONST>
0

>  <SCORE.SYSTEM.DIHEDRAL>
0

>  <SCORE.SYSTEM.SOLV>
0

>  <SCORE.SYSTEM.norm>
0

>  <SCORE.heavy>
42

>  <SCORE.norm>
-0.95796

>  <RMSD>
15.907

$$$$

 OpenBabel11021811413D
libRbt.so/2013.1/901 2013/11/27
 42 45  0  0  0  0  0  0  0  0999 V2000
   -2.3054   -3.4121    2.0805 O   0  0  0  0  0  0  0  0  0  0  0  0
   -1.4712   -3.1696    0.9567 C   0  0  0  0  0  0  0  0  0  0  0  0
   -2.3044   -3.2104   -0.3249 C   0  0  1  0  0  0  0  0  0  0  0  0
   -2.9365   -4.4971   -0.4994 O   0  0  0  0  0  0  0  0  0  0  0  0
   -3.4309   -2.1906   -0.3450 C   0  0  2  0  0  0  0  0  0  0  0  0
   -4.3259   -2.7875   -1.4181 C   0  0  1  0  0  0  0  0  0  0  0  0
   -3.7817   -2.5146   -2.7047 O   0  0  0  0  0  0  0  0  0  0  0  0
   -4.2323   -4.2976   -1.1192 C   0  0  2  0  0  0  0  0  0  0  0  0
   -3.3743    2.4480    0.7560 C   0  0  2  0  0  0  0  0  0  0  0  0
   -3.1203    1.4379   -0.2322 O   0  0  0  0  0  0  0  0  0  0  0  0
   -3.2691    0.1111    0.3048 C   0  0  2  0  0  0  0  0  0  0  0  0
   -2.9508   -0.8779   -0.6963 O   0  0  0  0  0  0  0  0  0  0  0  0
   -4.6979   -0.1039    0.8327 C   0  0  2  0  0  0  0  0  0  0  0  0
   -5.6252   -0.3166   -0.2634 N   0  3  0  0  0  0  0  0  0  0  0  0
   -5.1830    1.0387    1.7326 C   0  0  1  0  0  0  0  0  0  0  0  0
   -4.6004    0.9046    3.0192 O   0  0  0  0  0  0  0  0  0  0  0  0
   -4.8431    2.4114    1.1583 C   0  0  2  0  0  0  0  0  0  0  0  0
   -5.6668    2.6834    0.0304 O   0  0  0  0  0  0  0  0  0  0  0  0
   -2.9902    3.8268    0.2267 C   0  0  0  0  0  0  0  0  0  0  0  0
   -3.1862    4.8354    1.2511 N   0  3  0  0  0  0  0  0  0  0  0  0
   -7.2994   -6.3089   -3.2425 C   0  0  1  0  0  0  0  0  0  0  0  0
   -7.2922   -6.4057   -1.8029 O   0  0  0  0  0  0  0  0  0  0  0  0
   -6.5126   -7.5185   -1.3075 C   0  0  2  0  0  0  0  0  0  0  0  0
   -5.1012   -7.3649   -1.5973 O   0  0  0  0  0  0  0  0  0  0  0  0
   -7.0498   -8.8438   -1.8614 C   0  0  2  0  0  0  0  0  0  0  0  0
   -6.1393   -9.9242   -1.5308 N   0  3  0  0  0  0  0  0  0  0  0  0
   -7.2356   -8.7902   -3.3737 C   0  0  1  0  0  0  0  0  0  0  0  0
   -7.9484   -9.9378   -3.8086 O   0  0  0  0  0  0  0  0  0  0  0  0
   -7.9591   -7.5383   -3.8455 C   0  0  2  0  0  0  0  0  0  0  0  0
   -7.9333   -7.4580   -5.2631 O   0  0  0  0  0  0  0  0  0  0  0  0
   -8.1054   -5.0892   -3.6800 C   0  0  0  0  0  0  0  0  0  0  0  0
   -7.4793   -3.8653   -3.2144 N   0  3  0  0  0  0  0  0  0  0  0  0
   -4.2678   -7.0492    2.5627 C   0  0  2  0  0  0  0  0  0  0  0  0
   -3.2953   -7.8277    1.6989 C   0  0  0  0  0  0  0  0  0  0  0  0
   -3.9316   -8.1799    0.3670 C   0  0  1  0  0  0  0  0  0  0  0  0
   -4.3317   -6.9442   -0.4405 C   0  0  2  0  0  0  0  0  0  0  0  0
   -5.1655   -5.9669    0.4201 C   0  0  1  0  0  0  0  0  0  0  0  0
   -4.6972   -5.7644    1.8672 C   0  0  1  0  0  0  0  0  0  0  0  0
   -3.6382   -6.7304    3.8299 N   0  3  0  0  0  0  0  0  0  0  0  0
   -3.0130   -9.0078   -0.3899 N   0  3  0  0  0  0  0  0  0  0  0  0
   -5.3228   -4.6840   -0.2343 O   0  0  0  0  0  0  0  0  0  0  0  0
   -5.7246   -5.1303    2.6218 O   0  0  0  0  0  0  0  0  0  0  0  0
  1  2  1  0  0  0  0
  3  2  1  1  0  0  0
  3  4  1  0  0  0  0
  3  5  1  0  0  0  0
  4  8  1  0  0  0  0
  5  6  1  0  0  0  0
  5 12  1  6  0  0  0
  6  7  1  6  0  0  0
  6  8  1  0  0  0  0
  8 41  1  1  0  0  0
  9 10  1  0  0  0  0
  9 17  1  0  0  0  0
  9 19  1  6  0  0  0
 10 11  1  0  0  0  0
 11 12  1  6  0  0  0
 11 13  1  0  0  0  0
 13 14  1  6  0  0  0
 13 15  1  0  0  0  0
 15 16  1  1  0  0  0
 15 17  1  0  0  0  0
 17 18  1  6  0  0  0
 19 20  1  0  0  0  0
 21 22  1  0  0  0  0
 21 29  1  0  0  0  0
 21 31  1  1  0  0  0
 22 23  1  0  0  0  0
 23 24  1  6  0  0  0
 23 25  1  0  0  0  0
 25 26  1  6  0  0  0
 25 27  1  0  0  0  0
 27 28  1  1  0  0  0
 27 29  1  0  0  0  0
 29 30  1  6  0  0  0
 31 32  1  0  0  0  0
 33 34  1  0  0  0  0
 33 38  1  0  0  0  0
 33 39  1  1  0  0  0
 34 35  1  0  0  0  0
 35 36  1  0  0  0  0
 35 40  1  6  0  0  0
 36 24  1  6  0  0  0
 36 37  1  0  0  0  0
 37 38  1  0  0  0  0
 37 41  1  6  0  0  0
 38 42  1  1  0  0  0
M  CHG  6  14   1  20   1  26   1  32   1  39   1  40   1
M  END
>  <CHROM.1>
-170.11461858,-60.12195386,-123.47244842,17.26341402,-47.04283175,-177.18396441
-163.82709820,139.87018684,-169.36918455,-65.27447282,-178.87934333,63.88435456
102.87032158,85.88870256,-52.31116910,60.65829962,-59.78936716,-161.62695672
173.91451804,85.67153554,-29.57089596,-54.83505189,-4.85887320,-3.88415416
-0.41564695,-1.16312958,0.93614390,3.07590785

>  <Name>


>  <RI>
0

>  <Rbt.Current_Directory>
/home/itssahil/PROJECTS/Mol_Feturizer/New_Systems/rnas/1qd3

>  <Rbt.Executable>
rbdock ($Id: //depot/dev/client3/rdock/2013.1/src/exe/rbdock.cxx#4 $)

>  <Rbt.Library>
libRbt.so (2013.1, Build901 2013/11/27)

>  <Rbt.Parameter_File>
/export/apps/rDock/src/rDock_2013.1_src/data/scripts/dock_solv.prm

>  <Rbt.Receptor>
prm/blind_docking_100.prm

>  <SCORE>
-51.9719

>  <SCORE.INTER>
-46.3523

>  <SCORE.INTER.CONST>
1

>  <SCORE.INTER.POLAR>
-5.73001

>  <SCORE.INTER.ROT>
9

>  <SCORE.INTER.SOLV>
25.4287

>  <SCORE.INTER.VDW>
-29.8777

>  <SCORE.INTER.norm>
-1.10363

>  <SCORE.INTRA>
-6.17552

>  <SCORE.INTRA.DIHEDRAL>
-6.873

>  <SCORE.INTRA.DIHEDRAL.0>
40.6252

>  <SCORE.INTRA.POLAR>
1.16982

>  <SCORE.INTRA.POLAR.0>
-1.20161

>  <SCORE.INTRA.REPUL>
-0.115675

>  <SCORE.INTRA.REPUL.0>
0.115675

>  <SCORE.INTRA.SOLV>
-4.86015

>  <SCORE.INTRA.SOLV.lig_0>
-154.895

>  <SCORE.INTRA.VDW>
-3.70795

>  <SCORE.INTRA.VDW.0>
2.2925

>  <SCORE.INTRA.norm>
-0.147036

>  <SCORE.RESTR>
0.555891

>  <SCORE.RESTR.CAVITY>
0.555891

>  <SCORE.RESTR.norm>
0.0132355

>  <SCORE.SYSTEM>
0

>  <SCORE.SYSTEM.CONST>
0

>  <SCORE.SYSTEM.DIHEDRAL>
0

>  <SCORE.SYSTEM.SOLV>
0

>  <SCORE.SYSTEM.norm>
0

>  <SCORE.heavy>
42

>  <SCORE.norm>
-1.23743

>  <RMSD>
15.911

$$$$

 OpenBabel11021811413D
libRbt.so/2013.1/901 2013/11/27
 42 45  0  0  0  0  0  0  0  0999 V2000
   -1.0516   -4.4054    0.0165 O   0  0  0  0  0  0  0  0  0  0  0  0
   -1.8306   -3.2178    0.0405 C   0  0  0  0  0  0  0  0  0  0  0  0
   -2.9153   -3.2884   -1.0350 C   0  0  1  0  0  0  0  0  0  0  0  0
   -3.5883   -4.5661   -1.0188 O   0  0  0  0  0  0  0  0  0  0  0  0
   -4.0062   -2.2448   -0.8612 C   0  0  2  0  0  0  0  0  0  0  0  0
   -5.1154   -2.8615   -1.6967 C   0  0  1  0  0  0  0  0  0  0  0  0
   -4.8505   -2.6503   -3.0791 O   0  0  0  0  0  0  0  0  0  0  0  0
   -4.9826   -4.3609   -1.3608 C   0  0  2  0  0  0  0  0  0  0  0  0
   -2.9207    2.2649    0.2256 C   0  0  2  0  0  0  0  0  0  0  0  0
   -3.2875    1.3208   -0.7920 O   0  0  0  0  0  0  0  0  0  0  0  0
   -3.2765   -0.0314   -0.3000 C   0  0  2  0  0  0  0  0  0  0  0  0
   -3.5921   -0.9577   -1.3602 O   0  0  0  0  0  0  0  0  0  0  0  0
   -4.2690   -0.1937    0.8641 C   0  0  2  0  0  0  0  0  0  0  0  0
   -5.6329   -0.2592    0.3725 N   0  3  0  0  0  0  0  0  0  0  0  0
   -4.1328    0.9042    1.9257 C   0  0  1  0  0  0  0  0  0  0  0  0
   -3.0050    0.6322    2.7424 O   0  0  0  0  0  0  0  0  0  0  0  0
   -3.9929    2.2925    1.3073 C   0  0  2  0  0  0  0  0  0  0  0  0
   -5.2370    2.7049    0.7534 O   0  0  0  0  0  0  0  0  0  0  0  0
   -2.7198    3.6530   -0.3758 C   0  0  0  0  0  0  0  0  0  0  0  0
   -3.9429    4.1143   -1.0052 N   0  3  0  0  0  0  0  0  0  0  0  0
   -6.5006  -10.2586   -1.5000 C   0  0  1  0  0  0  0  0  0  0  0  0
   -5.4713   -9.3524   -1.9489 O   0  0  0  0  0  0  0  0  0  0  0  0
   -5.7618   -7.9660   -1.6576 C   0  0  2  0  0  0  0  0  0  0  0  0
   -5.7821   -7.7028   -0.2328 O   0  0  0  0  0  0  0  0  0  0  0  0
   -7.0788   -7.5396   -2.3174 C   0  0  2  0  0  0  0  0  0  0  0  0
   -7.4640   -6.2216   -1.8481 N   0  3  0  0  0  0  0  0  0  0  0  0
   -8.2039   -8.5252   -2.0221 C   0  0  1  0  0  0  0  0  0  0  0  0
   -9.3279   -8.2251   -2.8348 O   0  0  0  0  0  0  0  0  0  0  0  0
   -7.8013   -9.9766   -2.2340 C   0  0  2  0  0  0  0  0  0  0  0  0
   -8.8222  -10.8454   -1.7655 O   0  0  0  0  0  0  0  0  0  0  0  0
   -6.0987  -11.6985   -1.8063 C   0  0  0  0  0  0  0  0  0  0  0  0
   -5.6278  -12.3670   -0.6071 N   0  3  0  0  0  0  0  0  0  0  0  0
   -3.4952   -5.5196    2.6139 C   0  0  2  0  0  0  0  0  0  0  0  0
   -2.8173   -6.6594    1.8794 C   0  0  0  0  0  0  0  0  0  0  0  0
   -3.8498   -7.5614    1.2290 C   0  0  1  0  0  0  0  0  0  0  0  0
   -4.7042   -6.8288    0.1935 C   0  0  2  0  0  0  0  0  0  0  0  0
   -5.2861   -5.5222    0.7807 C   0  0  1  0  0  0  0  0  0  0  0  0
   -4.3414   -4.6899    1.6577 C   0  0  1  0  0  0  0  0  0  0  0  0
   -2.4883   -4.6770    3.2303 N   0  3  0  0  0  0  0  0  0  0  0  0
   -3.1734   -8.6921    0.6237 N   0  3  0  0  0  0  0  0  0  0  0  0
   -5.8678   -4.6884   -0.2514 O   0  0  0  0  0  0  0  0  0  0  0  0
   -5.0892   -3.7258    2.3915 O   0  0  0  0  0  0  0  0  0  0  0  0
  1  2  1  0  0  0  0
  3  2  1  1  0  0  0
  3  4  1  0  0  0  0
  3  5  1  0  0  0  0
  4  8  1  0  0  0  0
  5  6  1  0  0  0  0
  5 12  1  6  0  0  0
  6  7  1  6  0  0  0
  6  8  1  0  0  0  0
  8 41  1  1  0  0  0
  9 10  1  0  0  0  0
  9 17  1  0  0  0  0
  9 19  1  6  0  0  0
 10 11  1  0  0  0  0
 11 12  1  6  0  0  0
 11 13  1  0  0  0  0
 13 14  1  6  0  0  0
 13 15  1  0  0  0  0
 15 16  1  6  0  0  0
 15 17  1  0  0  0  0
 17 18  1  6  0  0  0
 19 20  1  0  0  0  0
 21 22  1  0  0  0  0
 21 29  1  0  0  0  0
 21 31  1  6  0  0  0
 22 23  1  0  0  0  0
 23 24  1  1  0  0  0
 23 25  1  0  0  0  0
 25 26  1  1  0  0  0
 25 27  1  0  0  0  0
 27 28  1  6  0  0  0
 27 29  1  0  0  0  0
 29 30  1  1  0  0  0
 31 32  1  0  0  0  0
 33 34  1  0  0  0  0
 33 38  1  0  0  0  0
 33 39  1  6  0  0  0
 34 35  1  0  0  0  0
 35 36  1  0  0  0  0
 35 40  1  6  0  0  0
 36 24  1  1  0  0  0
 36 37  1  0  0  0  0
 37 38  1  0  0  0  0
 37 41  1  6  0  0  0
 38 42  1  1  0  0  0
M  CHG  6  14   1  20   1  26   1  32   1  39   1  40   1
M  END
>  <CHROM.1>
-178.53304329,46.17337127,-105.35395873,-48.56535220,-18.54416143,60.12112105
-161.64734869,-138.99952361,-51.80825852,55.80942577,161.84592968,102.72969036
113.57477815,-120.68551711,94.71476072,-174.06927614,61.75548042,168.77334058
66.40933513,75.36224846,-54.76509338,-173.02544235,-4.76251340,-4.28834165
-0.26408297,-1.22670888,0.73451220,3.04930951

>  <Name>


>  <RI>
0

>  <Rbt.Current_Directory>
/home/itssahil/PROJECTS/Mol_Feturizer/New_Systems/rnas/1qd3

>  <Rbt.Executable>
rbdock ($Id: //depot/dev/client3/rdock/2013.1/src/exe/rbdock.cxx#4 $)

>  <Rbt.Library>
libRbt.so (2013.1, Build901 2013/11/27)

>  <Rbt.Parameter_File>
/export/apps/rDock/src/rDock_2013.1_src/data/scripts/dock_solv.prm

>  <Rbt.Receptor>
prm/blind_docking_100.prm

>  <SCORE>
-40.2337

>  <SCORE.INTER>
-35.3967

>  <SCORE.INTER.CONST>
1

>  <SCORE.INTER.POLAR>
-4.43322

>  <SCORE.INTER.ROT>
9

>  <SCORE.INTER.SOLV>
25.3409

>  <SCORE.INTER.VDW>
-26.8673

>  <SCORE.INTER.norm>
-0.842777

>  <SCORE.INTRA>
-8.09101

>  <SCORE.INTRA.DIHEDRAL>
0.0588507

>  <SCORE.INTRA.DIHEDRAL.0>
40.6252

>  <SCORE.INTRA.POLAR>
0.12053

>  <SCORE.INTRA.POLAR.0>
-1.20161

>  <SCORE.INTRA.REPUL>
-0.108807

>  <SCORE.INTRA.REPUL.0>
0.115675

>  <SCORE.INTRA.SOLV>
-1.69727

>  <SCORE.INTRA.SOLV.lig_0>
-154.895

>  <SCORE.INTRA.VDW>
-7.13756

>  <SCORE.INTRA.VDW.0>
2.2925

>  <SCORE.INTRA.norm>
-0.192643

>  <SCORE.RESTR>
3.25401

>  <SCORE.RESTR.CAVITY>
3.25401

>  <SCORE.RESTR.norm>
0.0774763

>  <SCORE.SYSTEM>
0

>  <SCORE.SYSTEM.CONST>
0

>  <SCORE.SYSTEM.DIHEDRAL>
0

>  <SCORE.SYSTEM.SOLV>
0

>  <SCORE.SYSTEM.norm>
0

>  <SCORE.heavy>
42

>  <SCORE.norm>
-0.957944

>  <RMSD>
15.975

$$$$

 OpenBabel11021811413D
libRbt.so/2013.1/901 2013/11/27
 42 45  0  0  0  0  0  0  0  0999 V2000
   -7.1734   -3.7278   -0.8838 O   0  0  0  0  0  0  0  0  0  0  0  0
   -5.7931   -3.9169   -0.6068 C   0  0  0  0  0  0  0  0  0  0  0  0
   -5.6244   -4.5505    0.7747 C   0  0  1  0  0  0  0  0  0  0  0  0
   -5.6374   -5.9925    0.6962 O   0  0  0  0  0  0  0  0  0  0  0  0
   -4.3129   -4.1853    1.4500 C   0  0  2  0  0  0  0  0  0  0  0  0
   -4.2130   -5.2972    2.4808 C   0  0  1  0  0  0  0  0  0  0  0  0
   -5.0861   -5.0224    3.5708 O   0  0  0  0  0  0  0  0  0  0  0  0
   -4.7264   -6.5200    1.6936 C   0  0  2  0  0  0  0  0  0  0  0  0
   -4.0857    0.5452    0.8108 C   0  0  2  0  0  0  0  0  0  0  0  0
   -4.1917   -0.5375    1.7479 O   0  0  0  0  0  0  0  0  0  0  0  0
   -4.2085   -1.8176    1.0906 C   0  0  2  0  0  0  0  0  0  0  0  0
   -4.3742   -2.8784    2.0544 O   0  0  0  0  0  0  0  0  0  0  0  0
   -2.9180   -2.0288    0.2804 C   0  0  2  0  0  0  0  0  0  0  0  0
   -1.8091   -2.3612    1.1557 N   0  3  0  0  0  0  0  0  0  0  0  0
   -2.5625   -0.8285   -0.6048 C   0  0  1  0  0  0  0  0  0  0  0  0
   -3.3856   -0.8354   -1.7604 O   0  0  0  0  0  0  0  0  0  0  0  0
   -2.7239    0.4997    0.1296 C   0  0  2  0  0  0  0  0  0  0  0  0
   -1.6886    0.6504    1.0938 O   0  0  0  0  0  0  0  0  0  0  0  0
   -4.2988    1.8846    1.5103 C   0  0  0  0  0  0  0  0  0  0  0  0
   -5.7015    2.0716    1.8302 N   0  3  0  0  0  0  0  0  0  0  0  0
   -6.1106  -11.4589   -1.2705 C   0  0  1  0  0  0  0  0  0  0  0  0
   -4.6891  -11.5018   -1.5145 O   0  0  0  0  0  0  0  0  0  0  0  0
   -4.0023  -10.2942   -1.1127 C   0  0  2  0  0  0  0  0  0  0  0  0
   -4.0470  -10.0953    0.3219 O   0  0  0  0  0  0  0  0  0  0  0  0
   -4.5668   -9.0782   -1.8573 C   0  0  2  0  0  0  0  0  0  0  0  0
   -4.0207   -7.8564   -1.2964 N   0  3  0  0  0  0  0  0  0  0  0  0
   -6.0888   -9.0269   -1.7834 C   0  0  1  0  0  0  0  0  0  0  0  0
   -6.5773   -8.0344   -2.6725 O   0  0  0  0  0  0  0  0  0  0  0  0
   -6.7503  -10.3590   -2.1018 C   0  0  2  0  0  0  0  0  0  0  0  0
   -8.1434  -10.2947   -1.8338 O   0  0  0  0  0  0  0  0  0  0  0  0
   -6.7511  -12.7817   -1.6812 C   0  0  0  0  0  0  0  0  0  0  0  0
   -6.4468  -13.0923   -3.0660 N   0  3  0  0  0  0  0  0  0  0  0  0
   -1.2688   -9.1478    3.4014 C   0  0  2  0  0  0  0  0  0  0  0  0
   -0.8414  -10.1395    2.3375 C   0  0  0  0  0  0  0  0  0  0  0  0
   -2.0489  -10.6588    1.5791 C   0  0  1  0  0  0  0  0  0  0  0  0
   -2.8112   -9.5494    0.8532 C   0  0  2  0  0  0  0  0  0  0  0  0
   -3.1221   -8.3746    1.8092 C   0  0  1  0  0  0  0  0  0  0  0  0
   -2.0018   -7.9688    2.7759 C   0  0  1  0  0  0  0  0  0  0  0  0
   -0.0987   -8.6718    4.1143 N   0  3  0  0  0  0  0  0  0  0  0  0
   -1.6149  -11.6765    0.6419 N   0  3  0  0  0  0  0  0  0  0  0  0
   -3.5982   -7.2128    1.0863 O   0  0  0  0  0  0  0  0  0  0  0  0
   -2.5290   -7.1328    3.8008 O   0  0  0  0  0  0  0  0  0  0  0  0
  1  2  1  0  0  0  0
  3  2  1  6  0  0  0
  3  4  1  0  0  0  0
  3  5  1  0  0  0  0
  4  8  1  0  0  0  0
  5  6  1  0  0  0  0
  5 12  1  1  0  0  0
  6  7  1  1  0  0  0
  6  8  1  0  0  0  0
  8 41  1  6  0  0  0
  9 10  1  0  0  0  0
  9 17  1  0  0  0  0
  9 19  1  1  0  0  0
 10 11  1  0  0  0  0
 11 12  1  1  0  0  0
 11 13  1  0  0  0  0
 13 14  1  1  0  0  0
 13 15  1  0  0  0  0
 15 16  1  6  0  0  0
 15 17  1  0  0  0  0
 17 18  1  1  0  0  0
 19 20  1  0  0  0  0
 21 22  1  0  0  0  0
 21 29  1  0  0  0  0
 21 31  1  6  0  0  0
 22 23  1  0  0  0  0
 23 24  1  1  0  0  0
 23 25  1  0  0  0  0
 25 26  1  1  0  0  0
 25 27  1  0  0  0  0
 27 28  1  6  0  0  0
 27 29  1  0  0  0  0
 29 30  1  1  0  0  0
 31 32  1  0  0  0  0
 33 34  1  0  0  0  0
 33 38  1  0  0  0  0
 33 39  1  6  0  0  0
 34 35  1  0  0  0  0
 35 36  1  0  0  0  0
 35 40  1  6  0  0  0
 36 24  1  1  0  0  0
 36 37  1  0  0  0  0
 37 38  1  0  0  0  0
 37 41  1  6  0  0  0
 38 42  1  1  0  0  0
M  CHG  6  14   1  20   1  26   1  32   1  39   1  40   1
M  END
>  <CHROM.1>
66.02396463,89.38484704,-79.18380377,64.00118517,-144.38592892,-74.03850147
-176.36141185,90.53457754,65.36794296,-63.60504091,95.02239407,-55.67530739
142.12857128,-105.22667792,49.79446520,-174.04311297,-178.29915508,73.43147421
-39.98808855,172.58149390,137.29788653,-53.96738471,-4.12978568,-6.15012688
0.49770884,1.46388624,-0.74507155,0.08195814

>  <Name>


>  <RI>
0

>  <Rbt.Current_Directory>
/home/itssahil/PROJECTS/Mol_Feturizer/New_Systems/rnas/1qd3

>  <Rbt.Executable>
rbdock ($Id: //depot/dev/client3/rdock/2013.1/src/exe/rbdock.cxx#4 $)

>  <Rbt.Library>
libRbt.so (2013.1, Build901 2013/11/27)

>  <Rbt.Parameter_File>
/export/apps/rDock/src/rDock_2013.1_src/data/scripts/dock_solv.prm

>  <Rbt.Receptor>
prm/blind_docking_60.prm

>  <SCORE>
-49.2021

>  <SCORE.INTER>
-39.9465

>  <SCORE.INTER.CONST>
1

>  <SCORE.INTER.POLAR>
-5.76383

>  <SCORE.INTER.ROT>
9

>  <SCORE.INTER.SOLV>
33.1212

>  <SCORE.INTER.VDW>
-28.0586

>  <SCORE.INTER.norm>
-0.951107

>  <SCORE.INTRA>
-13.8524

>  <SCORE.INTRA.DIHEDRAL>
-5.97107

>  <SCORE.INTRA.DIHEDRAL.0>
40.6252

>  <SCORE.INTRA.POLAR>
-0.0507504

>  <SCORE.INTRA.POLAR.0>
-1.20161

>  <SCORE.INTRA.REPUL>
-0.115675

>  <SCORE.INTRA.REPUL.0>
0.115675

>  <SCORE.INTRA.SOLV>
-6.71399

>  <SCORE.INTRA.SOLV.lig_0>
-154.895

>  <SCORE.INTRA.VDW>
-6.75896

>  <SCORE.INTRA.VDW.0>
2.2925

>  <SCORE.INTRA.norm>
-0.329819

>  <SCORE.RESTR>
4.59677

>  <SCORE.RESTR.CAVITY>
4.59677

>  <SCORE.RESTR.norm>
0.109447

>  <SCORE.SYSTEM>
0

>  <SCORE.SYSTEM.CONST>
0

>  <SCORE.SYSTEM.DIHEDRAL>
0

>  <SCORE.SYSTEM.SOLV>
0

>  <SCORE.SYSTEM.norm>
0

>  <SCORE.heavy>
42

>  <SCORE.norm>
-1.17148

>  <RMSD>
16.012

$$$$

 OpenBabel11021811413D
libRbt.so/2013.1/901 2013/11/27
 42 45  0  0  0  0  0  0  0  0999 V2000
   -0.5843   -4.4346    2.0333 O   0  0  0  0  0  0  0  0  0  0  0  0
   -1.9604   -4.1191    1.8771 C   0  0  0  0  0  0  0  0  0  0  0  0
   -2.3751   -4.3189    0.4188 C   0  0  1  0  0  0  0  0  0  0  0  0
   -2.6493   -5.7085    0.1366 O   0  0  0  0  0  0  0  0  0  0  0  0
   -3.6388   -3.5637    0.0419 C   0  0  2  0  0  0  0  0  0  0  0  0
   -4.0531   -4.3229   -1.2074 C   0  0  1  0  0  0  0  0  0  0  0  0
   -3.2413   -3.9214   -2.3055 O   0  0  0  0  0  0  0  0  0  0  0  0
   -3.7325   -5.7821   -0.8247 C   0  0  2  0  0  0  0  0  0  0  0  0
   -5.5662    0.7419   -0.1359 C   0  0  2  0  0  0  0  0  0  0  0  0
   -4.3685   -0.0395   -0.0079 O   0  0  0  0  0  0  0  0  0  0  0  0
   -4.5700   -1.4036   -0.4196 C   0  0  2  0  0  0  0  0  0  0  0  0
   -3.3658   -2.1738   -0.2238 O   0  0  0  0  0  0  0  0  0  0  0  0
   -5.0110   -1.4667   -1.8920 C   0  0  2  0  0  0  0  0  0  0  0  0
   -3.8830   -1.2427   -2.7773 N   0  3  0  0  0  0  0  0  0  0  0  0
   -6.1515   -0.4954   -2.2186 C   0  0  1  0  0  0  0  0  0  0  0  0
   -7.3766   -1.0310   -1.7442 O   0  0  0  0  0  0  0  0  0  0  0  0
   -5.9274    0.8857   -1.6088 C   0  0  2  0  0  0  0  0  0  0  0  0
   -4.8860    1.5606   -2.3049 O   0  0  0  0  0  0  0  0  0  0  0  0
   -5.3878    2.1102    0.5158 C   0  0  0  0  0  0  0  0  0  0  0  0
   -6.2790    3.0807   -0.0916 N   0  3  0  0  0  0  0  0  0  0  0  0
   -6.9485   -7.6902   -2.4595 C   0  0  1  0  0  0  0  0  0  0  0  0
   -6.7833   -8.3097   -1.1669 O   0  0  0  0  0  0  0  0  0  0  0  0
   -5.9170   -9.4674   -1.1930 C   0  0  2  0  0  0  0  0  0  0  0  0
   -4.5510   -9.1165   -1.5260 O   0  0  0  0  0  0  0  0  0  0  0  0
   -6.4644  -10.5305   -2.1532 C   0  0  2  0  0  0  0  0  0  0  0  0
   -5.4868  -11.5881   -2.3309 N   0  3  0  0  0  0  0  0  0  0  0  0
   -6.8135   -9.9372   -3.5136 C   0  0  1  0  0  0  0  0  0  0  0  0
   -7.5288  -10.8920   -4.2822 O   0  0  0  0  0  0  0  0  0  0  0  0
   -7.6264   -8.6552   -3.4185 C   0  0  2  0  0  0  0  0  0  0  0  0
   -7.7559   -8.0567   -4.6997 O   0  0  0  0  0  0  0  0  0  0  0  0
   -7.8386   -6.4567   -2.3376 C   0  0  0  0  0  0  0  0  0  0  0  0
   -7.7641   -5.6480   -3.5406 N   0  3  0  0  0  0  0  0  0  0  0  0
   -3.7349   -8.6085    2.6184 C   0  0  2  0  0  0  0  0  0  0  0  0
   -2.7210   -9.3619    1.7802 C   0  0  0  0  0  0  0  0  0  0  0  0
   -3.3373   -9.7956    0.4631 C   0  0  1  0  0  0  0  0  0  0  0  0
   -3.8056   -8.6133   -0.3864 C   0  0  2  0  0  0  0  0  0  0  0  0
   -4.6920   -7.6539    0.4411 C   0  0  1  0  0  0  0  0  0  0  0  0
   -4.2351   -7.3748    1.8790 C   0  0  1  0  0  0  0  0  0  0  0  0
   -3.1235   -8.2109    3.8721 N   0  3  0  0  0  0  0  0  0  0  0  0
   -2.3744  -10.5976   -0.2663 N   0  3  0  0  0  0  0  0  0  0  0  0
   -4.9204   -6.4056   -0.2577 O   0  0  0  0  0  0  0  0  0  0  0  0
   -5.2958   -6.7723    2.6133 O   0  0  0  0  0  0  0  0  0  0  0  0
  1  2  1  0  0  0  0
  3  2  1  1  0  0  0
  3  4  1  0  0  0  0
  3  5  1  0  0  0  0
  4  8  1  0  0  0  0
  5  6  1  0  0  0  0
  5 12  1  6  0  0  0
  6  7  1  6  0  0  0
  6  8  1  0  0  0  0
  8 41  1  1  0  0  0
  9 10  1  0  0  0  0
  9 17  1  0  0  0  0
  9 19  1  6  0  0  0
 10 11  1  0  0  0  0
 11 12  1  6  0  0  0
 11 13  1  0  0  0  0
 13 14  1  6  0  0  0
 13 15  1  0  0  0  0
 15 16  1  1  0  0  0
 15 17  1  0  0  0  0
 17 18  1  6  0  0  0
 19 20  1  0  0  0  0
 21 22  1  0  0  0  0
 21 29  1  0  0  0  0
 21 31  1  1  0  0  0
 22 23  1  0  0  0  0
 23 24  1  6  0  0  0
 23 25  1  0  0  0  0
 25 26  1  6  0  0  0
 25 27  1  0  0  0  0
 27 28  1  6  0  0  0
 27 29  1  0  0  0  0
 29 30  1  6  0  0  0
 31 32  1  0  0  0  0
 33 34  1  0  0  0  0
 33 38  1  0  0  0  0
 33 39  1  1  0  0  0
 34 35  1  0  0  0  0
 35 36  1  0  0  0  0
 35 40  1  6  0  0  0
 36 24  1  6  0  0  0
 36 37  1  0  0  0  0
 37 38  1  0  0  0  0
 37 41  1  6  0  0  0
 38 42  1  1  0  0  0
M  CHG  6  14   1  20   1  26   1  32   1  39   1  40   1
M  END
>  <CHROM.1>
98.94870562,81.38223017,-172.74769042,-179.28931865,-48.70977092,154.37962659
150.60275681,-37.85831424,170.22167731,-44.44974077,173.09878250,166.56134265
81.28336482,79.93992946,-177.21592267,-64.93678857,177.25632299,-60.96162310
-46.06876486,59.72723621,-47.55815110,-62.40592199,-4.86982704,-5.34530561
-0.80157163,-1.53258190,0.84643891,-3.13305494

>  <Name>


>  <RI>
0

>  <Rbt.Current_Directory>
/home/itssahil/PROJECTS/Mol_Feturizer/New_Systems/rnas/1qd3

>  <Rbt.Executable>
rbdock ($Id: //depot/dev/client3/rdock/2013.1/src/exe/rbdock.cxx#4 $)

>  <Rbt.Library>
libRbt.so (2013.1, Build901 2013/11/27)

>  <Rbt.Parameter_File>
/export/apps/rDock/src/rDock_2013.1_src/data/scripts/dock_solv.prm

>  <Rbt.Receptor>
prm/blind_docking_20.prm

>  <SCORE>
-53.0628

>  <SCORE.INTER>
-37.06

>  <SCORE.INTER.CONST>
1

>  <SCORE.INTER.POLAR>
-4.97489

>  <SCORE.INTER.ROT>
9

>  <SCORE.INTER.SOLV>
21.6792

>  <SCORE.INTER.VDW>
-24.9501

>  <SCORE.INTER.norm>
-0.882381

>  <SCORE.INTRA>
-17.0596

>  <SCORE.INTRA.DIHEDRAL>
-17.0708

>  <SCORE.INTRA.DIHEDRAL.0>
40.6252

>  <SCORE.INTRA.POLAR>
0.117492

>  <SCORE.INTRA.POLAR.0>
-1.20161

>  <SCORE.INTRA.REPUL>
-0.115675

>  <SCORE.INTRA.REPUL.0>
0.115675

>  <SCORE.INTRA.SOLV>
-6.61015

>  <SCORE.INTRA.SOLV.lig_0>
-154.895

>  <SCORE.INTRA.VDW>
-5.04021

>  <SCORE.INTRA.VDW.0>
2.2925

>  <SCORE.INTRA.norm>
-0.40618

>  <SCORE.RESTR>
1.05674

>  <SCORE.RESTR.CAVITY>
1.05674

>  <SCORE.RESTR.norm>
0.0251604

>  <SCORE.SYSTEM>
0

>  <SCORE.SYSTEM.CONST>
0

>  <SCORE.SYSTEM.DIHEDRAL>
0

>  <SCORE.SYSTEM.SOLV>
0

>  <SCORE.SYSTEM.norm>
0

>  <SCORE.heavy>
42

>  <SCORE.norm>
-1.2634

>  <RMSD>
16.021

$$$$

 OpenBabel11021811413D
libRbt.so/2013.1/901 2013/11/27
 42 45  0  0  0  0  0  0  0  0999 V2000
   -0.8526   -5.7795    2.3567 O   0  0  0  0  0  0  0  0  0  0  0  0
   -1.5481   -5.7548    1.1183 C   0  0  0  0  0  0  0  0  0  0  0  0
   -2.3978   -4.4868    1.0270 C   0  0  1  0  0  0  0  0  0  0  0  0
   -3.0556   -4.3867   -0.2548 O   0  0  0  0  0  0  0  0  0  0  0  0
   -3.5056   -4.4267    2.0656 C   0  0  2  0  0  0  0  0  0  0  0  0
   -4.4248   -3.3965    1.4310 C   0  0  1  0  0  0  0  0  0  0  0  0
   -3.8919   -2.0912    1.6266 O   0  0  0  0  0  0  0  0  0  0  0  0
   -4.3551   -3.7724   -0.0632 C   0  0  2  0  0  0  0  0  0  0  0  0
   -3.1101   -7.4056    4.6740 C   0  0  2  0  0  0  0  0  0  0  0  0
   -2.9831   -6.3408    3.7193 O   0  0  0  0  0  0  0  0  0  0  0  0
   -3.0790   -5.0467    4.3415 C   0  0  2  0  0  0  0  0  0  0  0  0
   -3.0060   -4.0021    3.3490 O   0  0  0  0  0  0  0  0  0  0  0  0
   -1.9687   -4.8652    5.3906 C   0  0  2  0  0  0  0  0  0  0  0  0
   -0.6949   -4.5932    4.7504 N   0  3  0  0  0  0  0  0  0  0  0  0
   -1.8457   -6.0579    6.3462 C   0  0  1  0  0  0  0  0  0  0  0  0
   -2.8819   -5.9952    7.3133 O   0  0  0  0  0  0  0  0  0  0  0  0
   -1.9109   -7.3952    5.6135 C   0  0  2  0  0  0  0  0  0  0  0  0
   -0.7109   -7.6051    4.8783 O   0  0  0  0  0  0  0  0  0  0  0  0
   -3.2333   -8.7515    3.9653 C   0  0  0  0  0  0  0  0  0  0  0  0
   -3.3959   -9.8205    4.9327 N   0  3  0  0  0  0  0  0  0  0  0  0
   -7.4179   -9.3580   -1.3172 C   0  0  1  0  0  0  0  0  0  0  0  0
   -6.9162   -8.3463   -0.4189 O   0  0  0  0  0  0  0  0  0  0  0  0
   -5.5753   -7.9097   -0.7395 C   0  0  2  0  0  0  0  0  0  0  0  0
   -5.5174   -7.2235   -2.0144 O   0  0  0  0  0  0  0  0  0  0  0  0
   -4.5989   -9.0916   -0.7029 C   0  0  2  0  0  0  0  0  0  0  0  0
   -3.3087   -8.6848   -1.2280 N   0  3  0  0  0  0  0  0  0  0  0  0
   -5.1167  -10.2775   -1.5091 C   0  0  1  0  0  0  0  0  0  0  0  0
   -4.3083  -11.4164   -1.2569 O   0  0  0  0  0  0  0  0  0  0  0  0
   -6.5700  -10.6152   -1.2139 C   0  0  2  0  0  0  0  0  0  0  0  0
   -7.0433  -11.5970   -2.1242 O   0  0  0  0  0  0  0  0  0  0  0  0
   -8.8479   -9.7313   -0.9370 C   0  0  0  0  0  0  0  0  0  0  0  0
   -9.4828  -10.4854   -2.0023 N   0  3  0  0  0  0  0  0  0  0  0  0
   -7.0994   -3.6273   -3.6466 C   0  0  2  0  0  0  0  0  0  0  0  0
   -7.9254   -4.8918   -3.7765 C   0  0  0  0  0  0  0  0  0  0  0  0
   -7.0668   -6.1163   -3.5191 C   0  0  1  0  0  0  0  0  0  0  0  0
   -6.4711   -6.1333   -2.1106 C   0  0  2  0  0  0  0  0  0  0  0  0
   -5.7723   -4.7920   -1.7891 C   0  0  1  0  0  0  0  0  0  0  0  0
   -6.4937   -3.5199   -2.2536 C   0  0  1  0  0  0  0  0  0  0  0  0
   -7.9407   -2.4738   -3.9026 N   0  3  0  0  0  0  0  0  0  0  0  0
   -7.8620   -7.3065   -3.7505 N   0  3  0  0  0  0  0  0  0  0  0  0
   -5.4414   -4.6887   -0.3825 O   0  0  0  0  0  0  0  0  0  0  0  0
   -5.5996   -2.4130   -2.2029 O   0  0  0  0  0  0  0  0  0  0  0  0
  1  2  1  0  0  0  0
  3  2  1  6  0  0  0
  3  4  1  0  0  0  0
  3  5  1  0  0  0  0
  4  8  1  0  0  0  0
  5  6  1  0  0  0  0
  5 12  1  1  0  0  0
  6  7  1  6  0  0  0
  6  8  1  0  0  0  0
  8 41  1  1  0  0  0
  9 10  1  0  0  0  0
  9 17  1  0  0  0  0
  9 19  1  6  0  0  0
 10 11  1  0  0  0  0
 11 12  1  6  0  0  0
 11 13  1  0  0  0  0
 13 14  1  6  0  0  0
 13 15  1  0  0  0  0
 15 16  1  1  0  0  0
 15 17  1  0  0  0  0
 17 18  1  6  0  0  0
 19 20  1  0  0  0  0
 21 22  1  0  0  0  0
 21 29  1  0  0  0  0
 21 31  1  1  0  0  0
 22 23  1  0  0  0  0
 23 24  1  6  0  0  0
 23 25  1  0  0  0  0
 25 26  1  6  0  0  0
 25 27  1  0  0  0  0
 27 28  1  1  0  0  0
 27 29  1  0  0  0  0
 29 30  1  6  0  0  0
 31 32  1  0  0  0  0
 33 34  1  0  0  0  0
 33 38  1  0  0  0  0
 33 39  1  1  0  0  0
 34 35  1  0  0  0  0
 35 36  1  0  0  0  0
 35 40  1  1  0  0  0
 36 24  1  6  0  0  0
 36 37  1  0  0  0  0
 37 38  1  0  0  0  0
 37 41  1  1  0  0  0
 38 42  1  6  0  0  0
M  CHG  6  14   1  20   1  26   1  32   1  39   1  40   1
M  END
>  <CHROM.1>
-159.40695699,176.43109261,-113.15715540,59.39396917,-82.22563020,-178.53467820
28.52859540,89.20898253,-173.77642428,57.80752040,21.80094587,165.85846597
53.09823565,-140.63682394,128.12223272,-55.41443815,69.12827284,-54.32990204
-157.29432269,-175.56758293,156.55400667,162.27402227,-4.62636682,-6.51636392
0.61814835,-0.05558517,-0.96288461,-0.24869698

>  <Name>


>  <RI>
0

>  <Rbt.Current_Directory>
/home/itssahil/PROJECTS/Mol_Feturizer/New_Systems/rnas/1qd3

>  <Rbt.Executable>
rbdock ($Id: //depot/dev/client3/rdock/2013.1/src/exe/rbdock.cxx#4 $)

>  <Rbt.Library>
libRbt.so (2013.1, Build901 2013/11/27)

>  <Rbt.Parameter_File>
/export/apps/rDock/src/rDock_2013.1_src/data/scripts/dock_solv.prm

>  <Rbt.Receptor>
prm/blind_docking_60.prm

>  <SCORE>
-40.9581

>  <SCORE.INTER>
-26.6678

>  <SCORE.INTER.CONST>
1

>  <SCORE.INTER.POLAR>
-3.50939

>  <SCORE.INTER.ROT>
9

>  <SCORE.INTER.SOLV>
18.465

>  <SCORE.INTER.VDW>
-21.8356

>  <SCORE.INTER.norm>
-0.634948

>  <SCORE.INTRA>
-15.869

>  <SCORE.INTRA.DIHEDRAL>
-5.92547

>  <SCORE.INTRA.DIHEDRAL.0>
40.6252

>  <SCORE.INTRA.POLAR>
-1.22784

>  <SCORE.INTRA.POLAR.0>
-1.20161

>  <SCORE.INTRA.REPUL>
-0.112745

>  <SCORE.INTRA.REPUL.0>
0.115675

>  <SCORE.INTRA.SOLV>
-2.0001

>  <SCORE.INTRA.SOLV.lig_0>
-154.895

>  <SCORE.INTRA.VDW>
-7.16786

>  <SCORE.INTRA.VDW.0>
2.2925

>  <SCORE.INTRA.norm>
-0.377834

>  <SCORE.RESTR>
1.57873

>  <SCORE.RESTR.CAVITY>
1.57873

>  <SCORE.RESTR.norm>
0.0375889

>  <SCORE.SYSTEM>
0

>  <SCORE.SYSTEM.CONST>
0

>  <SCORE.SYSTEM.DIHEDRAL>
0

>  <SCORE.SYSTEM.SOLV>
0

>  <SCORE.SYSTEM.norm>
0

>  <SCORE.heavy>
42

>  <SCORE.norm>
-0.975194

>  <RMSD>
16.025

$$$$

 OpenBabel11021811413D
libRbt.so/2013.1/901 2013/11/27
 42 45  0  0  0  0  0  0  0  0999 V2000
   -2.8366   -1.9151    0.6281 O   0  0  0  0  0  0  0  0  0  0  0  0
   -3.8338   -1.8473    1.6375 C   0  0  0  0  0  0  0  0  0  0  0  0
   -4.8504   -2.9720    1.4371 C   0  0  1  0  0  0  0  0  0  0  0  0
   -5.4875   -2.8798    0.1444 O   0  0  0  0  0  0  0  0  0  0  0  0
   -4.2341   -4.3599    1.4959 C   0  0  2  0  0  0  0  0  0  0  0  0
   -5.3090   -5.1704    0.7912 C   0  0  1  0  0  0  0  0  0  0  0  0
   -6.4002   -5.3950    1.6770 O   0  0  0  0  0  0  0  0  0  0  0  0
   -5.7426   -4.2210   -0.3443 C   0  0  2  0  0  0  0  0  0  0  0  0
   -1.7830   -7.2790    4.3146 C   0  0  2  0  0  0  0  0  0  0  0  0
   -2.6095   -6.1087    4.2212 O   0  0  0  0  0  0  0  0  0  0  0  0
   -3.2489   -6.0033    2.9363 C   0  0  2  0  0  0  0  0  0  0  0  0
   -4.0239   -4.7890    2.8555 O   0  0  0  0  0  0  0  0  0  0  0  0
   -4.1438   -7.2266    2.6733 C   0  0  2  0  0  0  0  0  0  0  0  0
   -5.3802   -7.1317    3.4275 N   0  3  0  0  0  0  0  0  0  0  0  0
   -3.4397   -8.5578    2.9614 C   0  0  1  0  0  0  0  0  0  0  0  0
   -2.5622   -8.8677    1.8905 O   0  0  0  0  0  0  0  0  0  0  0  0
   -2.6565   -8.5262    4.2710 C   0  0  2  0  0  0  0  0  0  0  0  0
   -3.5549   -8.5338    5.3743 O   0  0  0  0  0  0  0  0  0  0  0  0
   -0.9462   -7.2460    5.5903 C   0  0  0  0  0  0  0  0  0  0  0  0
   -0.0410   -6.1123    5.5733 N   0  3  0  0  0  0  0  0  0  0  0  0
   -6.7939   -9.7351   -1.4342 C   0  0  1  0  0  0  0  0  0  0  0  0
   -7.0619   -8.5121   -0.7171 O   0  0  0  0  0  0  0  0  0  0  0  0
   -6.1881   -7.4234   -1.0946 C   0  0  2  0  0  0  0  0  0  0  0  0
   -6.3976   -7.0094   -2.4674 O   0  0  0  0  0  0  0  0  0  0  0  0
   -4.7214   -7.7970   -0.8476 C   0  0  2  0  0  0  0  0  0  0  0  0
   -3.8499   -6.7890   -1.4222 N   0  3  0  0  0  0  0  0  0  0  0  0
   -4.3765   -9.1569   -1.4445 C   0  0  1  0  0  0  0  0  0  0  0  0
   -3.0941   -9.5652   -0.9940 O   0  0  0  0  0  0  0  0  0  0  0  0
   -5.3956  -10.2351   -1.1099 C   0  0  2  0  0  0  0  0  0  0  0  0
   -5.1203  -11.4193   -1.8438 O   0  0  0  0  0  0  0  0  0  0  0  0
   -7.7827  -10.8170   -1.0096 C   0  0  0  0  0  0  0  0  0  0  0  0
   -9.1401  -10.4375   -1.3561 N   0  3  0  0  0  0  0  0  0  0  0  0
   -7.1294   -3.3154   -4.4470 C   0  0  2  0  0  0  0  0  0  0  0  0
   -8.3236   -4.1690   -4.0684 C   0  0  0  0  0  0  0  0  0  0  0  0
   -7.8850   -5.5874   -3.7543 C   0  0  1  0  0  0  0  0  0  0  0  0
   -6.9140   -5.6569   -2.5748 C   0  0  2  0  0  0  0  0  0  0  0  0
   -5.7465   -4.6602   -2.7596 C   0  0  1  0  0  0  0  0  0  0  0  0
   -6.1133   -3.2770   -3.3135 C   0  0  1  0  0  0  0  0  0  0  0  0
   -7.5757   -1.9684   -4.7473 N   0  3  0  0  0  0  0  0  0  0  0  0
   -9.0594   -6.3976   -3.4962 N   0  3  0  0  0  0  0  0  0  0  0  0
   -4.9715   -4.5179   -1.5438 O   0  0  0  0  0  0  0  0  0  0  0  0
   -4.9360   -2.6037   -3.7467 O   0  0  0  0  0  0  0  0  0  0  0  0
  1  2  1  0  0  0  0
  3  2  1  6  0  0  0
  3  4  1  0  0  0  0
  3  5  1  0  0  0  0
  4  8  1  0  0  0  0
  5  6  1  0  0  0  0
  5 12  1  1  0  0  0
  6  7  1  1  0  0  0
  6  8  1  0  0  0  0
  8 41  1  6  0  0  0
  9 10  1  0  0  0  0
  9 17  1  0  0  0  0
  9 19  1  1  0  0  0
 10 11  1  0  0  0  0
 11 12  1  1  0  0  0
 11 13  1  0  0  0  0
 13 14  1  1  0  0  0
 13 15  1  0  0  0  0
 15 16  1  6  0  0  0
 15 17  1  0  0  0  0
 17 18  1  1  0  0  0
 19 20  1  0  0  0  0
 21 22  1  0  0  0  0
 21 29  1  0  0  0  0
 21 31  1  1  0  0  0
 22 23  1  0  0  0  0
 23 24  1  6  0  0  0
 23 25  1  0  0  0  0
 25 26  1  6  0  0  0
 25 27  1  0  0  0  0
 27 28  1  1  0  0  0
 27 29  1  0  0  0  0
 29 30  1  6  0  0  0
 31 32  1  0  0  0  0
 33 34  1  0  0  0  0
 33 38  1  0  0  0  0
 33 39  1  1  0  0  0
 34 35  1  0  0  0  0
 35 36  1  0  0  0  0
 35 40  1  1  0  0  0
 36 24  1  6  0  0  0
 36 37  1  0  0  0  0
 37 38  1  0  0  0  0
 37 41  1  1  0  0  0
 38 42  1  6  0  0  0
M  CHG  6  14   1  20   1  26   1  32   1  39   1  40   1
M  END
>  <CHROM.1>
64.79434267,-59.38720928,-170.71553529,179.33099689,-111.56097103,-62.74813128
156.72243570,78.82896183,-65.47271692,49.68205143,-54.70295857,63.07071588
114.94159605,-144.46887884,-179.71816516,176.34267819,65.66848642,58.20238000
-178.46426847,55.61602888,-51.45945988,-177.82147364,-5.03433230,-6.34223181
0.08554448,-0.40054616,-0.96456719,-0.21426721

>  <Name>


>  <RI>
0

>  <Rbt.Current_Directory>
/home/itssahil/PROJECTS/Mol_Feturizer/New_Systems/rnas/1qd3

>  <Rbt.Executable>
rbdock ($Id: //depot/dev/client3/rdock/2013.1/src/exe/rbdock.cxx#4 $)

>  <Rbt.Library>
libRbt.so (2013.1, Build901 2013/11/27)

>  <Rbt.Parameter_File>
/export/apps/rDock/src/rDock_2013.1_src/data/scripts/dock_solv.prm

>  <Rbt.Receptor>
prm/blind_docking_20.prm

>  <SCORE>
-53.125

>  <SCORE.INTER>
-27.7205

>  <SCORE.INTER.CONST>
1

>  <SCORE.INTER.POLAR>
-2.87231

>  <SCORE.INTER.ROT>
9

>  <SCORE.INTER.SOLV>
21.2659

>  <SCORE.INTER.VDW>
-25.5946

>  <SCORE.INTER.norm>
-0.660011

>  <SCORE.INTRA>
-26.3058

>  <SCORE.INTRA.DIHEDRAL>
-14.7937

>  <SCORE.INTRA.DIHEDRAL.0>
40.6252

>  <SCORE.INTRA.POLAR>
-1.72831

>  <SCORE.INTRA.POLAR.0>
-1.20161

>  <SCORE.INTRA.REPUL>
-0.115675

>  <SCORE.INTRA.REPUL.0>
0.115675

>  <SCORE.INTRA.SOLV>
-5.03114

>  <SCORE.INTRA.SOLV.lig_0>
-154.895

>  <SCORE.INTRA.VDW>
-9.93881

>  <SCORE.INTRA.VDW.0>
2.2925

>  <SCORE.INTRA.norm>
-0.62633

>  <SCORE.RESTR>
0.901316

>  <SCORE.RESTR.CAVITY>
0.901316

>  <SCORE.RESTR.norm>
0.0214599

>  <SCORE.SYSTEM>
0

>  <SCORE.SYSTEM.CONST>
0

>  <SCORE.SYSTEM.DIHEDRAL>
0

>  <SCORE.SYSTEM.SOLV>
0

>  <SCORE.SYSTEM.norm>
0

>  <SCORE.heavy>
42

>  <SCORE.norm>
-1.26488

>  <RMSD>
16.030

$$$$

 OpenBabel11021811413D
libRbt.so/2013.1/901 2013/11/27
 42 45  0  0  0  0  0  0  0  0999 V2000
   -1.5205   -5.8943   -1.3034 O   0  0  0  0  0  0  0  0  0  0  0  0
   -2.8384   -5.4604   -0.9989 C   0  0  0  0  0  0  0  0  0  0  0  0
   -3.0927   -4.0926   -1.6336 C   0  0  1  0  0  0  0  0  0  0  0  0
   -3.7201   -4.2228   -2.9278 O   0  0  0  0  0  0  0  0  0  0  0  0
   -4.0178   -3.2093   -0.8130 C   0  0  2  0  0  0  0  0  0  0  0  0
   -4.4634   -2.2152   -1.8723 C   0  0  1  0  0  0  0  0  0  0  0  0
   -3.4294   -1.2652   -2.1055 O   0  0  0  0  0  0  0  0  0  0  0  0
   -4.6376   -3.1152   -3.1126 C   0  0  2  0  0  0  0  0  0  0  0  0
   -3.9692   -5.4159    2.4812 C   0  0  2  0  0  0  0  0  0  0  0  0
   -3.7603   -4.6817    1.2651 O   0  0  0  0  0  0  0  0  0  0  0  0
   -3.4640   -3.2963    1.5177 C   0  0  2  0  0  0  0  0  0  0  0  0
   -3.3176   -2.5763    0.2760 O   0  0  0  0  0  0  0  0  0  0  0  0
   -2.1892   -3.1600    2.3677 C   0  0  2  0  0  0  0  0  0  0  0  0
   -1.0050   -3.3876    1.5600 N   0  3  0  0  0  0  0  0  0  0  0  0
   -2.1863   -4.0780    3.5958 C   0  0  1  0  0  0  0  0  0  0  0  0
   -3.0151   -3.5197    4.6029 O   0  0  0  0  0  0  0  0  0  0  0  0
   -2.6647   -5.4889    3.2643 C   0  0  2  0  0  0  0  0  0  0  0  0
   -1.6744   -6.1713    2.5039 O   0  0  0  0  0  0  0  0  0  0  0  0
   -4.5015   -6.8141    2.1806 C   0  0  0  0  0  0  0  0  0  0  0  0
   -4.9607   -7.4541    3.3990 N   0  3  0  0  0  0  0  0  0  0  0  0
   -7.0367   -9.0386   -3.6115 C   0  0  1  0  0  0  0  0  0  0  0  0
   -8.2449   -8.2536   -3.6904 O   0  0  0  0  0  0  0  0  0  0  0  0
   -8.0605   -6.8765   -3.2892 C   0  0  2  0  0  0  0  0  0  0  0  0
   -7.1859   -6.1591   -4.1947 O   0  0  0  0  0  0  0  0  0  0  0  0
   -7.5469   -6.7982   -1.8464 C   0  0  2  0  0  0  0  0  0  0  0  0
   -7.1673   -5.4340   -1.5290 N   0  3  0  0  0  0  0  0  0  0  0  0
   -6.3506   -7.7163   -1.6218 C   0  0  1  0  0  0  0  0  0  0  0  0
   -6.0600   -7.7920   -0.2347 O   0  0  0  0  0  0  0  0  0  0  0  0
   -6.5594   -9.1193   -2.1707 C   0  0  2  0  0  0  0  0  0  0  0  0
   -5.3512   -9.8620   -2.0996 O   0  0  0  0  0  0  0  0  0  0  0  0
   -7.3065  -10.4621   -4.0904 C   0  0  0  0  0  0  0  0  0  0  0  0
   -7.2577  -10.5351   -5.5392 N   0  3  0  0  0  0  0  0  0  0  0  0
   -7.5062   -2.6543   -6.5851 C   0  0  2  0  0  0  0  0  0  0  0  0
   -8.7455   -3.5086   -6.4045 C   0  0  0  0  0  0  0  0  0  0  0  0
   -8.3714   -4.8850   -5.8865 C   0  0  1  0  0  0  0  0  0  0  0  0
   -7.6803   -4.8342   -4.5231 C   0  0  2  0  0  0  0  0  0  0  0  0
   -6.5107   -3.8228   -4.5329 C   0  0  1  0  0  0  0  0  0  0  0  0
   -6.7621   -2.4984   -5.2657 C   0  0  1  0  0  0  0  0  0  0  0  0
   -7.8901   -1.3482   -7.0856 N   0  3  0  0  0  0  0  0  0  0  0  0
   -9.5655   -5.7050   -5.8223 N   0  3  0  0  0  0  0  0  0  0  0  0
   -6.0210   -3.5636   -3.1943 O   0  0  0  0  0  0  0  0  0  0  0  0
   -5.5256   -1.8285   -5.4882 O   0  0  0  0  0  0  0  0  0  0  0  0
  1  2  1  0  0  0  0
  3  2  1  1  0  0  0
  3  4  1  0  0  0  0
  3  5  1  0  0  0  0
  4  8  1  0  0  0  0
  5  6  1  0  0  0  0
  5 12  1  1  0  0  0
  6  7  1  6  0  0  0
  6  8  1  0  0  0  0
  8 41  1  1  0  0  0
  9 10  1  0  0  0  0
  9 17  1  0  0  0  0
  9 19  1  6  0  0  0
 10 11  1  0  0  0  0
 11 12  1  6  0  0  0
 11 13  1  0  0  0  0
 13 14  1  6  0  0  0
 13 15  1  0  0  0  0
 15 16  1  1  0  0  0
 15 17  1  0  0  0  0
 17 18  1  6  0  0  0
 19 20  1  0  0  0  0
 21 22  1  0  0  0  0
 21 29  1  0  0  0  0
 21 31  1  1  0  0  0
 22 23  1  0  0  0  0
 23 24  1  6  0  0  0
 23 25  1  0  0  0  0
 25 26  1  6  0  0  0
 25 27  1  0  0  0  0
 27 28  1  1  0  0  0
 27 29  1  0  0  0  0
 29 30  1  6  0  0  0
 31 32  1  0  0  0  0
 33 34  1  0  0  0  0
 33 38  1  0  0  0  0
 33 39  1  1  0  0  0
 34 35  1  0  0  0  0
 35 36  1  0  0  0  0
 35 40  1  1  0  0  0
 36 24  1  6  0  0  0
 36 37  1  0  0  0  0
 37 38  1  0  0  0  0
 37 41  1  1  0  0  0
 38 42  1  6  0  0  0
M  CHG  6  14   1  20   1  26   1  32   1  39   1  40   1
M  END
>  <CHROM.1>
-176.12094814,93.94368228,-96.41720215,63.84840260,-92.41747606,-168.66416435
24.25621230,178.16816940,57.96353927,-173.09493123,-169.42749258,82.12829971
136.26824409,-99.36196304,-48.52176433,48.77513622,176.08093832,-42.36845530
-179.33020870,-57.51733127,155.06556348,158.68249151,-5.28748654,-5.21324089
-1.75797541,0.31452137,0.95106231,2.64177115

>  <Name>


>  <RI>
0

>  <Rbt.Current_Directory>
/home/itssahil/PROJECTS/Mol_Feturizer/New_Systems/rnas/1qd3

>  <Rbt.Executable>
rbdock ($Id: //depot/dev/client3/rdock/2013.1/src/exe/rbdock.cxx#4 $)

>  <Rbt.Library>
libRbt.so (2013.1, Build901 2013/11/27)

>  <Rbt.Parameter_File>
/export/apps/rDock/src/rDock_2013.1_src/data/scripts/dock_solv.prm

>  <Rbt.Receptor>
prm/blind_docking_100.prm

>  <SCORE>
-53.2371

>  <SCORE.INTER>
-43.5612

>  <SCORE.INTER.CONST>
1

>  <SCORE.INTER.POLAR>
-6.24572

>  <SCORE.INTER.ROT>
9

>  <SCORE.INTER.SOLV>
30.6381

>  <SCORE.INTER.VDW>
-28.0344

>  <SCORE.INTER.norm>
-1.03717

>  <SCORE.INTRA>
-10.8157

>  <SCORE.INTRA.DIHEDRAL>
-2.11656

>  <SCORE.INTRA.DIHEDRAL.0>
40.6252

>  <SCORE.INTRA.POLAR>
0.0469505

>  <SCORE.INTRA.POLAR.0>
-1.20161

>  <SCORE.INTRA.REPUL>
-0.0567409

>  <SCORE.INTRA.REPUL.0>
0.115675

>  <SCORE.INTRA.SOLV>
-6.53386

>  <SCORE.INTRA.SOLV.lig_0>
-154.895

>  <SCORE.INTRA.VDW>
-6.36639

>  <SCORE.INTRA.VDW.0>
2.2925

>  <SCORE.INTRA.norm>
-0.257516

>  <SCORE.RESTR>
1.1398

>  <SCORE.RESTR.CAVITY>
1.1398

>  <SCORE.RESTR.norm>
0.0271381

>  <SCORE.SYSTEM>
0

>  <SCORE.SYSTEM.CONST>
0

>  <SCORE.SYSTEM.DIHEDRAL>
0

>  <SCORE.SYSTEM.SOLV>
0

>  <SCORE.SYSTEM.norm>
0

>  <SCORE.heavy>
42

>  <SCORE.norm>
-1.26755

>  <RMSD>
16.149

$$$$

 OpenBabel11021811413D
libRbt.so/2013.1/901 2013/11/27
 42 45  0  0  0  0  0  0  0  0999 V2000
   -1.7780   -2.8000    2.2276 O   0  0  0  0  0  0  0  0  0  0  0  0
   -2.6007   -2.7966    1.0696 C   0  0  0  0  0  0  0  0  0  0  0  0
   -3.9152   -3.5193    1.3665 C   0  0  1  0  0  0  0  0  0  0  0  0
   -4.8617   -3.3514    0.2886 O   0  0  0  0  0  0  0  0  0  0  0  0
   -3.7523   -5.0198    1.5431 C   0  0  2  0  0  0  0  0  0  0  0  0
   -5.1815   -5.4825    1.3148 C   0  0  1  0  0  0  0  0  0  0  0  0
   -5.9619   -5.2247    2.4769 O   0  0  0  0  0  0  0  0  0  0  0  0
   -5.6411   -4.5676    0.1613 C   0  0  2  0  0  0  0  0  0  0  0  0
   -1.3627   -8.2012    4.1150 C   0  0  2  0  0  0  0  0  0  0  0  0
   -1.8713   -6.8614    4.0271 O   0  0  0  0  0  0  0  0  0  0  0  0
   -2.8246   -6.7173    2.9588 C   0  0  2  0  0  0  0  0  0  0  0  0
   -3.2712   -5.3489    2.8612 O   0  0  0  0  0  0  0  0  0  0  0  0
   -4.0240   -7.6568    3.1710 C   0  0  2  0  0  0  0  0  0  0  0  0
   -4.9129   -7.1343    4.1924 N   0  3  0  0  0  0  0  0  0  0  0  0
   -3.6081   -9.0942    3.5052 C   0  0  1  0  0  0  0  0  0  0  0  0
   -3.1978   -9.7538    2.3180 O   0  0  0  0  0  0  0  0  0  0  0  0
   -2.4817   -9.1461    4.5339 C   0  0  2  0  0  0  0  0  0  0  0  0
   -2.9780   -8.7796    5.8161 O   0  0  0  0  0  0  0  0  0  0  0  0
   -0.1969   -8.2706    5.0973 C   0  0  0  0  0  0  0  0  0  0  0  0
   -0.5260   -7.5700    6.3244 N   0  3  0  0  0  0  0  0  0  0  0  0
   -6.3333   -8.5178   -1.5227 C   0  0  1  0  0  0  0  0  0  0  0  0
   -6.4247   -7.5852   -2.6201 O   0  0  0  0  0  0  0  0  0  0  0  0
   -7.7571   -7.0572   -2.8136 C   0  0  2  0  0  0  0  0  0  0  0  0
   -8.1845   -6.2382   -1.6973 O   0  0  0  0  0  0  0  0  0  0  0  0
   -8.7542   -8.1912   -3.0810 C   0  0  2  0  0  0  0  0  0  0  0  0
  -10.1097   -7.6735   -3.0631 N   0  3  0  0  0  0  0  0  0  0  0  0
   -8.6305   -9.3073   -2.0497 C   0  0  1  0  0  0  0  0  0  0  0  0
   -9.3943  -10.4290   -2.4654 O   0  0  0  0  0  0  0  0  0  0  0  0
   -7.1933   -9.7394   -1.8025 C   0  0  2  0  0  0  0  0  0  0  0  0
   -7.1303  -10.6398   -0.7061 O   0  0  0  0  0  0  0  0  0  0  0  0
   -4.8924   -8.9932   -1.3600 C   0  0  0  0  0  0  0  0  0  0  0  0
   -3.9765   -7.8672   -1.3589 N   0  3  0  0  0  0  0  0  0  0  0  0
   -6.7007   -2.8302   -3.7670 C   0  0  2  0  0  0  0  0  0  0  0  0
   -8.0995   -2.7578   -3.1872 C   0  0  0  0  0  0  0  0  0  0  0  0
   -8.6098   -4.1477   -2.8547 C   0  0  1  0  0  0  0  0  0  0  0  0
   -7.7468   -4.8587   -1.8113 C   0  0  2  0  0  0  0  0  0  0  0  0
   -6.2520   -4.8109   -2.2039 C   0  0  1  0  0  0  0  0  0  0  0  0
   -5.7418   -3.4840   -2.7812 C   0  0  1  0  0  0  0  0  0  0  0  0
   -6.2393   -1.4914   -4.0809 N   0  3  0  0  0  0  0  0  0  0  0  0
   -9.9827   -4.0493   -2.3991 N   0  3  0  0  0  0  0  0  0  0  0  0
   -5.4015   -5.2356   -1.1106 O   0  0  0  0  0  0  0  0  0  0  0  0
   -4.4766   -3.6836   -3.4027 O   0  0  0  0  0  0  0  0  0  0  0  0
  1  2  1  0  0  0  0
  3  2  1  6  0  0  0
  3  4  1  0  0  0  0
  3  5  1  0  0  0  0
  4  8  1  0  0  0  0
  5  6  1  0  0  0  0
  5 12  1  1  0  0  0
  6  7  1  1  0  0  0
  6  8  1  0  0  0  0
  8 41  1  6  0  0  0
  9 10  1  0  0  0  0
  9 17  1  0  0  0  0
  9 19  1  1  0  0  0
 10 11  1  0  0  0  0
 11 12  1  1  0  0  0
 11 13  1  0  0  0  0
 13 14  1  1  0  0  0
 13 15  1  0  0  0  0
 15 16  1  6  0  0  0
 15 17  1  0  0  0  0
 17 18  1  1  0  0  0
 19 20  1  0  0  0  0
 21 22  1  0  0  0  0
 21 29  1  0  0  0  0
 21 31  1  6  0  0  0
 22 23  1  0  0  0  0
 23 24  1  1  0  0  0
 23 25  1  0  0  0  0
 25 26  1  1  0  0  0
 25 27  1  0  0  0  0
 27 28  1  6  0  0  0
 27 29  1  0  0  0  0
 29 30  1  1  0  0  0
 31 32  1  0  0  0  0
 33 34  1  0  0  0  0
 33 38  1  0  0  0  0
 33 39  1  1  0  0  0
 34 35  1  0  0  0  0
 35 36  1  0  0  0  0
 35 40  1  1  0  0  0
 36 24  1  6  0  0  0
 36 37  1  0  0  0  0
 37 38  1  0  0  0  0
 37 41  1  1  0  0  0
 38 42  1  6  0  0  0
M  CHG  6  14   1  20   1  26   1  32   1  39   1  40   1
M  END
>  <CHROM.1>
175.46068794,170.74805824,-166.92083402,-173.50357189,-88.38068530,46.62317583
155.73802175,-174.01769056,-62.53907022,-175.41582300,44.93412792,48.51535249
85.58940587,75.21439149,60.83022521,63.10923937,53.29780927,-65.60532434
-69.00397362,-54.15363798,-51.48423587,178.62860392,-5.30815554,-6.35734611
0.20283726,-0.48221146,-0.81205712,-0.37480069

>  <Name>


>  <RI>
0

>  <Rbt.Current_Directory>
/home/itssahil/PROJECTS/Mol_Feturizer/New_Systems/rnas/1qd3

>  <Rbt.Executable>
rbdock ($Id: //depot/dev/client3/rdock/2013.1/src/exe/rbdock.cxx#4 $)

>  <Rbt.Library>
libRbt.so (2013.1, Build901 2013/11/27)

>  <Rbt.Parameter_File>
/export/apps/rDock/src/rDock_2013.1_src/data/scripts/dock_solv.prm

>  <Rbt.Receptor>
prm/blind_docking_60.prm

>  <SCORE>
-49.9328

>  <SCORE.INTER>
-25.2663

>  <SCORE.INTER.CONST>
1

>  <SCORE.INTER.POLAR>
-3.28456

>  <SCORE.INTER.ROT>
9

>  <SCORE.INTER.SOLV>
22.1927

>  <SCORE.INTER.VDW>
-22.8932

>  <SCORE.INTER.norm>
-0.601578

>  <SCORE.INTRA>
-28.808

>  <SCORE.INTRA.DIHEDRAL>
-25.0812

>  <SCORE.INTRA.DIHEDRAL.0>
40.6252

>  <SCORE.INTRA.POLAR>
-1.53923

>  <SCORE.INTRA.POLAR.0>
-1.20161

>  <SCORE.INTRA.REPUL>
-0.105267

>  <SCORE.INTRA.REPUL.0>
0.115675

>  <SCORE.INTRA.SOLV>
-3.18995

>  <SCORE.INTRA.SOLV.lig_0>
-154.895

>  <SCORE.INTRA.VDW>
-8.91275

>  <SCORE.INTRA.VDW.0>
2.2925

>  <SCORE.INTRA.norm>
-0.685906

>  <SCORE.RESTR>
4.14152

>  <SCORE.RESTR.CAVITY>
4.14152

>  <SCORE.RESTR.norm>
0.0986076

>  <SCORE.SYSTEM>
0

>  <SCORE.SYSTEM.CONST>
0

>  <SCORE.SYSTEM.DIHEDRAL>
0

>  <SCORE.SYSTEM.SOLV>
0

>  <SCORE.SYSTEM.norm>
0

>  <SCORE.heavy>
42

>  <SCORE.norm>
-1.18888

>  <RMSD>
16.174

$$$$

 OpenBabel11021811413D
libRbt.so/2013.1/901 2013/11/27
 42 45  0  0  0  0  0  0  0  0999 V2000
   -0.4599   -5.0264    2.3860 O   0  0  0  0  0  0  0  0  0  0  0  0
   -1.6113   -5.8461    2.5277 C   0  0  0  0  0  0  0  0  0  0  0  0
   -2.8735   -4.9930    2.3956 C   0  0  1  0  0  0  0  0  0  0  0  0
   -2.9258   -4.3274    1.1150 O   0  0  0  0  0  0  0  0  0  0  0  0
   -4.1588   -5.7975    2.4958 C   0  0  2  0  0  0  0  0  0  0  0  0
   -5.1398   -4.8343    1.8487 C   0  0  1  0  0  0  0  0  0  0  0  0
   -5.4752   -3.8002    2.7673 O   0  0  0  0  0  0  0  0  0  0  0  0
   -4.3091   -4.2535    0.6863 C   0  0  2  0  0  0  0  0  0  0  0  0
   -3.3014   -9.5303    3.5899 C   0  0  2  0  0  0  0  0  0  0  0  0
   -3.3894   -8.1173    3.3509 O   0  0  0  0  0  0  0  0  0  0  0  0
   -4.3934   -7.4946    4.1725 C   0  0  2  0  0  0  0  0  0  0  0  0
   -4.4961   -6.0884    3.8665 O   0  0  0  0  0  0  0  0  0  0  0  0
   -4.0751   -7.6948    5.6641 C   0  0  2  0  0  0  0  0  0  0  0  0
   -3.0094   -6.8049    6.0871 N   0  3  0  0  0  0  0  0  0  0  0  0
   -3.7326   -9.1476    6.0145 C   0  0  1  0  0  0  0  0  0  0  0  0
   -4.9274   -9.9095    6.0839 O   0  0  0  0  0  0  0  0  0  0  0  0
   -2.7823   -9.7785    5.0004 C   0  0  2  0  0  0  0  0  0  0  0  0
   -1.4792   -9.2263    5.1471 O   0  0  0  0  0  0  0  0  0  0  0  0
   -2.3996  -10.1958    2.5542 C   0  0  0  0  0  0  0  0  0  0  0  0
   -2.4151  -11.6370    2.7203 N   0  3  0  0  0  0  0  0  0  0  0  0
   -7.9901   -7.5079   -4.6551 C   0  0  1  0  0  0  0  0  0  0  0  0
   -8.5744   -6.7549   -3.5717 O   0  0  0  0  0  0  0  0  0  0  0  0
   -7.7627   -6.7496   -2.3748 C   0  0  2  0  0  0  0  0  0  0  0  0
   -6.5079   -6.0523   -2.5722 O   0  0  0  0  0  0  0  0  0  0  0  0
   -7.5276   -8.1801   -1.8749 C   0  0  2  0  0  0  0  0  0  0  0  0
   -6.5460   -8.1764   -0.8061 N   0  3  0  0  0  0  0  0  0  0  0  0
   -7.0470   -9.0978   -2.9935 C   0  0  1  0  0  0  0  0  0  0  0  0
   -7.0700  -10.4455   -2.5493 O   0  0  0  0  0  0  0  0  0  0  0  0
   -7.8686   -8.9725   -4.2673 C   0  0  2  0  0  0  0  0  0  0  0  0
   -7.2608   -9.7056   -5.3208 O   0  0  0  0  0  0  0  0  0  0  0  0
   -8.8849   -7.4281   -5.8887 C   0  0  0  0  0  0  0  0  0  0  0  0
   -8.9976   -6.0580   -6.3543 N   0  3  0  0  0  0  0  0  0  0  0  0
   -5.5426   -1.9106   -2.4563 C   0  0  2  0  0  0  0  0  0  0  0  0
   -7.0042   -2.2982   -2.5640 C   0  0  0  0  0  0  0  0  0  0  0  0
   -7.1396   -3.7472   -2.9939 C   0  0  1  0  0  0  0  0  0  0  0  0
   -6.5080   -4.7196   -1.9967 C   0  0  2  0  0  0  0  0  0  0  0  0
   -5.0621   -4.2953   -1.6499 C   0  0  1  0  0  0  0  0  0  0  0  0
   -4.8240   -2.7934   -1.4449 C   0  0  1  0  0  0  0  0  0  0  0  0
   -5.4410   -0.5218   -2.0502 N   0  3  0  0  0  0  0  0  0  0  0  0
   -8.5440   -4.0530   -3.1843 N   0  3  0  0  0  0  0  0  0  0  0  0
   -4.5473   -5.0380   -0.5176 O   0  0  0  0  0  0  0  0  0  0  0  0
   -3.4273   -2.5185   -1.4745 O   0  0  0  0  0  0  0  0  0  0  0  0
  1  2  1  0  0  0  0
  3  2  1  6  0  0  0
  3  4  1  0  0  0  0
  3  5  1  0  0  0  0
  4  8  1  0  0  0  0
  5  6  1  0  0  0  0
  5 12  1  1  0  0  0
  6  7  1  1  0  0  0
  6  8  1  0  0  0  0
  8 41  1  6  0  0  0
  9 10  1  0  0  0  0
  9 17  1  0  0  0  0
  9 19  1  6  0  0  0
 10 11  1  0  0  0  0
 11 12  1  1  0  0  0
 11 13  1  0  0  0  0
 13 14  1  6  0  0  0
 13 15  1  0  0  0  0
 15 16  1  6  0  0  0
 15 17  1  0  0  0  0
 17 18  1  6  0  0  0
 19 20  1  0  0  0  0
 21 22  1  0  0  0  0
 21 29  1  0  0  0  0
 21 31  1  6  0  0  0
 22 23  1  0  0  0  0
 23 24  1  6  0  0  0
 23 25  1  0  0  0  0
 25 26  1  1  0  0  0
 25 27  1  0  0  0  0
 27 28  1  1  0  0  0
 27 29  1  0  0  0  0
 29 30  1  6  0  0  0
 31 32  1  0  0  0  0
 33 34  1  0  0  0  0
 33 38  1  0  0  0  0
 33 39  1  1  0  0  0
 34 35  1  0  0  0  0
 35 36  1  0  0  0  0
 35 40  1  1  0  0  0
 36 24  1  6  0  0  0
 36 37  1  0  0  0  0
 37 38  1  0  0  0  0
 37 41  1  1  0  0  0
 38 42  1  6  0  0  0
M  CHG  6  14   1  20   1  26   1  32   1  39   1  40   1
M  END
>  <CHROM.1>
-179.46565391,59.25661737,-112.53816397,-173.51771013,-121.37727487,-174.54261101
29.60468694,175.08948598,-179.28219119,-177.73398752,165.10106136,62.59971389
102.57811762,-84.14505795,178.53244960,52.62541583,56.00046221,54.08686906
60.06500753,175.76749726,-113.03992464,-47.87045151,-5.15535820,-6.47804463
0.17182038,-0.49015234,-1.01771985,-0.28785014

>  <Name>


>  <RI>
0

>  <Rbt.Current_Directory>
/home/itssahil/PROJECTS/Mol_Feturizer/New_Systems/rnas/1qd3

>  <Rbt.Executable>
rbdock ($Id: //depot/dev/client3/rdock/2013.1/src/exe/rbdock.cxx#4 $)

>  <Rbt.Library>
libRbt.so (2013.1, Build901 2013/11/27)

>  <Rbt.Parameter_File>
/export/apps/rDock/src/rDock_2013.1_src/data/scripts/dock_solv.prm

>  <Rbt.Receptor>
prm/blind_docking_100.prm

>  <SCORE>
-49.6701

>  <SCORE.INTER>
-39.284

>  <SCORE.INTER.CONST>
1

>  <SCORE.INTER.POLAR>
-4.60584

>  <SCORE.INTER.ROT>
9

>  <SCORE.INTER.SOLV>
20.5301

>  <SCORE.INTER.VDW>
-27.2799

>  <SCORE.INTER.norm>
-0.935333

>  <SCORE.INTRA>
-11.5626

>  <SCORE.INTRA.DIHEDRAL>
-4.11783

>  <SCORE.INTRA.DIHEDRAL.0>
40.6252

>  <SCORE.INTRA.POLAR>
-0.0223978

>  <SCORE.INTRA.POLAR.0>
-1.20161

>  <SCORE.INTRA.REPUL>
-0.115675

>  <SCORE.INTRA.REPUL.0>
0.115675

>  <SCORE.INTRA.SOLV>
-8.44271

>  <SCORE.INTRA.SOLV.lig_0>
-154.895

>  <SCORE.INTRA.VDW>
-4.6278

>  <SCORE.INTRA.VDW.0>
2.2925

>  <SCORE.INTRA.norm>
-0.2753

>  <SCORE.RESTR>
1.17645

>  <SCORE.RESTR.CAVITY>
1.17645

>  <SCORE.RESTR.norm>
0.0280108

>  <SCORE.SYSTEM>
0

>  <SCORE.SYSTEM.CONST>
0

>  <SCORE.SYSTEM.DIHEDRAL>
0

>  <SCORE.SYSTEM.SOLV>
0

>  <SCORE.SYSTEM.norm>
0

>  <SCORE.heavy>
42

>  <SCORE.norm>
-1.18262

>  <RMSD>
16.200

$$$$

 OpenBabel11021811413D
libRbt.so/2013.1/901 2013/11/27
 42 45  0  0  0  0  0  0  0  0999 V2000
   -3.6885   -1.6102   -2.4523 O   0  0  0  0  0  0  0  0  0  0  0  0
   -4.4124   -0.9126   -1.4488 C   0  0  0  0  0  0  0  0  0  0  0  0
   -5.2983   -1.8901   -0.6754 C   0  0  1  0  0  0  0  0  0  0  0  0
   -6.1903   -2.6028   -1.5598 O   0  0  0  0  0  0  0  0  0  0  0  0
   -4.5127   -2.9581    0.0674 C   0  0  2  0  0  0  0  0  0  0  0  0
   -5.5969   -4.0010    0.2814 C   0  0  1  0  0  0  0  0  0  0  0  0
   -6.4490   -3.5970    1.3476 O   0  0  0  0  0  0  0  0  0  0  0  0
   -6.3677   -3.9500   -1.0535 C   0  0  2  0  0  0  0  0  0  0  0  0
   -2.0535   -5.4849    1.9929 C   0  0  2  0  0  0  0  0  0  0  0  0
   -2.6441   -4.4107    1.2454 O   0  0  0  0  0  0  0  0  0  0  0  0
   -3.3502   -3.4889    2.0955 C   0  0  2  0  0  0  0  0  0  0  0  0
   -3.9793   -2.4561    1.3086 O   0  0  0  0  0  0  0  0  0  0  0  0
   -2.3976   -2.8662    3.1305 C   0  0  2  0  0  0  0  0  0  0  0  0
   -1.5663   -1.8467    2.5173 N   0  3  0  0  0  0  0  0  0  0  0  0
   -1.5299   -3.9062    3.8490 C   0  0  1  0  0  0  0  0  0  0  0  0
   -2.3054   -4.5640    4.8383 O   0  0  0  0  0  0  0  0  0  0  0  0
   -0.9477   -4.9379    2.8866 C   0  0  2  0  0  0  0  0  0  0  0  0
    0.0724   -4.3413    2.0941 O   0  0  0  0  0  0  0  0  0  0  0  0
   -1.5118   -6.5592    1.0541 C   0  0  0  0  0  0  0  0  0  0  0  0
   -0.9216   -7.6452    1.8138 N   0  3  0  0  0  0  0  0  0  0  0  0
  -10.0958   -5.7931   -6.0262 C   0  0  1  0  0  0  0  0  0  0  0  0
   -8.6875   -6.0104   -6.2534 O   0  0  0  0  0  0  0  0  0  0  0  0
   -7.8395   -5.1595   -5.4484 C   0  0  2  0  0  0  0  0  0  0  0  0
   -7.9569   -5.4560   -4.0349 O   0  0  0  0  0  0  0  0  0  0  0  0
   -8.1345   -3.6811   -5.7295 C   0  0  2  0  0  0  0  0  0  0  0  0
   -7.4341   -2.8454   -4.7720 N   0  3  0  0  0  0  0  0  0  0  0  0
   -9.6274   -3.3796   -5.6600 C   0  0  1  0  0  0  0  0  0  0  0  0
   -9.8745   -2.0721   -6.1535 O   0  0  0  0  0  0  0  0  0  0  0  0
  -10.4778   -4.3784   -6.4299 C   0  0  2  0  0  0  0  0  0  0  0  0
  -11.8563   -4.1547   -6.1724 O   0  0  0  0  0  0  0  0  0  0  0  0
  -10.9171   -6.7558   -6.8791 C   0  0  0  0  0  0  0  0  0  0  0  0
  -12.3328   -6.6195   -6.5894 N   0  3  0  0  0  0  0  0  0  0  0  0
   -6.5599   -8.6734   -1.6273 C   0  0  2  0  0  0  0  0  0  0  0  0
   -6.6872   -8.9044   -3.1202 C   0  0  0  0  0  0  0  0  0  0  0  0
   -7.5569   -7.8331   -3.7516 C   0  0  1  0  0  0  0  0  0  0  0  0
   -6.9786   -6.4276   -3.5805 C   0  0  2  0  0  0  0  0  0  0  0  0
   -6.6129   -6.1557   -2.1030 C   0  0  1  0  0  0  0  0  0  0  0  0
   -5.9450   -7.3096   -1.3435 C   0  0  1  0  0  0  0  0  0  0  0  0
   -5.7300   -9.7124   -1.0480 N   0  3  0  0  0  0  0  0  0  0  0  0
   -7.7393   -8.1416   -5.1565 N   0  3  0  0  0  0  0  0  0  0  0  0
   -5.8242   -4.9484   -1.9641 O   0  0  0  0  0  0  0  0  0  0  0  0
   -5.9794   -7.0493    0.0558 O   0  0  0  0  0  0  0  0  0  0  0  0
  1  2  1  0  0  0  0
  3  2  1  6  0  0  0
  3  4  1  0  0  0  0
  3  5  1  0  0  0  0
  4  8  1  0  0  0  0
  5  6  1  0  0  0  0
  5 12  1  1  0  0  0
  6  7  1  1  0  0  0
  6  8  1  0  0  0  0
  8 41  1  6  0  0  0
  9 10  1  0  0  0  0
  9 17  1  0  0  0  0
  9 19  1  6  0  0  0
 10 11  1  0  0  0  0
 11 12  1  6  0  0  0
 11 13  1  0  0  0  0
 13 14  1  6  0  0  0
 13 15  1  0  0  0  0
 15 16  1  1  0  0  0
 15 17  1  0  0  0  0
 17 18  1  6  0  0  0
 19 20  1  0  0  0  0
 21 22  1  0  0  0  0
 21 29  1  0  0  0  0
 21 31  1  6  0  0  0
 22 23  1  0  0  0  0
 23 24  1  1  0  0  0
 23 25  1  0  0  0  0
 25 26  1  1  0  0  0
 25 27  1  0  0  0  0
 27 28  1  6  0  0  0
 27 29  1  0  0  0  0
 29 30  1  1  0  0  0
 31 32  1  0  0  0  0
 33 34  1  0  0  0  0
 33 38  1  0  0  0  0
 33 39  1  6  0  0  0
 34 35  1  0  0  0  0
 35 36  1  0  0  0  0
 35 40  1  6  0  0  0
 36 24  1  1  0  0  0
 36 37  1  0  0  0  0
 37 38  1  0  0  0  0
 37 41  1  6  0  0  0
 38 42  1  1  0  0  0
M  CHG  6  14   1  20   1  26   1  32   1  39   1  40   1
M  END
>  <CHROM.1>
60.06724785,-56.54332151,173.92067293,-52.87370327,-140.57019821,-179.73799631
37.80724539,-147.66205657,-58.44896777,-59.29788129,-73.59912119,175.74799140
92.02695399,-88.91882256,-177.13555169,-65.44289745,63.44490409,-65.46256265
72.68164082,74.64281203,124.21123142,-66.96411233,-5.86457838,-4.88549159
-1.67090054,0.10356125,-0.81496848,-0.00094787

>  <Name>


>  <RI>
0

>  <Rbt.Current_Directory>
/home/itssahil/PROJECTS/Mol_Feturizer/New_Systems/rnas/1qd3

>  <Rbt.Executable>
rbdock ($Id: //depot/dev/client3/rdock/2013.1/src/exe/rbdock.cxx#4 $)

>  <Rbt.Library>
libRbt.so (2013.1, Build901 2013/11/27)

>  <Rbt.Parameter_File>
/export/apps/rDock/src/rDock_2013.1_src/data/scripts/dock_solv.prm

>  <Rbt.Receptor>
prm/blind_docking_80.prm

>  <SCORE>
-45.6438

>  <SCORE.INTER>
-31.5211

>  <SCORE.INTER.CONST>
1

>  <SCORE.INTER.POLAR>
-4.23701

>  <SCORE.INTER.ROT>
9

>  <SCORE.INTER.SOLV>
24.6362

>  <SCORE.INTER.VDW>
-24.7028

>  <SCORE.INTER.norm>
-0.750503

>  <SCORE.INTRA>
-17.7978

>  <SCORE.INTRA.DIHEDRAL>
-13.869

>  <SCORE.INTRA.DIHEDRAL.0>
40.6252

>  <SCORE.INTRA.POLAR>
-0.399149

>  <SCORE.INTRA.POLAR.0>
-1.20161

>  <SCORE.INTRA.REPUL>
-0.115675

>  <SCORE.INTRA.REPUL.0>
0.115675

>  <SCORE.INTRA.SOLV>
-5.12751

>  <SCORE.INTRA.SOLV.lig_0>
-154.895

>  <SCORE.INTRA.VDW>
-6.3641

>  <SCORE.INTRA.VDW.0>
2.2925

>  <SCORE.INTRA.norm>
-0.423758

>  <SCORE.RESTR>
3.67511

>  <SCORE.RESTR.CAVITY>
3.67511

>  <SCORE.RESTR.norm>
0.0875025

>  <SCORE.SYSTEM>
0

>  <SCORE.SYSTEM.CONST>
0

>  <SCORE.SYSTEM.DIHEDRAL>
0

>  <SCORE.SYSTEM.SOLV>
0

>  <SCORE.SYSTEM.norm>
0

>  <SCORE.heavy>
42

>  <SCORE.norm>
-1.08676

>  <RMSD>
16.795

$$$$

 OpenBabel11021811413D
libRbt.so/2013.1/901 2013/11/27
 42 45  0  0  0  0  0  0  0  0999 V2000
   -6.0336   -7.2727    3.0932 O   0  0  0  0  0  0  0  0  0  0  0  0
   -5.7706   -6.0192    2.4789 C   0  0  0  0  0  0  0  0  0  0  0  0
   -4.9460   -6.2283    1.2082 C   0  0  1  0  0  0  0  0  0  0  0  0
   -5.6290   -7.0941    0.2757 O   0  0  0  0  0  0  0  0  0  0  0  0
   -4.6692   -4.9408    0.4498 C   0  0  2  0  0  0  0  0  0  0  0  0
   -4.3207   -5.4962   -0.9210 C   0  0  1  0  0  0  0  0  0  0  0  0
   -2.9946   -6.0132   -0.9075 O   0  0  0  0  0  0  0  0  0  0  0  0
   -5.3318   -6.6509   -1.0727 C   0  0  2  0  0  0  0  0  0  0  0  0
   -4.3993   -0.6472    0.8586 C   0  0  2  0  0  0  0  0  0  0  0  0
   -4.3930   -2.0000    1.3395 O   0  0  0  0  0  0  0  0  0  0  0  0
   -3.5183   -2.8413    0.5663 C   0  0  2  0  0  0  0  0  0  0  0  0
   -3.5797   -4.2034    1.0381 O   0  0  0  0  0  0  0  0  0  0  0  0
   -2.0720   -2.3203    0.6251 C   0  0  2  0  0  0  0  0  0  0  0  0
   -1.4572   -2.6505    1.8977 N   0  3  0  0  0  0  0  0  0  0  0  0
   -1.9651   -0.8156    0.3513 C   0  0  1  0  0  0  0  0  0  0  0  0
   -2.0787   -0.5815   -1.0434 O   0  0  0  0  0  0  0  0  0  0  0  0
   -3.0329   -0.0155    1.0923 C   0  0  2  0  0  0  0  0  0  0  0  0
   -2.7387    0.0144    2.4841 O   0  0  0  0  0  0  0  0  0  0  0  0
   -5.4964    0.1622    1.5442 C   0  0  0  0  0  0  0  0  0  0  0  0
   -5.6372    1.4610    0.9133 N   0  3  0  0  0  0  0  0  0  0  0  0
   -9.2244   -4.1485   -6.4078 C   0  0  1  0  0  0  0  0  0  0  0  0
   -8.1269   -5.0481   -6.6693 O   0  0  0  0  0  0  0  0  0  0  0  0
   -7.2414   -5.2152   -5.5382 C   0  0  2  0  0  0  0  0  0  0  0  0
   -7.8987   -5.8712   -4.4258 O   0  0  0  0  0  0  0  0  0  0  0  0
   -6.6479   -3.8668   -5.1126 C   0  0  2  0  0  0  0  0  0  0  0  0
   -5.9344   -4.0135   -3.8576 N   0  3  0  0  0  0  0  0  0  0  0  0
   -7.7255   -2.7998   -4.9544 C   0  0  1  0  0  0  0  0  0  0  0  0
   -7.1181   -1.5271   -4.7946 O   0  0  0  0  0  0  0  0  0  0  0  0
   -8.6981   -2.7514   -6.1228 C   0  0  2  0  0  0  0  0  0  0  0  0
   -9.7771   -1.8756   -5.8307 O   0  0  0  0  0  0  0  0  0  0  0  0
  -10.1310   -4.0610   -7.6322 C   0  0  0  0  0  0  0  0  0  0  0  0
  -10.9633   -2.8734   -7.5718 N   0  3  0  0  0  0  0  0  0  0  0  0
   -7.5839   -9.7189   -2.6381 C   0  0  2  0  0  0  0  0  0  0  0  0
   -7.2370   -9.5862   -4.1079 C   0  0  0  0  0  0  0  0  0  0  0  0
   -7.7786   -8.2833   -4.6663 C   0  0  1  0  0  0  0  0  0  0  0  0
   -7.1903   -7.0543   -3.9718 C   0  0  2  0  0  0  0  0  0  0  0  0
   -7.3045   -7.1795   -2.4349 C   0  0  1  0  0  0  0  0  0  0  0  0
   -7.0005   -8.5608   -1.8399 C   0  0  1  0  0  0  0  0  0  0  0  0
   -7.0607  -10.9730   -2.1308 N   0  3  0  0  0  0  0  0  0  0  0  0
   -7.5175   -8.2369   -6.0918 N   0  3  0  0  0  0  0  0  0  0  0  0
   -6.5210   -6.1653   -1.7593 O   0  0  0  0  0  0  0  0  0  0  0  0
   -7.4677   -8.6202   -0.4963 O   0  0  0  0  0  0  0  0  0  0  0  0
  1  2  1  0  0  0  0
  3  2  1  1  0  0  0
  3  4  1  0  0  0  0
  3  5  1  0  0  0  0
  4  8  1  0  0  0  0
  5  6  1  0  0  0  0
  5 12  1  1  0  0  0
  6  7  1  1  0  0  0
  6  8  1  0  0  0  0
  8 41  1  1  0  0  0
  9 10  1  0  0  0  0
  9 17  1  0  0  0  0
  9 19  1  1  0  0  0
 10 11  1  0  0  0  0
 11 12  1  1  0  0  0
 11 13  1  0  0  0  0
 13 14  1  1  0  0  0
 13 15  1  0  0  0  0
 15 16  1  6  0  0  0
 15 17  1  0  0  0  0
 17 18  1  1  0  0  0
 19 20  1  0  0  0  0
 21 22  1  0  0  0  0
 21 29  1  0  0  0  0
 21 31  1  6  0  0  0
 22 23  1  0  0  0  0
 23 24  1  1  0  0  0
 23 25  1  0  0  0  0
 25 26  1  1  0  0  0
 25 27  1  0  0  0  0
 27 28  1  6  0  0  0
 27 29  1  0  0  0  0
 29 30  1  1  0  0  0
 31 32  1  0  0  0  0
 33 34  1  0  0  0  0
 33 38  1  0  0  0  0
 33 39  1  1  0  0  0
 34 35  1  0  0  0  0
 35 36  1  0  0  0  0
 35 40  1  6  0  0  0
 36 24  1  6  0  0  0
 36 37  1  0  0  0  0
 37 38  1  0  0  0  0
 37 41  1  1  0  0  0
 38 42  1  1  0  0  0
M  CHG  6  14   1  20   1  26   1  32   1  39   1  40   1
M  END
>  <CHROM.1>
-48.15318539,58.31216167,-165.04616657,-58.12087791,-86.52642805,-171.17345040
85.04479876,-60.17410699,60.85564472,-168.24782034,150.92629119,-161.35007576
125.16418059,-94.17972554,-148.99187516,62.06270698,-179.88456782,102.90035924
-173.63860659,-168.69657379,-109.32557823,179.85292740,-6.00231076,-4.55337078
-1.95382358,-0.27337206,0.98094470,2.90193502

>  <Name>


>  <RI>
0

>  <Rbt.Current_Directory>
/home/itssahil/PROJECTS/Mol_Feturizer/New_Systems/rnas/1qd3

>  <Rbt.Executable>
rbdock ($Id: //depot/dev/client3/rdock/2013.1/src/exe/rbdock.cxx#4 $)

>  <Rbt.Library>
libRbt.so (2013.1, Build901 2013/11/27)

>  <Rbt.Parameter_File>
/export/apps/rDock/src/rDock_2013.1_src/data/scripts/dock_solv.prm

>  <Rbt.Receptor>
prm/blind_docking_100.prm

>  <SCORE>
-50.0847

>  <SCORE.INTER>
-35.9544

>  <SCORE.INTER.CONST>
1

>  <SCORE.INTER.POLAR>
-4.06957

>  <SCORE.INTER.ROT>
9

>  <SCORE.INTER.SOLV>
33.5307

>  <SCORE.INTER.VDW>
-31.1813

>  <SCORE.INTER.norm>
-0.856057

>  <SCORE.INTRA>
-15.4192

>  <SCORE.INTRA.DIHEDRAL>
-6.57583

>  <SCORE.INTRA.DIHEDRAL.0>
40.6252

>  <SCORE.INTRA.POLAR>
-1.92719

>  <SCORE.INTRA.POLAR.0>
-1.20161

>  <SCORE.INTRA.REPUL>
-0.0579277

>  <SCORE.INTRA.REPUL.0>
0.115675

>  <SCORE.INTRA.SOLV>
-6.20984

>  <SCORE.INTRA.SOLV.lig_0>
-154.895

>  <SCORE.INTRA.VDW>
-2.18423

>  <SCORE.INTRA.VDW.0>
2.2925

>  <SCORE.INTRA.norm>
-0.367123

>  <SCORE.RESTR>
1.2888

>  <SCORE.RESTR.CAVITY>
1.2888

>  <SCORE.RESTR.norm>
0.0306857

>  <SCORE.SYSTEM>
0

>  <SCORE.SYSTEM.CONST>
0

>  <SCORE.SYSTEM.DIHEDRAL>
0

>  <SCORE.SYSTEM.SOLV>
0

>  <SCORE.SYSTEM.norm>
0

>  <SCORE.heavy>
42

>  <SCORE.norm>
-1.19249

>  <RMSD>
16.884

$$$$
