ligand
  PyMOL2.2          3D                             0

 27 29  0  0  0  0  0  0  0  0999 V2000
  -13.1950   -4.7640   28.8500 N   0  0  0  0  0  0  0  0  0  0  0  0
  -13.4000   -5.5840   27.6590 C   0  0  0  0  0  0  0  0  0  0  0  0
  -14.8000   -5.4040   27.0780 C   0  0  0  0  0  0  0  0  0  0  0  0
  -15.2870   -6.2440   26.3180 O   0  0  0  0  0  0  0  0  0  0  0  0
  -13.1040   -7.0520   27.9510 C   0  0  0  0  0  0  0  0  0  0  0  0
  -12.7790   -7.3220   29.4120 C   0  0  0  0  0  0  0  0  0  0  0  0
  -13.0280   -9.0440   29.9110 S   0  0  0  0  0  0  0  0  0  0  0  0
  -13.9260   -9.6760   28.4720 C   0  0  0  0  0  0  0  0  0  0  0  0
  -14.3710   -8.8630   31.1160 C   0  0  0  0  0  0  0  0  0  0  0  0
  -13.8020   -8.3550   32.4330 C   0  0  0  0  0  0  0  0  0  0  0  0
  -13.2090   -7.0990   32.2040 O   0  0  0  0  0  0  0  0  0  0  0  0
  -14.8150   -8.1030   33.5340 C   0  0  0  0  0  0  0  0  0  0  0  0
  -14.9020   -9.2110   34.4020 O   0  0  0  0  0  0  0  0  0  0  0  0
  -14.2330   -6.9120   34.2680 C   0  0  0  0  0  0  0  0  0  0  0  0
  -13.6920   -7.3610   35.4860 O   0  0  0  0  0  0  0  0  0  0  0  0
  -13.1190   -6.3550   33.3920 C   0  0  0  0  0  0  0  0  0  0  0  0
  -15.4700   -4.4090   27.3550 O   0  0  0  0  0  0  0  0  0  0  0  0
  -16.3070   -2.9370   30.9570 N   0  0  0  0  0  0  0  0  0  0  0  0
  -16.4040   -4.3140   30.9950 C   0  0  0  0  0  0  0  0  0  0  0  0
  -15.4720   -5.0660   31.6850 N   0  0  0  0  0  0  0  0  0  0  0  0
  -14.4470   -4.4600   32.3300 C   0  0  0  0  0  0  0  0  0  0  0  0
  -14.3380   -3.0750   32.3100 C   0  0  0  0  0  0  0  0  0  0  0  0
  -15.2700   -2.3130   31.6160 C   0  0  0  0  0  0  0  0  0  0  0  0
  -15.1600   -0.9870   31.5890 N   0  0  0  0  0  0  0  0  0  0  0  0
  -13.2460   -2.7350   33.0280 N   0  0  0  0  0  0  0  0  0  0  0  0
  -12.6770   -3.8640   33.5120 C   0  0  0  0  0  0  0  0  0  0  0  0
  -13.4080   -4.9430   33.0900 N   0  0  0  0  0  0  0  0  0  0  0  0
  1  2  1  0  0  0  0
  2  3  1  0  0  0  0
  2  5  1  0  0  0  0
  3  4  4  0  0  0  0
  3 17  4  0  0  0  0
  5  6  1  0  0  0  0
  6  7  1  0  0  0  0
  7  8  1  0  0  0  0
  7  9  1  0  0  0  0
  9 10  1  0  0  0  0
 10 11  1  0  0  0  0
 10 12  1  0  0  0  0
 11 16  1  0  0  0  0
 12 13  1  0  0  0  0
 12 14  1  0  0  0  0
 14 15  1  0  0  0  0
 14 16  1  0  0  0  0
 16 27  1  0  0  0  0
 18 19  4  0  0  0  0
 19 20  4  0  0  0  0
 20 21  4  0  0  0  0
 21 22  4  0  0  0  0
 22 23  4  0  0  0  0
 18 23  4  0  0  0  0
 23 24  1  0  0  0  0
 22 25  4  0  0  0  0
 25 26  4  0  0  0  0
 21 27  4  0  0  0  0
 26 27  4  0  0  0  0
M  END
$$$$
