ligand
 OpenBabel11021811483D
libRbt.so/2013.1/901 2013/11/27
 27 29  0  0  0  0  0  0  0  0999 V2000
  -13.2458   -4.3916   29.0519 N   0  0  0  0  0  0  0  0  0  0  0  0
  -13.2858   -5.4341   28.0299 C   0  0  2  0  0  0  0  0  0  0  0  0
  -14.3629   -5.1637   26.9827 C   0  0  0  0  0  0  0  0  0  0  0  0
  -14.4923   -5.8951   25.9986 O   0  0  0  0  0  0  0  0  0  0  0  0
  -13.4597   -6.8112   28.6633 C   0  0  0  0  0  0  0  0  0  0  0  0
  -12.1890   -7.3426   29.3083 C   0  0  0  0  0  0  0  0  0  0  0  0
  -12.4035   -8.9322   30.1471 S   0  0  2  0  0  0  0  0  0  0  0  0
  -13.2448   -9.8758   28.8516 C   0  0  0  0  0  0  0  0  0  0  0  0
  -13.7828   -8.5509   31.2609 C   0  0  0  0  0  0  0  0  0  0  0  0
  -13.2370   -7.9888   32.5657 C   0  0  1  0  0  0  0  0  0  0  0  0
  -12.8392   -6.6571   32.3421 O   0  0  0  0  0  0  0  0  0  0  0  0
  -14.2282   -7.9032   33.7111 C   0  0  1  0  0  0  0  0  0  0  0  0
  -14.1198   -9.0266   34.5565 O   0  0  0  0  0  0  0  0  0  0  0  0
  -13.7915   -6.6536   34.4485 C   0  0  1  0  0  0  0  0  0  0  0  0
  -13.1411   -7.0408   35.6338 O   0  0  0  0  0  0  0  0  0  0  0  0
  -12.8061   -5.9280   33.5422 C   0  0  2  0  0  0  0  0  0  0  0  0
  -15.1228   -4.2021   27.0996 O   0  0  0  0  0  0  0  0  0  0  0  0
  -16.7930   -2.9613   31.7876 N   0  0  0  0  0  0  0  0  0  0  0  0
  -16.7279   -4.3382   31.8704 C   0  0  0  0  0  0  0  0  0  0  0  0
  -15.5941   -4.9607   32.3575 N   0  0  0  0  0  0  0  0  0  0  0  0
  -14.5288   -4.2259   32.7563 C   0  0  0  0  0  0  0  0  0  0  0  0
  -14.5794   -2.8390   32.6884 C   0  0  0  0  0  0  0  0  0  0  0  0
  -15.7151   -2.2068   32.1971 C   0  0  0  0  0  0  0  0  0  0  0  0
  -15.7597   -0.8787   32.1232 N   0  0  0  0  0  0  0  0  0  0  0  0
  -13.4043   -2.3586   33.1488 N   0  0  0  0  0  0  0  0  0  0  0  0
  -12.6252   -3.4018   33.5195 C   0  0  0  0  0  0  0  0  0  0  0  0
  -13.3059   -4.5671   33.2839 N   0  0  0  0  0  0  0  0  0  0  0  0
  2  1  1  1  0  0  0
  2  3  1  0  0  0  0
  2  5  1  0  0  0  0
  3  4  1  0  0  0  0
  3 17  1  0  0  0  0
  5  6  1  0  0  0  0
  7  6  1  6  0  0  0
  7  8  1  0  0  0  0
  7  9  1  0  0  0  0
 10  9  1  6  0  0  0
 10 11  1  0  0  0  0
 10 12  1  0  0  0  0
 11 16  1  0  0  0  0
 12 13  1  1  0  0  0
 12 14  1  0  0  0  0
 14 15  1  1  0  0  0
 14 16  1  0  0  0  0
 16 27  1  6  0  0  0
 18 19  2  0  0  0  0
 18 23  1  0  0  0  0
 19 20  1  0  0  0  0
 20 21  2  0  0  0  0
 21 22  1  0  0  0  0
 21 27  1  0  0  0  0
 22 23  2  0  0  0  0
 22 25  1  0  0  0  0
 23 24  1  0  0  0  0
 25 26  2  0  0  0  0
 26 27  1  0  0  0  0
M  END
>  <CHROM.1>
175.68996269,-75.71312337,176.65202741,49.59621600,-87.98623814,75.92343397
57.03890062,-13.93429961,-5.80990029,31.31097054,1.00920913,1.22421883,-1.63767445

>  <Name>
ligand

>  <RI>
0

>  <Rbt.Current_Directory>
/home/itssahil/PROJECTS/Mol_Feturizer/New_Systems/rnas/3GX6

>  <Rbt.Executable>
rbdock ($Id: //depot/dev/client3/rdock/2013.1/src/exe/rbdock.cxx#4 $)

>  <Rbt.Library>
libRbt.so (2013.1, Build901 2013/11/27)

>  <Rbt.Parameter_File>
/export/apps/rDock/src/rDock_2013.1_src/data/scripts/dock_solv.prm

>  <Rbt.Receptor>
prm/pocket_docking_2.prm

>  <SCORE>
-25.3871

>  <SCORE.INTER>
-16.1527

>  <SCORE.INTER.CONST>
1

>  <SCORE.INTER.POLAR>
0

>  <SCORE.INTER.ROT>
7

>  <SCORE.INTER.SOLV>
19.4615

>  <SCORE.INTER.VDW>
-25.5223

>  <SCORE.INTER.norm>
-0.598249

>  <SCORE.INTRA>
-9.25222

>  <SCORE.INTRA.DIHEDRAL>
-8.90488

>  <SCORE.INTRA.DIHEDRAL.0>
15.0182

>  <SCORE.INTRA.POLAR>
0

>  <SCORE.INTRA.POLAR.0>
0

>  <SCORE.INTRA.REPUL>
0

>  <SCORE.INTRA.REPUL.0>
0

>  <SCORE.INTRA.SOLV>
-0.898654

>  <SCORE.INTRA.SOLV.lig_0>
-47.9129

>  <SCORE.INTRA.VDW>
-4.35045

>  <SCORE.INTRA.VDW.0>
2.00851

>  <SCORE.INTRA.norm>
-0.342675

>  <SCORE.RESTR>
0.0178512

>  <SCORE.RESTR.CAVITY>
0.0178512

>  <SCORE.RESTR.norm>
0.000661157

>  <SCORE.SYSTEM>
0

>  <SCORE.SYSTEM.CONST>
0

>  <SCORE.SYSTEM.DIHEDRAL>
0

>  <SCORE.SYSTEM.SOLV>
0

>  <SCORE.SYSTEM.norm>
0

>  <SCORE.heavy>
27

>  <SCORE.norm>
-0.940263

>  <RMSD>
0.662

$$$$
ligand
 OpenBabel11021811483D
libRbt.so/2013.1/901 2013/11/27
 27 29  0  0  0  0  0  0  0  0999 V2000
  -13.3574   -4.2160   28.9737 N   0  0  0  0  0  0  0  0  0  0  0  0
  -13.5159   -5.4403   28.1934 C   0  0  2  0  0  0  0  0  0  0  0  0
  -14.6955   -5.3517   27.2286 C   0  0  0  0  0  0  0  0  0  0  0  0
  -15.6433   -6.1363   27.3078 O   0  0  0  0  0  0  0  0  0  0  0  0
  -13.6353   -6.6566   29.1069 C   0  0  0  0  0  0  0  0  0  0  0  0
  -12.2935   -7.2816   29.4562 C   0  0  0  0  0  0  0  0  0  0  0  0
  -12.4222   -8.9405   30.1688 S   0  0  2  0  0  0  0  0  0  0  0  0
  -13.2367   -9.8183   28.8113 C   0  0  0  0  0  0  0  0  0  0  0  0
  -13.8021   -8.7137   31.3233 C   0  0  0  0  0  0  0  0  0  0  0  0
  -13.2689   -8.1952   32.6511 C   0  0  1  0  0  0  0  0  0  0  0  0
  -12.8064   -6.8796   32.4591 O   0  0  0  0  0  0  0  0  0  0  0  0
  -14.2872   -8.0816   33.7700 C   0  0  1  0  0  0  0  0  0  0  0  0
  -14.2524   -9.2207   34.6006 O   0  0  0  0  0  0  0  0  0  0  0  0
  -13.8165   -6.8634   34.5383 C   0  0  1  0  0  0  0  0  0  0  0  0
  -13.2175   -7.2961   35.7349 O   0  0  0  0  0  0  0  0  0  0  0  0
  -12.7749   -6.1698   33.6708 C   0  0  2  0  0  0  0  0  0  0  0  0
  -14.7196   -4.4940   26.3458 O   0  0  0  0  0  0  0  0  0  0  0  0
  -16.5877   -3.0020   31.8812 N   0  0  0  0  0  0  0  0  0  0  0  0
  -16.5878   -4.3813   31.9487 C   0  0  0  0  0  0  0  0  0  0  0  0
  -15.4931   -5.0611   32.4484 N   0  0  0  0  0  0  0  0  0  0  0  0
  -14.4024   -4.3810   32.8747 C   0  0  0  0  0  0  0  0  0  0  0  0
  -14.3876   -2.9926   32.8225 C   0  0  0  0  0  0  0  0  0  0  0  0
  -15.4837   -2.3029   32.3187 C   0  0  0  0  0  0  0  0  0  0  0  0
  -15.4655   -0.9735   32.2599 N   0  0  0  0  0  0  0  0  0  0  0  0
  -13.2002   -2.5724   33.3093 N   0  0  0  0  0  0  0  0  0  0  0  0
  -12.4770   -3.6546   33.6814 C   0  0  0  0  0  0  0  0  0  0  0  0
  -13.2064   -4.7844   33.4199 N   0  0  0  0  0  0  0  0  0  0  0  0
  2  1  1  1  0  0  0
  2  3  1  0  0  0  0
  2  5  1  0  0  0  0
  3  4  1  0  0  0  0
  3 17  1  0  0  0  0
  5  6  1  0  0  0  0
  7  6  1  6  0  0  0
  7  8  1  0  0  0  0
  7  9  1  0  0  0  0
 10  9  1  6  0  0  0
 10 11  1  0  0  0  0
 10 12  1  0  0  0  0
 11 16  1  0  0  0  0
 12 13  1  1  0  0  0
 12 14  1  0  0  0  0
 14 15  1  1  0  0  0
 14 16  1  0  0  0  0
 16 27  1  6  0  0  0
 18 19  2  0  0  0  0
 18 23  1  0  0  0  0
 19 20  1  0  0  0  0
 20 21  2  0  0  0  0
 21 22  1  0  0  0  0
 21 27  1  0  0  0  0
 22 23  2  0  0  0  0
 22 25  1  0  0  0  0
 23 24  1  0  0  0  0
 25 26  2  0  0  0  0
 26 27  1  0  0  0  0
M  END
>  <CHROM.1>
-119.39699508,-88.97304897,-165.12869419,60.47857114,-86.48838859,68.77740100
57.64273467,-13.95065351,-5.92892832,31.43159480,1.33659264,1.25701299,-1.76852720

>  <Name>
ligand

>  <RI>
0

>  <Rbt.Current_Directory>
/home/itssahil/PROJECTS/Mol_Feturizer/New_Systems/rnas/3GX6

>  <Rbt.Executable>
rbdock ($Id: //depot/dev/client3/rdock/2013.1/src/exe/rbdock.cxx#4 $)

>  <Rbt.Library>
libRbt.so (2013.1, Build901 2013/11/27)

>  <Rbt.Parameter_File>
/export/apps/rDock/src/rDock_2013.1_src/data/scripts/dock_solv.prm

>  <Rbt.Receptor>
prm/pocket_docking_2.prm

>  <SCORE>
-23.3511

>  <SCORE.INTER>
-15.1603

>  <SCORE.INTER.CONST>
1

>  <SCORE.INTER.POLAR>
0

>  <SCORE.INTER.ROT>
7

>  <SCORE.INTER.SOLV>
20.112

>  <SCORE.INTER.VDW>
-25.0776

>  <SCORE.INTER.norm>
-0.561493

>  <SCORE.INTRA>
-8.19075

>  <SCORE.INTRA.DIHEDRAL>
-6.88335

>  <SCORE.INTRA.DIHEDRAL.0>
15.0182

>  <SCORE.INTRA.POLAR>
0

>  <SCORE.INTRA.POLAR.0>
0

>  <SCORE.INTRA.REPUL>
0

>  <SCORE.INTRA.REPUL.0>
0

>  <SCORE.INTRA.SOLV>
-1.24655

>  <SCORE.INTRA.SOLV.lig_0>
-47.9129

>  <SCORE.INTRA.VDW>
-4.1258

>  <SCORE.INTRA.VDW.0>
2.00851

>  <SCORE.INTRA.norm>
-0.303361

>  <SCORE.RESTR>
0

>  <SCORE.RESTR.CAVITY>
0

>  <SCORE.RESTR.norm>
0

>  <SCORE.SYSTEM>
0

>  <SCORE.SYSTEM.CONST>
0

>  <SCORE.SYSTEM.DIHEDRAL>
0

>  <SCORE.SYSTEM.SOLV>
0

>  <SCORE.SYSTEM.norm>
0

>  <SCORE.heavy>
27

>  <SCORE.norm>
-0.864854

>  <RMSD>
0.709

$$$$
ligand
 OpenBabel11021811483D
libRbt.so/2013.1/901 2013/11/27
 27 29  0  0  0  0  0  0  0  0999 V2000
  -13.5696   -4.1194   29.0889 N   0  0  0  0  0  0  0  0  0  0  0  0
  -13.1672   -4.9422   27.9514 C   0  0  2  0  0  0  0  0  0  0  0  0
  -14.3170   -5.1600   26.9713 C   0  0  0  0  0  0  0  0  0  0  0  0
  -14.4563   -6.2337   26.3814 O   0  0  0  0  0  0  0  0  0  0  0  0
  -12.5780   -6.2692   28.4205 C   0  0  0  0  0  0  0  0  0  0  0  0
  -13.4682   -7.0082   29.4076 C   0  0  0  0  0  0  0  0  0  0  0  0
  -12.6812   -8.4523   30.1636 S   0  0  2  0  0  0  0  0  0  0  0  0
  -13.1813   -9.7454   28.9999 C   0  0  0  0  0  0  0  0  0  0  0  0
  -13.8045   -8.7700   31.5513 C   0  0  0  0  0  0  0  0  0  0  0  0
  -13.2117   -8.1838   32.8246 C   0  0  1  0  0  0  0  0  0  0  0  0
  -12.8130   -6.8601   32.5588 O   0  0  0  0  0  0  0  0  0  0  0  0
  -14.1636   -8.0661   34.0002 C   0  0  1  0  0  0  0  0  0  0  0  0
  -14.0342   -9.1717   34.8660 O   0  0  0  0  0  0  0  0  0  0  0  0
  -13.6943   -6.8040   34.6951 C   0  0  1  0  0  0  0  0  0  0  0  0
  -13.0072   -7.1702   35.8663 O   0  0  0  0  0  0  0  0  0  0  0  0
  -12.7351   -6.1054   33.7408 C   0  0  2  0  0  0  0  0  0  0  0  0
  -15.1276   -4.2610   26.7469 O   0  0  0  0  0  0  0  0  0  0  0  0
  -16.6719   -3.1586   31.8452 N   0  0  0  0  0  0  0  0  0  0  0  0
  -16.5999   -4.5354   31.9240 C   0  0  0  0  0  0  0  0  0  0  0  0
  -15.4815   -5.1522   32.4523 N   0  0  0  0  0  0  0  0  0  0  0  0
  -14.4381   -4.4118   32.8959 C   0  0  0  0  0  0  0  0  0  0  0  0
  -14.4961   -3.0250   32.8326 C   0  0  0  0  0  0  0  0  0  0  0  0
  -15.6163   -2.3985   32.3002 C   0  0  0  0  0  0  0  0  0  0  0  0
  -15.6678   -1.0704   32.2308 N   0  0  0  0  0  0  0  0  0  0  0  0
  -13.3436   -2.5385   33.3410 N   0  0  0  0  0  0  0  0  0  0  0  0
  -12.5720   -3.5779   33.7371 C   0  0  0  0  0  0  0  0  0  0  0  0
  -13.2343   -4.7469   33.4695 N   0  0  0  0  0  0  0  0  0  0  0  0
  2  1  1  1  0  0  0
  2  3  1  0  0  0  0
  2  5  1  0  0  0  0
  3  4  1  0  0  0  0
  3 17  1  0  0  0  0
  5  6  1  0  0  0  0
  7  6  1  6  0  0  0
  7  8  1  0  0  0  0
  7  9  1  0  0  0  0
 10  9  1  6  0  0  0
 10 11  1  0  0  0  0
 10 12  1  0  0  0  0
 11 16  1  0  0  0  0
 12 13  1  1  0  0  0
 12 14  1  0  0  0  0
 14 15  1  1  0  0  0
 14 16  1  0  0  0  0
 16 27  1  6  0  0  0
 18 19  2  0  0  0  0
 18 23  1  0  0  0  0
 19 20  1  0  0  0  0
 20 21  2  0  0  0  0
 21 22  1  0  0  0  0
 21 27  1  0  0  0  0
 22 23  2  0  0  0  0
 22 25  1  0  0  0  0
 23 24  1  0  0  0  0
 25 26  2  0  0  0  0
 26 27  1  0  0  0  0
M  END
>  <CHROM.1>
-143.60444163,51.46197746,-171.23686064,-91.16446939,-99.22353615,48.87949528
52.53762619,-13.92560354,-5.83685468,31.43027070,1.68660469,1.25618451,-1.63775594

>  <Name>
ligand

>  <RI>
0

>  <Rbt.Current_Directory>
/home/itssahil/PROJECTS/Mol_Feturizer/New_Systems/rnas/3GX6

>  <Rbt.Executable>
rbdock ($Id: //depot/dev/client3/rdock/2013.1/src/exe/rbdock.cxx#4 $)

>  <Rbt.Library>
libRbt.so (2013.1, Build901 2013/11/27)

>  <Rbt.Parameter_File>
/export/apps/rDock/src/rDock_2013.1_src/data/scripts/dock_solv.prm

>  <Rbt.Receptor>
prm/pocket_docking_2.prm

>  <SCORE>
-23.9747

>  <SCORE.INTER>
-15.1236

>  <SCORE.INTER.CONST>
1

>  <SCORE.INTER.POLAR>
0

>  <SCORE.INTER.ROT>
7

>  <SCORE.INTER.SOLV>
19.7555

>  <SCORE.INTER.VDW>
-24.9343

>  <SCORE.INTER.norm>
-0.560134

>  <SCORE.INTRA>
-8.85113

>  <SCORE.INTRA.DIHEDRAL>
-7.15885

>  <SCORE.INTRA.DIHEDRAL.0>
15.0182

>  <SCORE.INTRA.POLAR>
0

>  <SCORE.INTRA.POLAR.0>
0

>  <SCORE.INTRA.REPUL>
0

>  <SCORE.INTRA.REPUL.0>
0

>  <SCORE.INTRA.SOLV>
-0.880188

>  <SCORE.INTRA.SOLV.lig_0>
-47.9129

>  <SCORE.INTRA.VDW>
-4.83161

>  <SCORE.INTRA.VDW.0>
2.00851

>  <SCORE.INTRA.norm>
-0.327819

>  <SCORE.RESTR>
0

>  <SCORE.RESTR.CAVITY>
0

>  <SCORE.RESTR.norm>
0

>  <SCORE.SYSTEM>
0

>  <SCORE.SYSTEM.CONST>
0

>  <SCORE.SYSTEM.DIHEDRAL>
0

>  <SCORE.SYSTEM.SOLV>
0

>  <SCORE.SYSTEM.norm>
0

>  <SCORE.heavy>
27

>  <SCORE.norm>
-0.887954

>  <RMSD>
0.748

$$$$
ligand
 OpenBabel11021811483D
libRbt.so/2013.1/901 2013/11/27
 27 29  0  0  0  0  0  0  0  0999 V2000
  -13.2344   -4.5126   29.1964 N   0  0  0  0  0  0  0  0  0  0  0  0
  -13.1079   -5.4806   28.1102 C   0  0  2  0  0  0  0  0  0  0  0  0
  -14.1155   -5.2186   26.9939 C   0  0  0  0  0  0  0  0  0  0  0  0
  -14.3151   -6.0521   26.1076 O   0  0  0  0  0  0  0  0  0  0  0  0
  -13.2208   -6.9081   28.6370 C   0  0  0  0  0  0  0  0  0  0  0  0
  -12.0165   -7.3447   29.4567 C   0  0  0  0  0  0  0  0  0  0  0  0
  -12.1934   -8.9854   30.2005 S   0  0  2  0  0  0  0  0  0  0  0  0
  -12.9471   -9.8895   28.8253 C   0  0  0  0  0  0  0  0  0  0  0  0
  -13.6265   -8.7219   31.2799 C   0  0  0  0  0  0  0  0  0  0  0  0
  -13.1592   -8.1369   32.6049 C   0  0  1  0  0  0  0  0  0  0  0  0
  -12.6814   -6.8338   32.3697 O   0  0  0  0  0  0  0  0  0  0  0  0
  -14.2328   -7.9638   33.6630 C   0  0  1  0  0  0  0  0  0  0  0  0
  -14.2457   -9.0588   34.5516 O   0  0  0  0  0  0  0  0  0  0  0  0
  -13.7961   -6.7087   34.3909 C   0  0  1  0  0  0  0  0  0  0  0  0
  -13.2610   -7.0805   35.6372 O   0  0  0  0  0  0  0  0  0  0  0  0
  -12.7084   -6.0627   33.5434 C   0  0  2  0  0  0  0  0  0  0  0  0
  -14.7468   -4.1624   26.9552 O   0  0  0  0  0  0  0  0  0  0  0  0
  -16.6919   -2.8410   32.3077 N   0  0  0  0  0  0  0  0  0  0  0  0
  -16.7439   -4.1931   32.5834 C   0  0  0  0  0  0  0  0  0  0  0  0
  -15.5923   -4.8933   32.8896 N   0  0  0  0  0  0  0  0  0  0  0  0
  -14.3951   -4.2609   32.9183 C   0  0  0  0  0  0  0  0  0  0  0  0
  -14.3245   -2.8991   32.6520 C   0  0  0  0  0  0  0  0  0  0  0  0
  -15.4780   -2.1895   32.3409 C   0  0  0  0  0  0  0  0  0  0  0  0
  -15.4088   -0.8871   32.0765 N   0  0  0  0  0  0  0  0  0  0  0  0
  -13.0314   -2.5236   32.7542 N   0  0  0  0  0  0  0  0  0  0  0  0
  -12.2916   -3.6054   33.0935 C   0  0  0  0  0  0  0  0  0  0  0  0
  -13.1200   -4.6912   33.2001 N   0  0  0  0  0  0  0  0  0  0  0  0
  2  1  1  1  0  0  0
  2  3  1  0  0  0  0
  2  5  1  0  0  0  0
  3  4  1  0  0  0  0
  3 17  1  0  0  0  0
  5  6  1  0  0  0  0
  7  6  1  6  0  0  0
  7  8  1  0  0  0  0
  7  9  1  0  0  0  0
 10  9  1  6  0  0  0
 10 11  1  0  0  0  0
 10 12  1  0  0  0  0
 11 16  1  0  0  0  0
 12 13  1  1  0  0  0
 12 14  1  0  0  0  0
 14 15  1  1  0  0  0
 14 16  1  0  0  0  0
 16 27  1  6  0  0  0
 18 19  2  0  0  0  0
 18 23  1  0  0  0  0
 19 20  1  0  0  0  0
 20 21  2  0  0  0  0
 21 22  1  0  0  0  0
 21 27  1  0  0  0  0
 22 23  2  0  0  0  0
 22 25  1  0  0  0  0
 23 24  1  0  0  0  0
 25 26  2  0  0  0  0
 26 27  1  0  0  0  0
M  END
>  <CHROM.1>
-167.64239505,-70.70716706,175.30368529,41.93516559,-84.81536618,67.86201473
76.71561955,-13.78123940,-5.86848996,31.36110223,0.75704320,1.23680095,-1.45984970

>  <Name>
ligand

>  <RI>
0

>  <Rbt.Current_Directory>
/home/itssahil/PROJECTS/Mol_Feturizer/New_Systems/rnas/3GX6

>  <Rbt.Executable>
rbdock ($Id: //depot/dev/client3/rdock/2013.1/src/exe/rbdock.cxx#4 $)

>  <Rbt.Library>
libRbt.so (2013.1, Build901 2013/11/27)

>  <Rbt.Parameter_File>
/export/apps/rDock/src/rDock_2013.1_src/data/scripts/dock_solv.prm

>  <Rbt.Receptor>
prm/pocket_docking_3.prm

>  <SCORE>
-26.428

>  <SCORE.INTER>
-17.7534

>  <SCORE.INTER.CONST>
1

>  <SCORE.INTER.POLAR>
0

>  <SCORE.INTER.ROT>
7

>  <SCORE.INTER.SOLV>
19.1649

>  <SCORE.INTER.VDW>
-26.4905

>  <SCORE.INTER.norm>
-0.657532

>  <SCORE.INTRA>
-8.67463

>  <SCORE.INTRA.DIHEDRAL>
-10.0352

>  <SCORE.INTRA.DIHEDRAL.0>
15.0182

>  <SCORE.INTRA.POLAR>
0

>  <SCORE.INTRA.POLAR.0>
0

>  <SCORE.INTRA.REPUL>
0

>  <SCORE.INTRA.REPUL.0>
0

>  <SCORE.INTRA.SOLV>
-0.783661

>  <SCORE.INTRA.SOLV.lig_0>
-47.9129

>  <SCORE.INTRA.VDW>
-3.2652

>  <SCORE.INTRA.VDW.0>
2.00851

>  <SCORE.INTRA.norm>
-0.321283

>  <SCORE.RESTR>
0

>  <SCORE.RESTR.CAVITY>
0

>  <SCORE.RESTR.norm>
0

>  <SCORE.SYSTEM>
0

>  <SCORE.SYSTEM.CONST>
0

>  <SCORE.SYSTEM.DIHEDRAL>
0

>  <SCORE.SYSTEM.SOLV>
0

>  <SCORE.SYSTEM.norm>
0

>  <SCORE.heavy>
27

>  <SCORE.norm>
-0.978814

>  <RMSD>
0.797

$$$$
ligand
 OpenBabel11021811483D
libRbt.so/2013.1/901 2013/11/27
 27 29  0  0  0  0  0  0  0  0999 V2000
  -13.2383   -4.2474   29.6148 N   0  0  0  0  0  0  0  0  0  0  0  0
  -13.4775   -5.1890   28.5243 C   0  0  2  0  0  0  0  0  0  0  0  0
  -14.7248   -4.8266   27.7225 C   0  0  0  0  0  0  0  0  0  0  0  0
  -15.6891   -4.2763   28.2589 O   0  0  0  0  0  0  0  0  0  0  0  0
  -13.5494   -6.6206   29.0470 C   0  0  0  0  0  0  0  0  0  0  0  0
  -12.2201   -7.1361   29.5765 C   0  0  0  0  0  0  0  0  0  0  0  0
  -12.2862   -8.8389   30.1868 S   0  0  2  0  0  0  0  0  0  0  0  0
  -13.1006   -9.6560   28.7920 C   0  0  0  0  0  0  0  0  0  0  0  0
  -13.6495   -8.7258   31.3772 C   0  0  0  0  0  0  0  0  0  0  0  0
  -13.1345   -8.1283   32.6788 C   0  0  1  0  0  0  0  0  0  0  0  0
  -12.7194   -6.8072   32.4259 O   0  0  0  0  0  0  0  0  0  0  0  0
  -14.1556   -8.0001   33.7935 C   0  0  1  0  0  0  0  0  0  0  0  0
  -14.0797   -9.0981   34.6752 O   0  0  0  0  0  0  0  0  0  0  0  0
  -13.7284   -6.7320   34.5044 C   0  0  1  0  0  0  0  0  0  0  0  0
  -13.1137   -7.0879   35.7182 O   0  0  0  0  0  0  0  0  0  0  0  0
  -12.7127   -6.0420   33.6038 C   0  0  2  0  0  0  0  0  0  0  0  0
  -14.7932   -5.0832   26.5204 O   0  0  0  0  0  0  0  0  0  0  0  0
  -16.7821   -3.0538   32.0920 N   0  0  0  0  0  0  0  0  0  0  0  0
  -16.7544   -4.4208   32.2852 C   0  0  0  0  0  0  0  0  0  0  0  0
  -15.5911   -5.0514   32.6843 N   0  0  0  0  0  0  0  0  0  0  0  0
  -14.4601   -4.3347   32.8867 C   0  0  0  0  0  0  0  0  0  0  0  0
  -14.4711   -2.9572   32.7056 C   0  0  0  0  0  0  0  0  0  0  0  0
  -15.6365   -2.3171   32.3019 C   0  0  0  0  0  0  0  0  0  0  0  0
  -15.6444   -0.9989   32.1193 N   0  0  0  0  0  0  0  0  0  0  0  0
  -13.2323   -2.4936   32.9779 N   0  0  0  0  0  0  0  0  0  0  0  0
  -12.4496   -3.5367   33.3410 C   0  0  0  0  0  0  0  0  0  0  0  0
  -13.1936   -4.6859   33.2908 N   0  0  0  0  0  0  0  0  0  0  0  0
  2  1  1  1  0  0  0
  2  3  1  0  0  0  0
  2  5  1  0  0  0  0
  3  4  1  0  0  0  0
  3 17  1  0  0  0  0
  5  6  1  0  0  0  0
  7  6  1  6  0  0  0
  7  8  1  0  0  0  0
  7  9  1  0  0  0  0
 10  9  1  6  0  0  0
 10 11  1  0  0  0  0
 10 12  1  0  0  0  0
 11 16  1  0  0  0  0
 12 13  1  1  0  0  0
 12 14  1  0  0  0  0
 14 15  1  1  0  0  0
 14 16  1  0  0  0  0
 16 27  1  6  0  0  0
 18 19  2  0  0  0  0
 18 23  1  0  0  0  0
 19 20  1  0  0  0  0
 20 21  2  0  0  0  0
 21 22  1  0  0  0  0
 21 27  1  0  0  0  0
 22 23  2  0  0  0  0
 22 25  1  0  0  0  0
 23 24  1  0  0  0  0
 25 26  2  0  0  0  0
 26 27  1  0  0  0  0
M  END
>  <CHROM.1>
-31.54582109,-67.66617150,-179.48913744,49.69511295,-80.28746878,64.51836563
66.34017896,-13.92543426,-5.79419790,31.52175001,3.00735817,-1.19908232,1.47949414

>  <Name>
ligand

>  <RI>
0

>  <Rbt.Current_Directory>
/home/itssahil/PROJECTS/Mol_Feturizer/New_Systems/rnas/3GX6

>  <Rbt.Executable>
rbdock ($Id: //depot/dev/client3/rdock/2013.1/src/exe/rbdock.cxx#4 $)

>  <Rbt.Library>
libRbt.so (2013.1, Build901 2013/11/27)

>  <Rbt.Parameter_File>
/export/apps/rDock/src/rDock_2013.1_src/data/scripts/dock_solv.prm

>  <Rbt.Receptor>
prm/pocket_docking_7.prm

>  <SCORE>
-26.1949

>  <SCORE.INTER>
-16.0086

>  <SCORE.INTER.CONST>
1

>  <SCORE.INTER.POLAR>
0

>  <SCORE.INTER.ROT>
7

>  <SCORE.INTER.SOLV>
18.7768

>  <SCORE.INTER.VDW>
-25.198

>  <SCORE.INTER.norm>
-0.592911

>  <SCORE.INTRA>
-10.1864

>  <SCORE.INTRA.DIHEDRAL>
-11.1029

>  <SCORE.INTRA.DIHEDRAL.0>
15.0182

>  <SCORE.INTRA.POLAR>
0

>  <SCORE.INTRA.POLAR.0>
0

>  <SCORE.INTRA.REPUL>
0

>  <SCORE.INTRA.REPUL.0>
0

>  <SCORE.INTRA.SOLV>
0.357675

>  <SCORE.INTRA.SOLV.lig_0>
-47.9129

>  <SCORE.INTRA.VDW>
-4.81373

>  <SCORE.INTRA.VDW.0>
2.00851

>  <SCORE.INTRA.norm>
-0.377272

>  <SCORE.RESTR>
0

>  <SCORE.RESTR.CAVITY>
0

>  <SCORE.RESTR.norm>
0

>  <SCORE.SYSTEM>
0

>  <SCORE.SYSTEM.CONST>
0

>  <SCORE.SYSTEM.DIHEDRAL>
0

>  <SCORE.SYSTEM.SOLV>
0

>  <SCORE.SYSTEM.norm>
0

>  <SCORE.heavy>
27

>  <SCORE.norm>
-0.970183

>  <RMSD>
0.833

$$$$
ligand
 OpenBabel11021811483D
libRbt.so/2013.1/901 2013/11/27
 27 29  0  0  0  0  0  0  0  0999 V2000
  -13.2596   -4.0538   29.2568 N   0  0  0  0  0  0  0  0  0  0  0  0
  -12.8786   -4.9310   28.1531 C   0  0  2  0  0  0  0  0  0  0  0  0
  -14.0427   -5.1836   27.1987 C   0  0  0  0  0  0  0  0  0  0  0  0
  -13.9650   -6.0357   26.3109 O   0  0  0  0  0  0  0  0  0  0  0  0
  -12.2937   -6.2400   28.6749 C   0  0  0  0  0  0  0  0  0  0  0  0
  -13.1797   -6.9290   29.7013 C   0  0  0  0  0  0  0  0  0  0  0  0
  -12.5163   -8.5022   30.3024 S   0  0  2  0  0  0  0  0  0  0  0  0
  -13.1303   -9.6270   29.0240 C   0  0  0  0  0  0  0  0  0  0  0  0
  -13.6570   -8.8587   31.6663 C   0  0  0  0  0  0  0  0  0  0  0  0
  -13.1370   -8.2105   32.9414 C   0  0  1  0  0  0  0  0  0  0  0  0
  -12.7071   -6.9063   32.6316 O   0  0  0  0  0  0  0  0  0  0  0  0
  -14.1579   -8.0225   34.0478 C   0  0  1  0  0  0  0  0  0  0  0  0
  -14.0951   -9.0816   34.9768 O   0  0  0  0  0  0  0  0  0  0  0  0
  -13.7176   -6.7293   34.7032 C   0  0  1  0  0  0  0  0  0  0  0  0
  -13.1083   -7.0384   35.9324 O   0  0  0  0  0  0  0  0  0  0  0  0
  -12.6933   -6.0905   33.7750 C   0  0  2  0  0  0  0  0  0  0  0  0
  -15.0841   -4.5341   27.2953 O   0  0  0  0  0  0  0  0  0  0  0  0
  -16.7827   -3.0804   32.3636 N   0  0  0  0  0  0  0  0  0  0  0  0
  -16.7784   -4.4309   32.6523 C   0  0  0  0  0  0  0  0  0  0  0  0
  -15.6056   -5.0706   33.0067 N   0  0  0  0  0  0  0  0  0  0  0  0
  -14.4426   -4.3798   33.0708 C   0  0  0  0  0  0  0  0  0  0  0  0
  -14.4291   -3.0187   32.7921 C   0  0  0  0  0  0  0  0  0  0  0  0
  -15.6040   -2.3697   32.4326 C   0  0  0  0  0  0  0  0  0  0  0  0
  -15.5892   -1.0679   32.1564 N   0  0  0  0  0  0  0  0  0  0  0  0
  -13.1604   -2.5790   32.9357 N   0  0  0  0  0  0  0  0  0  0  0  0
  -12.3813   -3.6199   33.3129 C   0  0  0  0  0  0  0  0  0  0  0  0
  -13.1590   -4.7442   33.4022 N   0  0  0  0  0  0  0  0  0  0  0  0
  2  1  1  1  0  0  0
  2  3  1  0  0  0  0
  2  5  1  0  0  0  0
  3  4  1  0  0  0  0
  3 17  1  0  0  0  0
  5  6  1  0  0  0  0
  7  6  1  6  0  0  0
  7  8  1  0  0  0  0
  7  9  1  0  0  0  0
 10  9  1  6  0  0  0
 10 11  1  0  0  0  0
 10 12  1  0  0  0  0
 11 16  1  0  0  0  0
 12 13  1  1  0  0  0
 12 14  1  0  0  0  0
 14 15  1  1  0  0  0
 14 16  1  0  0  0  0
 16 27  1  6  0  0  0
 18 19  2  0  0  0  0
 18 23  1  0  0  0  0
 19 20  1  0  0  0  0
 20 21  2  0  0  0  0
 21 22  1  0  0  0  0
 21 27  1  0  0  0  0
 22 23  2  0  0  0  0
 22 25  1  0  0  0  0
 23 24  1  0  0  0  0
 25 26  2  0  0  0  0
 26 27  1  0  0  0  0
M  END
>  <CHROM.1>
-170.27026324,51.72862529,178.70793139,-85.48359672,-88.16454610,44.02698523
71.22515255,-13.82577152,-5.81755614,31.55931442,1.32259026,1.23568987,-1.41116683

>  <Name>
ligand

>  <RI>
0

>  <Rbt.Current_Directory>
/home/itssahil/PROJECTS/Mol_Feturizer/New_Systems/rnas/3GX6

>  <Rbt.Executable>
rbdock ($Id: //depot/dev/client3/rdock/2013.1/src/exe/rbdock.cxx#4 $)

>  <Rbt.Library>
libRbt.so (2013.1, Build901 2013/11/27)

>  <Rbt.Parameter_File>
/export/apps/rDock/src/rDock_2013.1_src/data/scripts/dock_solv.prm

>  <Rbt.Receptor>
prm/pocket_docking_3.prm

>  <SCORE>
-25.5712

>  <SCORE.INTER>
-16.2093

>  <SCORE.INTER.CONST>
1

>  <SCORE.INTER.POLAR>
0

>  <SCORE.INTER.ROT>
7

>  <SCORE.INTER.SOLV>
20.1864

>  <SCORE.INTER.VDW>
-25.8016

>  <SCORE.INTER.norm>
-0.600343

>  <SCORE.INTRA>
-9.36193

>  <SCORE.INTRA.DIHEDRAL>
-8.8021

>  <SCORE.INTRA.DIHEDRAL.0>
15.0182

>  <SCORE.INTRA.POLAR>
0

>  <SCORE.INTRA.POLAR.0>
0

>  <SCORE.INTRA.REPUL>
0

>  <SCORE.INTRA.REPUL.0>
0

>  <SCORE.INTRA.SOLV>
-0.818947

>  <SCORE.INTRA.SOLV.lig_0>
-47.9129

>  <SCORE.INTRA.VDW>
-4.5514

>  <SCORE.INTRA.VDW.0>
2.00851

>  <SCORE.INTRA.norm>
-0.346738

>  <SCORE.RESTR>
0

>  <SCORE.RESTR.CAVITY>
0

>  <SCORE.RESTR.norm>
0

>  <SCORE.SYSTEM>
0

>  <SCORE.SYSTEM.CONST>
0

>  <SCORE.SYSTEM.DIHEDRAL>
0

>  <SCORE.SYSTEM.SOLV>
0

>  <SCORE.SYSTEM.norm>
0

>  <SCORE.heavy>
27

>  <SCORE.norm>
-0.947081

>  <RMSD>
0.918

$$$$
ligand
 OpenBabel11021811483D
libRbt.so/2013.1/901 2013/11/27
 27 29  0  0  0  0  0  0  0  0999 V2000
  -12.9443   -6.4977   26.8658 N   0  0  0  0  0  0  0  0  0  0  0  0
  -14.0082   -6.9147   27.7754 C   0  0  2  0  0  0  0  0  0  0  0  0
  -15.3528   -6.2978   27.3995 C   0  0  0  0  0  0  0  0  0  0  0  0
  -15.5476   -5.0845   27.5012 O   0  0  0  0  0  0  0  0  0  0  0  0
  -13.6397   -6.6044   29.2231 C   0  0  0  0  0  0  0  0  0  0  0  0
  -12.3108   -7.2089   29.6493 C   0  0  0  0  0  0  0  0  0  0  0  0
  -12.4397   -8.9128   30.2463 S   0  0  2  0  0  0  0  0  0  0  0  0
  -13.2365   -9.6993   28.8240 C   0  0  0  0  0  0  0  0  0  0  0  0
  -13.8323   -8.7697   31.3990 C   0  0  0  0  0  0  0  0  0  0  0  0
  -13.3283   -8.2478   32.7368 C   0  0  1  0  0  0  0  0  0  0  0  0
  -12.8485   -6.9378   32.5487 O   0  0  0  0  0  0  0  0  0  0  0  0
  -14.3737   -8.1176   33.8286 C   0  0  1  0  0  0  0  0  0  0  0  0
  -14.3710   -9.2517   34.6667 O   0  0  0  0  0  0  0  0  0  0  0  0
  -13.9111   -6.8990   34.6013 C   0  0  1  0  0  0  0  0  0  0  0  0
  -13.3471   -7.3297   35.8154 O   0  0  0  0  0  0  0  0  0  0  0  0
  -12.8411   -6.2207   33.7565 C   0  0  2  0  0  0  0  0  0  0  0  0
  -16.2740   -7.0048   26.9905 O   0  0  0  0  0  0  0  0  0  0  0  0
  -16.5910   -3.0268   31.8821 N   0  0  0  0  0  0  0  0  0  0  0  0
  -16.6080   -4.4053   31.9628 C   0  0  0  0  0  0  0  0  0  0  0  0
  -15.5286   -5.0927   32.4847 N   0  0  0  0  0  0  0  0  0  0  0  0
  -14.4362   -4.4211   32.9201 C   0  0  0  0  0  0  0  0  0  0  0  0
  -14.4045   -3.0336   32.8547 C   0  0  0  0  0  0  0  0  0  0  0  0
  -15.4852   -2.3362   32.3287 C   0  0  0  0  0  0  0  0  0  0  0  0
  -15.4507   -1.0078   32.2574 N   0  0  0  0  0  0  0  0  0  0  0  0
  -13.2193   -2.6223   33.3546 N   0  0  0  0  0  0  0  0  0  0  0  0
  -12.5142   -3.7092   33.7473 C   0  0  0  0  0  0  0  0  0  0  0  0
  -13.2529   -4.8329   33.4862 N   0  0  0  0  0  0  0  0  0  0  0  0
  2  1  1  6  0  0  0
  2  3  1  0  0  0  0
  2  5  1  0  0  0  0
  3  4  1  0  0  0  0
  3 17  1  0  0  0  0
  5  6  1  0  0  0  0
  7  6  1  6  0  0  0
  7  8  1  0  0  0  0
  7  9  1  0  0  0  0
 10  9  1  6  0  0  0
 10 11  1  0  0  0  0
 10 12  1  0  0  0  0
 11 16  1  0  0  0  0
 12 13  1  1  0  0  0
 12 14  1  0  0  0  0
 14 15  1  1  0  0  0
 14 16  1  0  0  0  0
 16 27  1  6  0  0  0
 18 19  2  0  0  0  0
 18 23  1  0  0  0  0
 19 20  1  0  0  0  0
 20 21  2  0  0  0  0
 21 22  1  0  0  0  0
 21 27  1  0  0  0  0
 22 23  2  0  0  0  0
 22 25  1  0  0  0  0
 23 24  1  0  0  0  0
 25 26  2  0  0  0  0
 26 27  1  0  0  0  0
M  END
>  <CHROM.1>
-67.26114198,-55.17141557,-86.18752535,55.81472960,-82.58952887,65.06884154
58.32888989,-14.06428029,-6.16313495,31.43216621,1.43048358,1.19717872,-1.97102841

>  <Name>
ligand

>  <RI>
0

>  <Rbt.Current_Directory>
/home/itssahil/PROJECTS/Mol_Feturizer/New_Systems/rnas/3GX6

>  <Rbt.Executable>
rbdock ($Id: //depot/dev/client3/rdock/2013.1/src/exe/rbdock.cxx#4 $)

>  <Rbt.Library>
libRbt.so (2013.1, Build901 2013/11/27)

>  <Rbt.Parameter_File>
/export/apps/rDock/src/rDock_2013.1_src/data/scripts/dock_solv.prm

>  <Rbt.Receptor>
prm/pocket_docking_2.prm

>  <SCORE>
-21.9201

>  <SCORE.INTER>
-13.8284

>  <SCORE.INTER.CONST>
1

>  <SCORE.INTER.POLAR>
0

>  <SCORE.INTER.ROT>
7

>  <SCORE.INTER.SOLV>
17.4141

>  <SCORE.INTER.VDW>
-23.2903

>  <SCORE.INTER.norm>
-0.512164

>  <SCORE.INTRA>
-8.09171

>  <SCORE.INTRA.DIHEDRAL>
-8.82324

>  <SCORE.INTRA.DIHEDRAL.0>
15.0182

>  <SCORE.INTRA.POLAR>
0

>  <SCORE.INTRA.POLAR.0>
0

>  <SCORE.INTRA.REPUL>
0

>  <SCORE.INTRA.REPUL.0>
0

>  <SCORE.INTRA.SOLV>
0.165387

>  <SCORE.INTRA.SOLV.lig_0>
-47.9129

>  <SCORE.INTRA.VDW>
-3.76278

>  <SCORE.INTRA.VDW.0>
2.00851

>  <SCORE.INTRA.norm>
-0.299693

>  <SCORE.RESTR>
0

>  <SCORE.RESTR.CAVITY>
0

>  <SCORE.RESTR.norm>
0

>  <SCORE.SYSTEM>
0

>  <SCORE.SYSTEM.CONST>
0

>  <SCORE.SYSTEM.DIHEDRAL>
0

>  <SCORE.SYSTEM.SOLV>
0

>  <SCORE.SYSTEM.norm>
0

>  <SCORE.heavy>
27

>  <SCORE.norm>
-0.811856

>  <RMSD>
0.930

$$$$
ligand
 OpenBabel11021811483D
libRbt.so/2013.1/901 2013/11/27
 27 29  0  0  0  0  0  0  0  0999 V2000
  -13.2360   -4.0885   29.1935 N   0  0  0  0  0  0  0  0  0  0  0  0
  -12.8436   -5.0187   28.1382 C   0  0  2  0  0  0  0  0  0  0  0  0
  -13.9997   -5.3237   27.1893 C   0  0  0  0  0  0  0  0  0  0  0  0
  -13.7963   -5.7977   26.0693 O   0  0  0  0  0  0  0  0  0  0  0  0
  -12.2577   -6.2974   28.7294 C   0  0  0  0  0  0  0  0  0  0  0  0
  -13.1345   -6.9209   29.8044 C   0  0  0  0  0  0  0  0  0  0  0  0
  -12.5921   -8.5665   30.3278 S   0  0  2  0  0  0  0  0  0  0  0  0
  -13.3484   -9.5869   29.0380 C   0  0  0  0  0  0  0  0  0  0  0  0
  -13.7106   -8.8708   31.7224 C   0  0  0  0  0  0  0  0  0  0  0  0
  -13.1397   -8.2255   32.9770 C   0  0  1  0  0  0  0  0  0  0  0  0
  -12.7169   -6.9228   32.6516 O   0  0  0  0  0  0  0  0  0  0  0  0
  -14.1169   -8.0342   34.1216 C   0  0  1  0  0  0  0  0  0  0  0  0
  -14.0228   -9.0941   35.0471 O   0  0  0  0  0  0  0  0  0  0  0  0
  -13.6468   -6.7431   34.7603 C   0  0  1  0  0  0  0  0  0  0  0  0
  -12.9922   -7.0554   35.9653 O   0  0  0  0  0  0  0  0  0  0  0  0
  -12.6562   -6.1078   33.7940 C   0  0  2  0  0  0  0  0  0  0  0  0
  -15.1621   -5.0960   27.5248 O   0  0  0  0  0  0  0  0  0  0  0  0
  -16.7484   -3.1198   32.3445 N   0  0  0  0  0  0  0  0  0  0  0  0
  -16.7331   -4.4764   32.6023 C   0  0  0  0  0  0  0  0  0  0  0  0
  -15.5613   -5.1087   32.9727 N   0  0  0  0  0  0  0  0  0  0  0  0
  -14.4100   -4.4044   33.0832 C   0  0  0  0  0  0  0  0  0  0  0  0
  -14.4079   -3.0371   32.8361 C   0  0  0  0  0  0  0  0  0  0  0  0
  -15.5819   -2.3955   32.4606 C   0  0  0  0  0  0  0  0  0  0  0  0
  -15.5777   -1.0876   32.2147 N   0  0  0  0  0  0  0  0  0  0  0  0
  -13.1495   -2.5842   33.0231 N   0  0  0  0  0  0  0  0  0  0  0  0
  -12.3663   -3.6232   33.3968 C   0  0  0  0  0  0  0  0  0  0  0  0
  -13.1305   -4.7594   33.4399 N   0  0  0  0  0  0  0  0  0  0  0  0
  2  1  1  1  0  0  0
  2  3  1  0  0  0  0
  2  5  1  0  0  0  0
  3  4  1  0  0  0  0
  3 17  1  0  0  0  0
  5  6  1  0  0  0  0
  7  6  1  6  0  0  0
  7  8  1  0  0  0  0
  7  9  1  0  0  0  0
 10  9  1  6  0  0  0
 10 11  1  0  0  0  0
 10 12  1  0  0  0  0
 11 16  1  0  0  0  0
 12 13  1  1  0  0  0
 12 14  1  0  0  0  0
 14 15  1  1  0  0  0
 14 16  1  0  0  0  0
 16 27  1  6  0  0  0
 18 19  2  0  0  0  0
 18 23  1  0  0  0  0
 19 20  1  0  0  0  0
 20 21  2  0  0  0  0
 21 22  1  0  0  0  0
 21 27  1  0  0  0  0
 22 23  2  0  0  0  0
 22 25  1  0  0  0  0
 23 24  1  0  0  0  0
 25 26  2  0  0  0  0
 26 27  1  0  0  0  0
M  END
>  <CHROM.1>
161.36831579,50.46994862,170.76739866,-83.30075061,-83.94362726,45.96632333
67.19348396,-13.81132033,-5.85689129,31.58561849,1.33818398,1.24863942,-1.44394041

>  <Name>
ligand

>  <RI>
0

>  <Rbt.Current_Directory>
/home/itssahil/PROJECTS/Mol_Feturizer/New_Systems/rnas/3GX6

>  <Rbt.Executable>
rbdock ($Id: //depot/dev/client3/rdock/2013.1/src/exe/rbdock.cxx#4 $)

>  <Rbt.Library>
libRbt.so (2013.1, Build901 2013/11/27)

>  <Rbt.Parameter_File>
/export/apps/rDock/src/rDock_2013.1_src/data/scripts/dock_solv.prm

>  <Rbt.Receptor>
prm/pocket_docking_3.prm

>  <SCORE>
-25.7268

>  <SCORE.INTER>
-15.9697

>  <SCORE.INTER.CONST>
1

>  <SCORE.INTER.POLAR>
0

>  <SCORE.INTER.ROT>
7

>  <SCORE.INTER.SOLV>
20.2167

>  <SCORE.INTER.VDW>
-25.652

>  <SCORE.INTER.norm>
-0.591471

>  <SCORE.INTRA>
-9.75711

>  <SCORE.INTRA.DIHEDRAL>
-9.14399

>  <SCORE.INTRA.DIHEDRAL.0>
15.0182

>  <SCORE.INTRA.POLAR>
0

>  <SCORE.INTRA.POLAR.0>
0

>  <SCORE.INTRA.REPUL>
0

>  <SCORE.INTRA.REPUL.0>
0

>  <SCORE.INTRA.SOLV>
-0.880285

>  <SCORE.INTRA.SOLV.lig_0>
-47.9129

>  <SCORE.INTRA.VDW>
-4.74497

>  <SCORE.INTRA.VDW.0>
2.00851

>  <SCORE.INTRA.norm>
-0.361374

>  <SCORE.RESTR>
0

>  <SCORE.RESTR.CAVITY>
0

>  <SCORE.RESTR.norm>
0

>  <SCORE.SYSTEM>
0

>  <SCORE.SYSTEM.CONST>
0

>  <SCORE.SYSTEM.DIHEDRAL>
0

>  <SCORE.SYSTEM.SOLV>
0

>  <SCORE.SYSTEM.norm>
0

>  <SCORE.heavy>
27

>  <SCORE.norm>
-0.952846

>  <RMSD>
0.941

$$$$
ligand
 OpenBabel11021811483D
libRbt.so/2013.1/901 2013/11/27
 27 29  0  0  0  0  0  0  0  0999 V2000
  -13.3151   -4.2560   28.8991 N   0  0  0  0  0  0  0  0  0  0  0  0
  -12.7840   -5.2400   27.9597 C   0  0  2  0  0  0  0  0  0  0  0  0
  -13.8520   -5.7324   26.9866 C   0  0  0  0  0  0  0  0  0  0  0  0
  -13.5495   -6.1477   25.8657 O   0  0  0  0  0  0  0  0  0  0  0  0
  -12.1289   -6.4019   28.7005 C   0  0  0  0  0  0  0  0  0  0  0  0
  -13.0076   -6.9920   29.7926 C   0  0  0  0  0  0  0  0  0  0  0  0
  -12.4466   -8.6054   30.3914 S   0  0  2  0  0  0  0  0  0  0  0  0
  -13.1024   -9.6832   29.0934 C   0  0  0  0  0  0  0  0  0  0  0  0
  -13.6293   -8.9055   31.7329 C   0  0  0  0  0  0  0  0  0  0  0  0
  -13.1196   -8.2533   33.0101 C   0  0  1  0  0  0  0  0  0  0  0  0
  -12.6983   -6.9459   32.7019 O   0  0  0  0  0  0  0  0  0  0  0  0
  -14.1467   -8.0728   34.1121 C   0  0  1  0  0  0  0  0  0  0  0  0
  -14.0798   -9.1313   35.0415 O   0  0  0  0  0  0  0  0  0  0  0  0
  -13.7189   -6.7762   34.7691 C   0  0  1  0  0  0  0  0  0  0  0  0
  -13.1125   -7.0805   36.0010 O   0  0  0  0  0  0  0  0  0  0  0  0
  -12.6955   -6.1299   33.8452 C   0  0  2  0  0  0  0  0  0  0  0  0
  -15.0417   -5.7189   27.3030 O   0  0  0  0  0  0  0  0  0  0  0  0
  -16.7880   -3.1643   32.3510 N   0  0  0  0  0  0  0  0  0  0  0  0
  -16.7728   -4.5167   32.6301 C   0  0  0  0  0  0  0  0  0  0  0  0
  -15.6009   -5.1433   33.0098 N   0  0  0  0  0  0  0  0  0  0  0  0
  -14.4494   -4.4375   33.1085 C   0  0  0  0  0  0  0  0  0  0  0  0
  -14.4472   -3.0743   32.8400 C   0  0  0  0  0  0  0  0  0  0  0  0
  -15.6213   -2.4384   32.4550 C   0  0  0  0  0  0  0  0  0  0  0  0
  -15.6170   -1.1346   32.1886 N   0  0  0  0  0  0  0  0  0  0  0  0
  -13.1886   -2.6188   33.0191 N   0  0  0  0  0  0  0  0  0  0  0  0
  -12.4054   -3.6519   33.4087 C   0  0  0  0  0  0  0  0  0  0  0  0
  -13.1697   -4.7871   33.4701 N   0  0  0  0  0  0  0  0  0  0  0  0
  2  1  1  1  0  0  0
  2  3  1  0  0  0  0
  2  5  1  0  0  0  0
  3  4  1  0  0  0  0
  3 17  1  0  0  0  0
  5  6  1  0  0  0  0
  7  6  1  6  0  0  0
  7  8  1  0  0  0  0
  7  9  1  0  0  0  0
 10  9  1  6  0  0  0
 10 11  1  0  0  0  0
 10 12  1  0  0  0  0
 11 16  1  0  0  0  0
 12 13  1  1  0  0  0
 12 14  1  0  0  0  0
 14 15  1  1  0  0  0
 14 16  1  0  0  0  0
 16 27  1  6  0  0  0
 18 19  2  0  0  0  0
 18 23  1  0  0  0  0
 19 20  1  0  0  0  0
 20 21  2  0  0  0  0
 21 22  1  0  0  0  0
 21 27  1  0  0  0  0
 22 23  2  0  0  0  0
 22 25  1  0  0  0  0
 23 24  1  0  0  0  0
 25 26  2  0  0  0  0
 26 27  1  0  0  0  0
M  END
>  <CHROM.1>
153.05802326,49.94284073,165.30086167,-80.53561147,-86.06159859,46.62323067
69.89008946,-13.78269538,-5.95711665,31.56130459,1.15410904,1.22835201,-1.39794946

>  <Name>
ligand

>  <RI>
0

>  <Rbt.Current_Directory>
/home/itssahil/PROJECTS/Mol_Feturizer/New_Systems/rnas/3GX6

>  <Rbt.Executable>
rbdock ($Id: //depot/dev/client3/rdock/2013.1/src/exe/rbdock.cxx#4 $)

>  <Rbt.Library>
libRbt.so (2013.1, Build901 2013/11/27)

>  <Rbt.Parameter_File>
/export/apps/rDock/src/rDock_2013.1_src/data/scripts/dock_solv.prm

>  <Rbt.Receptor>
prm/pocket_docking_3.prm

>  <SCORE>
-25.4023

>  <SCORE.INTER>
-15.9014

>  <SCORE.INTER.CONST>
1

>  <SCORE.INTER.POLAR>
0

>  <SCORE.INTER.ROT>
7

>  <SCORE.INTER.SOLV>
19.7678

>  <SCORE.INTER.VDW>
-25.4569

>  <SCORE.INTER.norm>
-0.58894

>  <SCORE.INTRA>
-9.50091

>  <SCORE.INTRA.DIHEDRAL>
-8.72766

>  <SCORE.INTRA.DIHEDRAL.0>
15.0182

>  <SCORE.INTRA.POLAR>
0

>  <SCORE.INTRA.POLAR.0>
0

>  <SCORE.INTRA.REPUL>
0

>  <SCORE.INTRA.REPUL.0>
0

>  <SCORE.INTRA.SOLV>
-0.908671

>  <SCORE.INTRA.SOLV.lig_0>
-47.9129

>  <SCORE.INTRA.VDW>
-4.68275

>  <SCORE.INTRA.VDW.0>
2.00851

>  <SCORE.INTRA.norm>
-0.351886

>  <SCORE.RESTR>
0

>  <SCORE.RESTR.CAVITY>
0

>  <SCORE.RESTR.norm>
0

>  <SCORE.SYSTEM>
0

>  <SCORE.SYSTEM.CONST>
0

>  <SCORE.SYSTEM.DIHEDRAL>
0

>  <SCORE.SYSTEM.SOLV>
0

>  <SCORE.SYSTEM.norm>
0

>  <SCORE.heavy>
27

>  <SCORE.norm>
-0.940826

>  <RMSD>
0.989

$$$$
ligand
 OpenBabel11021811483D
libRbt.so/2013.1/901 2013/11/27
 27 29  0  0  0  0  0  0  0  0999 V2000
  -13.4883   -3.5518   29.0441 N   0  0  0  0  0  0  0  0  0  0  0  0
  -13.8770   -4.8866   28.5969 C   0  0  2  0  0  0  0  0  0  0  0  0
  -15.3933   -5.0604   28.5743 C   0  0  0  0  0  0  0  0  0  0  0  0
  -15.9384   -5.7908   27.7439 O   0  0  0  0  0  0  0  0  0  0  0  0
  -13.2069   -5.9622   29.4465 C   0  0  0  0  0  0  0  0  0  0  0  0
  -13.3754   -7.3655   28.8848 C   0  0  0  0  0  0  0  0  0  0  0  0
  -12.5747   -8.6514   29.8756 S   0  0  2  0  0  0  0  0  0  0  0  0
  -12.9284  -10.1114   28.8657 C   0  0  0  0  0  0  0  0  0  0  0  0
  -13.7764   -8.8497   31.2192 C   0  0  0  0  0  0  0  0  0  0  0  0
  -13.1770   -8.3202   32.5141 C   0  0  1  0  0  0  0  0  0  0  0  0
  -12.7662   -6.9908   32.3008 O   0  0  0  0  0  0  0  0  0  0  0  0
  -14.1267   -8.2407   33.6946 C   0  0  1  0  0  0  0  0  0  0  0  0
  -14.0070   -9.3812   34.5154 O   0  0  0  0  0  0  0  0  0  0  0  0
  -13.6451   -7.0118   34.4387 C   0  0  1  0  0  0  0  0  0  0  0  0
  -12.9605   -7.4308   35.5935 O   0  0  0  0  0  0  0  0  0  0  0  0
  -12.6802   -6.2846   33.5119 C   0  0  2  0  0  0  0  0  0  0  0  0
  -16.1039   -4.4672   29.3860 O   0  0  0  0  0  0  0  0  0  0  0  0
  -16.6704   -3.2262   31.9309 N   0  0  0  0  0  0  0  0  0  0  0  0
  -16.6231   -4.6053   31.9836 C   0  0  0  0  0  0  0  0  0  0  0  0
  -15.4855   -5.2537   32.4259 N   0  0  0  0  0  0  0  0  0  0  0  0
  -14.3989   -4.5424   32.8096 C   0  0  0  0  0  0  0  0  0  0  0  0
  -14.4310   -3.1539   32.7715 C   0  0  0  0  0  0  0  0  0  0  0  0
  -15.5706   -2.4956   32.3254 C   0  0  0  0  0  0  0  0  0  0  0  0
  -15.5977   -1.1658   32.2799 N   0  0  0  0  0  0  0  0  0  0  0  0
  -13.2368   -2.6998   33.2086 N   0  0  0  0  0  0  0  0  0  0  0  0
  -12.4631   -3.7613   33.5359 C   0  0  0  0  0  0  0  0  0  0  0  0
  -13.1669   -4.9118   33.2957 N   0  0  0  0  0  0  0  0  0  0  0  0
  2  1  1  1  0  0  0
  2  3  1  0  0  0  0
  2  5  1  0  0  0  0
  3  4  1  0  0  0  0
  3 17  1  0  0  0  0
  5  6  1  0  0  0  0
  7  6  1  6  0  0  0
  7  8  1  0  0  0  0
  7  9  1  0  0  0  0
 10  9  1  6  0  0  0
 10 11  1  0  0  0  0
 10 12  1  0  0  0  0
 11 16  1  0  0  0  0
 12 13  1  1  0  0  0
 12 14  1  0  0  0  0
 14 15  1  1  0  0  0
 14 16  1  0  0  0  0
 16 27  1  6  0  0  0
 18 19  2  0  0  0  0
 18 23  1  0  0  0  0
 19 20  1  0  0  0  0
 20 21  2  0  0  0  0
 21 22  1  0  0  0  0
 21 27  1  0  0  0  0
 22 23  2  0  0  0  0
 22 25  1  0  0  0  0
 23 24  1  0  0  0  0
 25 26  2  0  0  0  0
 26 27  1  0  0  0  0
M  END
>  <CHROM.1>
147.85824036,-169.93557568,179.55601148,-177.52831051,-110.85422625,55.04066951
56.62361082,-14.05327542,-5.92484020,31.55277065,2.76621653,-1.19975300,1.19702046

>  <Name>
ligand

>  <RI>
0

>  <Rbt.Current_Directory>
/home/itssahil/PROJECTS/Mol_Feturizer/New_Systems/rnas/3GX6

>  <Rbt.Executable>
rbdock ($Id: //depot/dev/client3/rdock/2013.1/src/exe/rbdock.cxx#4 $)

>  <Rbt.Library>
libRbt.so (2013.1, Build901 2013/11/27)

>  <Rbt.Parameter_File>
/export/apps/rDock/src/rDock_2013.1_src/data/scripts/dock_solv.prm

>  <Rbt.Receptor>
prm/pocket_docking_2.prm

>  <SCORE>
-21.4439

>  <SCORE.INTER>
-10.5887

>  <SCORE.INTER.CONST>
1

>  <SCORE.INTER.POLAR>
0

>  <SCORE.INTER.ROT>
7

>  <SCORE.INTER.SOLV>
21.1246

>  <SCORE.INTER.VDW>
-22.3673

>  <SCORE.INTER.norm>
-0.392174

>  <SCORE.INTRA>
-11.2488

>  <SCORE.INTRA.DIHEDRAL>
-7.56255

>  <SCORE.INTRA.DIHEDRAL.0>
15.0182

>  <SCORE.INTRA.POLAR>
0

>  <SCORE.INTRA.POLAR.0>
0

>  <SCORE.INTRA.REPUL>
0

>  <SCORE.INTRA.REPUL.0>
0

>  <SCORE.INTRA.SOLV>
-1.55322

>  <SCORE.INTRA.SOLV.lig_0>
-47.9129

>  <SCORE.INTRA.VDW>
-6.69096

>  <SCORE.INTRA.VDW.0>
2.00851

>  <SCORE.INTRA.norm>
-0.416624

>  <SCORE.RESTR>
0.39366

>  <SCORE.RESTR.CAVITY>
0.39366

>  <SCORE.RESTR.norm>
0.01458

>  <SCORE.SYSTEM>
0

>  <SCORE.SYSTEM.CONST>
0

>  <SCORE.SYSTEM.DIHEDRAL>
0

>  <SCORE.SYSTEM.SOLV>
0

>  <SCORE.SYSTEM.norm>
0

>  <SCORE.heavy>
27

>  <SCORE.norm>
-0.794218

>  <RMSD>
1.004

$$$$
ligand
 OpenBabel11021811483D
libRbt.so/2013.1/901 2013/11/27
 27 29  0  0  0  0  0  0  0  0999 V2000
  -11.9051   -6.0098   28.3408 N   0  0  0  0  0  0  0  0  0  0  0  0
  -13.0181   -5.7051   27.4456 C   0  0  2  0  0  0  0  0  0  0  0  0
  -13.8657   -4.5468   27.9650 C   0  0  0  0  0  0  0  0  0  0  0  0
  -13.7021   -4.0975   29.1016 O   0  0  0  0  0  0  0  0  0  0  0  0
  -13.8686   -6.9462   27.1921 C   0  0  0  0  0  0  0  0  0  0  0  0
  -14.4628   -7.5386   28.4606 C   0  0  0  0  0  0  0  0  0  0  0  0
  -13.2620   -8.4203   29.4887 S   0  0  2  0  0  0  0  0  0  0  0  0
  -13.3128  -10.0586   28.7208 C   0  0  0  0  0  0  0  0  0  0  0  0
  -14.2365   -8.7025   30.9918 C   0  0  0  0  0  0  0  0  0  0  0  0
  -13.4496   -8.2187   32.2014 C   0  0  1  0  0  0  0  0  0  0  0  0
  -13.0418   -6.8927   31.9629 O   0  0  0  0  0  0  0  0  0  0  0  0
  -14.2226   -8.1509   33.5052 C   0  0  1  0  0  0  0  0  0  0  0  0
  -14.0157   -9.3144   34.2747 O   0  0  0  0  0  0  0  0  0  0  0  0
  -13.6130   -6.9515   34.2020 C   0  0  1  0  0  0  0  0  0  0  0  0
  -12.7834   -7.4137   35.2393 O   0  0  0  0  0  0  0  0  0  0  0  0
  -12.7707   -6.2199   33.1657 C   0  0  2  0  0  0  0  0  0  0  0  0
  -14.7362   -4.0407   27.2567 O   0  0  0  0  0  0  0  0  0  0  0  0
  -16.3288   -2.9520   31.0596 N   0  0  0  0  0  0  0  0  0  0  0  0
  -16.2255   -4.3192   30.8954 C   0  0  0  0  0  0  0  0  0  0  0  0
  -15.2205   -5.0293   31.5247 N   0  0  0  0  0  0  0  0  0  0  0  0
  -14.3197   -4.3902   32.3084 C   0  0  0  0  0  0  0  0  0  0  0  0
  -14.4130   -3.0161   32.4922 C   0  0  0  0  0  0  0  0  0  0  0  0
  -15.4193   -2.2957   31.8603 C   0  0  0  0  0  0  0  0  0  0  0  0
  -15.5028   -0.9782   32.0289 N   0  0  0  0  0  0  0  0  0  0  0  0
  -13.4100   -2.6391   33.3140 N   0  0  0  0  0  0  0  0  0  0  0  0
  -12.7012   -3.7378   33.6648 C   0  0  0  0  0  0  0  0  0  0  0  0
  -13.2508   -4.8325   33.0514 N   0  0  0  0  0  0  0  0  0  0  0  0
  2  1  1  1  0  0  0
  2  3  1  0  0  0  0
  2  5  1  0  0  0  0
  3  4  1  0  0  0  0
  3 17  1  0  0  0  0
  5  6  1  0  0  0  0
  7  6  1  6  0  0  0
  7  8  1  0  0  0  0
  7  9  1  0  0  0  0
 10  9  1  6  0  0  0
 10 11  1  0  0  0  0
 10 12  1  0  0  0  0
 11 16  1  0  0  0  0
 12 13  1  1  0  0  0
 12 14  1  0  0  0  0
 14 15  1  1  0  0  0
 14 16  1  0  0  0  0
 16 27  1  6  0  0  0
 18 19  2  0  0  0  0
 18 23  1  0  0  0  0
 19 20  1  0  0  0  0
 20 21  2  0  0  0  0
 21 22  1  0  0  0  0
 21 27  1  0  0  0  0
 22 23  2  0  0  0  0
 22 25  1  0  0  0  0
 23 24  1  0  0  0  0
 25 26  2  0  0  0  0
 26 27  1  0  0  0  0
M  END
>  <CHROM.1>
-9.90406547,59.43517898,-74.23544644,-85.94871099,-128.50063026,52.35683084
30.81328057,-13.91386981,-5.88067445,31.07714960,0.65754382,1.33838357,-1.68704026

>  <Name>
ligand

>  <RI>
0

>  <Rbt.Current_Directory>
/home/itssahil/PROJECTS/Mol_Feturizer/New_Systems/rnas/3GX6

>  <Rbt.Executable>
rbdock ($Id: //depot/dev/client3/rdock/2013.1/src/exe/rbdock.cxx#4 $)

>  <Rbt.Library>
libRbt.so (2013.1, Build901 2013/11/27)

>  <Rbt.Parameter_File>
/export/apps/rDock/src/rDock_2013.1_src/data/scripts/dock_solv.prm

>  <Rbt.Receptor>
prm/pocket_docking_2.prm

>  <SCORE>
-20.2322

>  <SCORE.INTER>
-11.4514

>  <SCORE.INTER.CONST>
1

>  <SCORE.INTER.POLAR>
0

>  <SCORE.INTER.ROT>
7

>  <SCORE.INTER.SOLV>
17.9106

>  <SCORE.INTER.VDW>
-21.8712

>  <SCORE.INTER.norm>
-0.424127

>  <SCORE.INTRA>
-8.78237

>  <SCORE.INTRA.DIHEDRAL>
-5.66128

>  <SCORE.INTRA.DIHEDRAL.0>
15.0182

>  <SCORE.INTRA.POLAR>
0

>  <SCORE.INTRA.POLAR.0>
0

>  <SCORE.INTRA.REPUL>
0

>  <SCORE.INTRA.REPUL.0>
0

>  <SCORE.INTRA.SOLV>
0.913024

>  <SCORE.INTRA.SOLV.lig_0>
-47.9129

>  <SCORE.INTRA.VDW>
-6.40824

>  <SCORE.INTRA.VDW.0>
2.00851

>  <SCORE.INTRA.norm>
-0.325273

>  <SCORE.RESTR>
0.00157027

>  <SCORE.RESTR.CAVITY>
0.00157027

>  <SCORE.RESTR.norm>
5.81582e-05

>  <SCORE.SYSTEM>
0

>  <SCORE.SYSTEM.CONST>
0

>  <SCORE.SYSTEM.DIHEDRAL>
0

>  <SCORE.SYSTEM.SOLV>
0

>  <SCORE.SYSTEM.norm>
0

>  <SCORE.heavy>
27

>  <SCORE.norm>
-0.749341

>  <RMSD>
1.025

$$$$
ligand
 OpenBabel11021811483D
libRbt.so/2013.1/901 2013/11/27
 27 29  0  0  0  0  0  0  0  0999 V2000
  -13.2436   -3.4564   29.7383 N   0  0  0  0  0  0  0  0  0  0  0  0
  -13.2224   -4.6868   28.9520 C   0  0  2  0  0  0  0  0  0  0  0  0
  -14.5954   -5.0151   28.3713 C   0  0  0  0  0  0  0  0  0  0  0  0
  -14.7237   -5.3565   27.1935 O   0  0  0  0  0  0  0  0  0  0  0  0
  -12.6744   -5.8493   29.7743 C   0  0  0  0  0  0  0  0  0  0  0  0
  -12.6465   -7.1655   29.0128 C   0  0  0  0  0  0  0  0  0  0  0  0
  -12.1722   -8.5878   30.0270 S   0  0  2  0  0  0  0  0  0  0  0  0
  -12.5714   -9.9443   28.8969 C   0  0  0  0  0  0  0  0  0  0  0  0
  -13.5668   -8.6672   31.1833 C   0  0  0  0  0  0  0  0  0  0  0  0
  -13.1266   -8.1402   32.5415 C   0  0  1  0  0  0  0  0  0  0  0  0
  -12.7161   -6.8027   32.3857 O   0  0  0  0  0  0  0  0  0  0  0  0
  -14.2049   -8.0860   33.6075 C   0  0  1  0  0  0  0  0  0  0  0  0
  -14.1601   -9.2318   34.4283 O   0  0  0  0  0  0  0  0  0  0  0  0
  -13.8307   -6.8565   34.4101 C   0  0  1  0  0  0  0  0  0  0  0  0
  -13.2744   -7.2752   35.6320 O   0  0  0  0  0  0  0  0  0  0  0  0
  -12.7793   -6.1062   33.6038 C   0  0  2  0  0  0  0  0  0  0  0  0
  -15.6056   -4.9395   29.0708 O   0  0  0  0  0  0  0  0  0  0  0  0
  -16.7875   -3.0800   32.0063 N   0  0  0  0  0  0  0  0  0  0  0  0
  -16.7498   -4.4561   32.1155 C   0  0  0  0  0  0  0  0  0  0  0  0
  -15.6055   -5.0959   32.5531 N   0  0  0  0  0  0  0  0  0  0  0  0
  -14.5030   -4.3791   32.8766 C   0  0  0  0  0  0  0  0  0  0  0  0
  -14.5251   -2.9932   32.7813 C   0  0  0  0  0  0  0  0  0  0  0  0
  -15.6713   -2.3437   32.3395 C   0  0  0  0  0  0  0  0  0  0  0  0
  -15.6892   -1.0168   32.2391 N   0  0  0  0  0  0  0  0  0  0  0  0
  -13.3155   -2.5321   33.1659 N   0  0  0  0  0  0  0  0  0  0  0  0
  -12.5415   -3.5861   33.5161 C   0  0  0  0  0  0  0  0  0  0  0  0
  -13.2609   -4.7391   33.3437 N   0  0  0  0  0  0  0  0  0  0  0  0
  2  1  1  1  0  0  0
  2  3  1  0  0  0  0
  2  5  1  0  0  0  0
  3  4  1  0  0  0  0
  3 17  1  0  0  0  0
  5  6  1  0  0  0  0
  7  6  1  6  0  0  0
  7  8  1  0  0  0  0
  7  9  1  0  0  0  0
 10  9  1  6  0  0  0
 10 11  1  0  0  0  0
 10 12  1  0  0  0  0
 11 16  1  0  0  0  0
 12 13  1  1  0  0  0
 12 14  1  0  0  0  0
 14 15  1  1  0  0  0
 14 16  1  0  0  0  0
 16 27  1  6  0  0  0
 18 19  2  0  0  0  0
 18 23  1  0  0  0  0
 19 20  1  0  0  0  0
 20 21  2  0  0  0  0
 21 22  1  0  0  0  0
 21 27  1  0  0  0  0
 22 23  2  0  0  0  0
 22 25  1  0  0  0  0
 23 24  1  0  0  0  0
 25 26  2  0  0  0  0
 26 27  1  0  0  0  0
M  END
>  <CHROM.1>
134.16186180,179.17629957,-173.62741251,169.29209357,-105.06186673,60.52382231
65.31442969,-13.88923741,-5.78986987,31.59037740,2.99600100,-1.20320034,1.64275841

>  <Name>
ligand

>  <RI>
0

>  <Rbt.Current_Directory>
/home/itssahil/PROJECTS/Mol_Feturizer/New_Systems/rnas/3GX6

>  <Rbt.Executable>
rbdock ($Id: //depot/dev/client3/rdock/2013.1/src/exe/rbdock.cxx#4 $)

>  <Rbt.Library>
libRbt.so (2013.1, Build901 2013/11/27)

>  <Rbt.Parameter_File>
/export/apps/rDock/src/rDock_2013.1_src/data/scripts/dock_solv.prm

>  <Rbt.Receptor>
prm/pocket_docking_3.prm

>  <SCORE>
-24.5215

>  <SCORE.INTER>
-13.7487

>  <SCORE.INTER.CONST>
1

>  <SCORE.INTER.POLAR>
0

>  <SCORE.INTER.ROT>
7

>  <SCORE.INTER.SOLV>
20.7931

>  <SCORE.INTER.VDW>
-24.3635

>  <SCORE.INTER.norm>
-0.50921

>  <SCORE.INTRA>
-10.7729

>  <SCORE.INTRA.DIHEDRAL>
-8.74339

>  <SCORE.INTRA.DIHEDRAL.0>
15.0182

>  <SCORE.INTRA.POLAR>
0

>  <SCORE.INTRA.POLAR.0>
0

>  <SCORE.INTRA.REPUL>
0

>  <SCORE.INTRA.REPUL.0>
0

>  <SCORE.INTRA.SOLV>
-0.0495573

>  <SCORE.INTRA.SOLV.lig_0>
-47.9129

>  <SCORE.INTRA.VDW>
-6.3764

>  <SCORE.INTRA.VDW.0>
2.00851

>  <SCORE.INTRA.norm>
-0.398995

>  <SCORE.RESTR>
0

>  <SCORE.RESTR.CAVITY>
0

>  <SCORE.RESTR.norm>
0

>  <SCORE.SYSTEM>
0

>  <SCORE.SYSTEM.CONST>
0

>  <SCORE.SYSTEM.DIHEDRAL>
0

>  <SCORE.SYSTEM.SOLV>
0

>  <SCORE.SYSTEM.norm>
0

>  <SCORE.heavy>
27

>  <SCORE.norm>
-0.908206

>  <RMSD>
1.038

$$$$
ligand
 OpenBabel11021811483D
libRbt.so/2013.1/901 2013/11/27
 27 29  0  0  0  0  0  0  0  0999 V2000
  -11.8606   -5.9599   29.0170 N   0  0  0  0  0  0  0  0  0  0  0  0
  -12.7578   -5.6256   27.9142 C   0  0  2  0  0  0  0  0  0  0  0  0
  -13.8836   -4.6953   28.3582 C   0  0  0  0  0  0  0  0  0  0  0  0
  -13.9252   -3.5216   27.9827 O   0  0  0  0  0  0  0  0  0  0  0  0
  -13.3071   -6.8884   27.2570 C   0  0  0  0  0  0  0  0  0  0  0  0
  -14.1352   -7.7470   28.2004 C   0  0  0  0  0  0  0  0  0  0  0  0
  -13.1462   -8.7181   29.3646 S   0  0  2  0  0  0  0  0  0  0  0  0
  -13.4263  -10.3866   28.7209 C   0  0  0  0  0  0  0  0  0  0  0  0
  -14.2261   -8.7139   30.8214 C   0  0  0  0  0  0  0  0  0  0  0  0
  -13.4387   -8.2322   32.0315 C   0  0  1  0  0  0  0  0  0  0  0  0
  -13.0659   -6.8925   31.8125 O   0  0  0  0  0  0  0  0  0  0  0  0
  -14.1995   -8.2063   33.3439 C   0  0  1  0  0  0  0  0  0  0  0  0
  -13.9563   -9.3776   34.0906 O   0  0  0  0  0  0  0  0  0  0  0  0
  -13.6122   -7.0045   34.0559 C   0  0  1  0  0  0  0  0  0  0  0  0
  -12.7608   -7.4643   35.0765 O   0  0  0  0  0  0  0  0  0  0  0  0
  -12.7988   -6.2344   33.0244 C   0  0  2  0  0  0  0  0  0  0  0  0
  -14.7724   -5.1006   29.1075 O   0  0  0  0  0  0  0  0  0  0  0  0
  -16.7491   -3.0979   31.4970 N   0  0  0  0  0  0  0  0  0  0  0  0
  -16.6580   -4.4710   31.3814 C   0  0  0  0  0  0  0  0  0  0  0  0
  -15.5390   -5.1425   31.8364 N   0  0  0  0  0  0  0  0  0  0  0  0
  -14.5135   -4.4595   32.3984 C   0  0  0  0  0  0  0  0  0  0  0  0
  -14.5911   -3.0786   32.5309 C   0  0  0  0  0  0  0  0  0  0  0  0
  -15.7121   -2.3968   32.0733 C   0  0  0  0  0  0  0  0  0  0  0  0
  -15.7821   -1.0731   32.1917 N   0  0  0  0  0  0  0  0  0  0  0  0
  -13.4538   -2.6547   33.1230 N   0  0  0  0  0  0  0  0  0  0  0  0
  -12.6731   -3.7301   33.3813 C   0  0  0  0  0  0  0  0  0  0  0  0
  -13.3138   -4.8575   32.9395 N   0  0  0  0  0  0  0  0  0  0  0  0
  2  1  1  1  0  0  0
  2  3  1  0  0  0  0
  2  5  1  0  0  0  0
  3  4  1  0  0  0  0
  3 17  1  0  0  0  0
  5  6  1  0  0  0  0
  7  6  1  6  0  0  0
  7  8  1  0  0  0  0
  7  9  1  0  0  0  0
 10  9  1  6  0  0  0
 10 11  1  0  0  0  0
 10 12  1  0  0  0  0
 11 16  1  0  0  0  0
 12 13  1  1  0  0  0
 12 14  1  0  0  0  0
 14 15  1  1  0  0  0
 14 16  1  0  0  0  0
 16 27  1  6  0  0  0
 18 19  2  0  0  0  0
 18 23  1  0  0  0  0
 19 20  1  0  0  0  0
 20 21  2  0  0  0  0
 21 22  1  0  0  0  0
 21 27  1  0  0  0  0
 22 23  2  0  0  0  0
 22 25  1  0  0  0  0
 23 24  1  0  0  0  0
 25 26  2  0  0  0  0
 26 27  1  0  0  0  0
M  END
>  <CHROM.1>
110.32538464,61.86458347,-76.93520493,-110.21390089,-127.29299936,64.55953068
42.13190661,-13.94796816,-5.97851034,31.13339301,0.35015818,1.30052112,-1.49723632

>  <Name>
ligand

>  <RI>
0

>  <Rbt.Current_Directory>
/home/itssahil/PROJECTS/Mol_Feturizer/New_Systems/rnas/3GX6

>  <Rbt.Executable>
rbdock ($Id: //depot/dev/client3/rdock/2013.1/src/exe/rbdock.cxx#4 $)

>  <Rbt.Library>
libRbt.so (2013.1, Build901 2013/11/27)

>  <Rbt.Parameter_File>
/export/apps/rDock/src/rDock_2013.1_src/data/scripts/dock_solv.prm

>  <Rbt.Receptor>
prm/pocket_docking_2.prm

>  <SCORE>
-17.0497

>  <SCORE.INTER>
-10.0685

>  <SCORE.INTER.CONST>
1

>  <SCORE.INTER.POLAR>
0

>  <SCORE.INTER.ROT>
7

>  <SCORE.INTER.SOLV>
17.596

>  <SCORE.INTER.VDW>
-20.8444

>  <SCORE.INTER.norm>
-0.372908

>  <SCORE.INTRA>
-7.02808

>  <SCORE.INTRA.DIHEDRAL>
-2.9031

>  <SCORE.INTRA.DIHEDRAL.0>
15.0182

>  <SCORE.INTRA.POLAR>
0

>  <SCORE.INTRA.POLAR.0>
0

>  <SCORE.INTRA.REPUL>
0

>  <SCORE.INTRA.REPUL.0>
0

>  <SCORE.INTRA.SOLV>
1.89126

>  <SCORE.INTRA.SOLV.lig_0>
-47.9129

>  <SCORE.INTRA.VDW>
-6.52216

>  <SCORE.INTRA.VDW.0>
2.00851

>  <SCORE.INTRA.norm>
-0.260299

>  <SCORE.RESTR>
0.0468595

>  <SCORE.RESTR.CAVITY>
0.0468595

>  <SCORE.RESTR.norm>
0.00173554

>  <SCORE.SYSTEM>
0

>  <SCORE.SYSTEM.CONST>
0

>  <SCORE.SYSTEM.DIHEDRAL>
0

>  <SCORE.SYSTEM.SOLV>
0

>  <SCORE.SYSTEM.norm>
0

>  <SCORE.heavy>
27

>  <SCORE.norm>
-0.631472

>  <RMSD>
1.070

$$$$
ligand
 OpenBabel11021811483D
libRbt.so/2013.1/901 2013/11/27
 27 29  0  0  0  0  0  0  0  0999 V2000
  -11.8955   -6.2490   28.1908 N   0  0  0  0  0  0  0  0  0  0  0  0
  -13.1317   -5.9370   27.4785 C   0  0  2  0  0  0  0  0  0  0  0  0
  -13.7539   -4.6303   27.9636 C   0  0  0  0  0  0  0  0  0  0  0  0
  -14.5686   -4.0169   27.2705 O   0  0  0  0  0  0  0  0  0  0  0  0
  -14.1223   -7.0935   27.5744 C   0  0  0  0  0  0  0  0  0  0  0  0
  -14.5250   -7.4248   29.0031 C   0  0  0  0  0  0  0  0  0  0  0  0
  -13.4750   -8.6723   29.7888 S   0  0  2  0  0  0  0  0  0  0  0  0
  -13.9590  -10.1447   28.8536 C   0  0  0  0  0  0  0  0  0  0  0  0
  -14.3611   -8.9358   31.3489 C   0  0  0  0  0  0  0  0  0  0  0  0
  -13.5325   -8.3825   32.4994 C   0  0  1  0  0  0  0  0  0  0  0  0
  -13.1658   -7.0602   32.1851 O   0  0  0  0  0  0  0  0  0  0  0  0
  -14.2481   -8.2727   33.8327 C   0  0  1  0  0  0  0  0  0  0  0  0
  -13.9810   -9.3963   34.6420 O   0  0  0  0  0  0  0  0  0  0  0  0
  -13.6355   -7.0311   34.4483 C   0  0  1  0  0  0  0  0  0  0  0  0
  -12.7504   -7.4295   35.4660 O   0  0  0  0  0  0  0  0  0  0  0  0
  -12.8568   -6.3292   33.3440 C   0  0  2  0  0  0  0  0  0  0  0  0
  -13.4482   -4.1597   29.0594 O   0  0  0  0  0  0  0  0  0  0  0  0
  -16.6717   -3.2513   31.4078 N   0  0  0  0  0  0  0  0  0  0  0  0
  -16.5590   -4.6249   31.3211 C   0  0  0  0  0  0  0  0  0  0  0  0
  -15.4821   -5.2795   31.8887 N   0  0  0  0  0  0  0  0  0  0  0  0
  -14.5195   -4.5792   32.5343 C   0  0  0  0  0  0  0  0  0  0  0  0
  -14.6204   -3.1974   32.6391 C   0  0  0  0  0  0  0  0  0  0  0  0
  -15.6991   -2.5327   32.0685 C   0  0  0  0  0  0  0  0  0  0  0  0
  -15.7906   -1.2082   32.1607 N   0  0  0  0  0  0  0  0  0  0  0  0
  -13.5472   -2.7548   33.3289 N   0  0  0  0  0  0  0  0  0  0  0  0
  -12.7855   -3.8191   33.6748 C   0  0  0  0  0  0  0  0  0  0  0  0
  -13.3728   -4.9584   33.1913 N   0  0  0  0  0  0  0  0  0  0  0  0
  2  1  1  1  0  0  0
  2  3  1  0  0  0  0
  2  5  1  0  0  0  0
  3  4  1  0  0  0  0
  3 17  1  0  0  0  0
  5  6  1  0  0  0  0
  7  6  1  6  0  0  0
  7  8  1  0  0  0  0
  7  9  1  0  0  0  0
 10  9  1  6  0  0  0
 10 11  1  0  0  0  0
 10 12  1  0  0  0  0
 11 16  1  0  0  0  0
 12 13  1  1  0  0  0
 12 14  1  0  0  0  0
 14 15  1  1  0  0  0
 14 16  1  0  0  0  0
 16 27  1  6  0  0  0
 18 19  2  0  0  0  0
 18 23  1  0  0  0  0
 19 20  1  0  0  0  0
 20 21  2  0  0  0  0
 21 22  1  0  0  0  0
 21 27  1  0  0  0  0
 22 23  2  0  0  0  0
 22 25  1  0  0  0  0
 23 24  1  0  0  0  0
 25 26  2  0  0  0  0
 26 27  1  0  0  0  0
M  END
>  <CHROM.1>
160.10674595,60.53249524,-90.88531201,-69.79631566,-110.89859999,51.29220723
34.27615680,-14.03965554,-6.02865652,31.28308442,0.83480370,1.34212553,-1.59195118

>  <Name>
ligand

>  <RI>
0

>  <Rbt.Current_Directory>
/home/itssahil/PROJECTS/Mol_Feturizer/New_Systems/rnas/3GX6

>  <Rbt.Executable>
rbdock ($Id: //depot/dev/client3/rdock/2013.1/src/exe/rbdock.cxx#4 $)

>  <Rbt.Library>
libRbt.so (2013.1, Build901 2013/11/27)

>  <Rbt.Parameter_File>
/export/apps/rDock/src/rDock_2013.1_src/data/scripts/dock_solv.prm

>  <Rbt.Receptor>
prm/pocket_docking_2.prm

>  <SCORE>
-20.6162

>  <SCORE.INTER>
-12.2401

>  <SCORE.INTER.CONST>
1

>  <SCORE.INTER.POLAR>
0

>  <SCORE.INTER.ROT>
7

>  <SCORE.INTER.SOLV>
16.9012

>  <SCORE.INTER.VDW>
-22.0604

>  <SCORE.INTER.norm>
-0.453335

>  <SCORE.INTRA>
-8.38062

>  <SCORE.INTRA.DIHEDRAL>
-5.16558

>  <SCORE.INTRA.DIHEDRAL.0>
15.0182

>  <SCORE.INTRA.POLAR>
0

>  <SCORE.INTRA.POLAR.0>
0

>  <SCORE.INTRA.REPUL>
0

>  <SCORE.INTRA.REPUL.0>
0

>  <SCORE.INTRA.SOLV>
0.179224

>  <SCORE.INTRA.SOLV.lig_0>
-47.9129

>  <SCORE.INTRA.VDW>
-5.88745

>  <SCORE.INTRA.VDW.0>
2.00851

>  <SCORE.INTRA.norm>
-0.310393

>  <SCORE.RESTR>
0.00447678

>  <SCORE.RESTR.CAVITY>
0.00447678

>  <SCORE.RESTR.norm>
0.000165807

>  <SCORE.SYSTEM>
0

>  <SCORE.SYSTEM.CONST>
0

>  <SCORE.SYSTEM.DIHEDRAL>
0

>  <SCORE.SYSTEM.SOLV>
0

>  <SCORE.SYSTEM.norm>
0

>  <SCORE.heavy>
27

>  <SCORE.norm>
-0.763563

>  <RMSD>
1.071

$$$$
ligand
 OpenBabel11021811483D
libRbt.so/2013.1/901 2013/11/27
 27 29  0  0  0  0  0  0  0  0999 V2000
  -12.7182   -5.9802   28.1404 N   0  0  0  0  0  0  0  0  0  0  0  0
  -13.9486   -5.8525   27.3641 C   0  0  2  0  0  0  0  0  0  0  0  0
  -14.4662   -4.4166   27.3498 C   0  0  0  0  0  0  0  0  0  0  0  0
  -13.9492   -3.5462   28.0538 O   0  0  0  0  0  0  0  0  0  0  0  0
  -15.0135   -6.8221   27.8678 C   0  0  0  0  0  0  0  0  0  0  0  0
  -14.5512   -8.2709   27.8810 C   0  0  0  0  0  0  0  0  0  0  0  0
  -13.2783   -8.6217   29.1191 S   0  0  2  0  0  0  0  0  0  0  0  0
  -12.9655  -10.3723   28.7811 C   0  0  0  0  0  0  0  0  0  0  0  0
  -14.2820   -8.7250   30.6258 C   0  0  0  0  0  0  0  0  0  0  0  0
  -13.4285   -8.3456   31.8275 C   0  0  1  0  0  0  0  0  0  0  0  0
  -12.9697   -7.0271   31.6461 O   0  0  0  0  0  0  0  0  0  0  0  0
  -14.1475   -8.3184   33.1632 C   0  0  1  0  0  0  0  0  0  0  0  0
  -13.9651   -9.5317   33.8584 O   0  0  0  0  0  0  0  0  0  0  0  0
  -13.4576   -7.1882   33.8999 C   0  0  1  0  0  0  0  0  0  0  0  0
  -12.6114   -7.7444   34.8757 O   0  0  0  0  0  0  0  0  0  0  0  0
  -12.6226   -6.4363   32.8723 C   0  0  2  0  0  0  0  0  0  0  0  0
  -15.4177   -4.1007   26.6353 O   0  0  0  0  0  0  0  0  0  0  0  0
  -16.3225   -2.9621   31.4523 N   0  0  0  0  0  0  0  0  0  0  0  0
  -16.3210   -4.3301   31.2634 C   0  0  0  0  0  0  0  0  0  0  0  0
  -15.2588   -5.0992   31.6998 N   0  0  0  0  0  0  0  0  0  0  0  0
  -14.2017   -4.5183   32.3154 C   0  0  0  0  0  0  0  0  0  0  0  0
  -14.1895   -3.1444   32.5219 C   0  0  0  0  0  0  0  0  0  0  0  0
  -15.2529   -2.3647   32.0833 C   0  0  0  0  0  0  0  0  0  0  0  0
  -15.2367   -1.0475   32.2727 N   0  0  0  0  0  0  0  0  0  0  0  0
  -13.0388   -2.8308   33.1552 N   0  0  0  0  0  0  0  0  0  0  0  0
  -12.3372   -3.9689   33.3675 C   0  0  0  0  0  0  0  0  0  0  0  0
  -13.0426   -5.0250   32.8541 N   0  0  0  0  0  0  0  0  0  0  0  0
  2  1  1  1  0  0  0
  2  3  1  0  0  0  0
  2  5  1  0  0  0  0
  3  4  1  0  0  0  0
  3 17  1  0  0  0  0
  5  6  1  0  0  0  0
  7  6  1  6  0  0  0
  7  8  1  0  0  0  0
  7  9  1  0  0  0  0
 10  9  1  6  0  0  0
 10 11  1  0  0  0  0
 10 12  1  0  0  0  0
 11 16  1  0  0  0  0
 12 13  1  1  0  0  0
 12 14  1  0  0  0  0
 14 15  1  1  0  0  0
 14 16  1  0  0  0  0
 16 27  1  6  0  0  0
 18 19  2  0  0  0  0
 18 23  1  0  0  0  0
 19 20  1  0  0  0  0
 20 21  2  0  0  0  0
 21 22  1  0  0  0  0
 21 27  1  0  0  0  0
 22 23  2  0  0  0  0
 22 25  1  0  0  0  0
 23 24  1  0  0  0  0
 25 26  2  0  0  0  0
 26 27  1  0  0  0  0
M  END
>  <CHROM.1>
-7.55792303,-55.53310943,68.92150230,-178.01234995,-152.70014864,60.20539167
39.18288996,-13.98602574,-6.00117675,30.88000879,0.90223212,1.30922395,-2.10749667

>  <Name>
ligand

>  <RI>
0

>  <Rbt.Current_Directory>
/home/itssahil/PROJECTS/Mol_Feturizer/New_Systems/rnas/3GX6

>  <Rbt.Executable>
rbdock ($Id: //depot/dev/client3/rdock/2013.1/src/exe/rbdock.cxx#4 $)

>  <Rbt.Library>
libRbt.so (2013.1, Build901 2013/11/27)

>  <Rbt.Parameter_File>
/export/apps/rDock/src/rDock_2013.1_src/data/scripts/dock_solv.prm

>  <Rbt.Receptor>
prm/pocket_docking_2.prm

>  <SCORE>
-19.1462

>  <SCORE.INTER>
-10.2378

>  <SCORE.INTER.CONST>
1

>  <SCORE.INTER.POLAR>
0

>  <SCORE.INTER.ROT>
7

>  <SCORE.INTER.SOLV>
17.4815

>  <SCORE.INTER.VDW>
-20.919

>  <SCORE.INTER.norm>
-0.379177

>  <SCORE.INTRA>
-8.91606

>  <SCORE.INTRA.DIHEDRAL>
-8.34907

>  <SCORE.INTRA.DIHEDRAL.0>
15.0182

>  <SCORE.INTRA.POLAR>
0

>  <SCORE.INTRA.POLAR.0>
0

>  <SCORE.INTRA.REPUL>
0

>  <SCORE.INTRA.REPUL.0>
0

>  <SCORE.INTRA.SOLV>
1.45296

>  <SCORE.INTRA.SOLV.lig_0>
-47.9129

>  <SCORE.INTRA.VDW>
-5.468

>  <SCORE.INTRA.VDW.0>
2.00851

>  <SCORE.INTRA.norm>
-0.330224

>  <SCORE.RESTR>
0.00760943

>  <SCORE.RESTR.CAVITY>
0.00760943

>  <SCORE.RESTR.norm>
0.000281831

>  <SCORE.SYSTEM>
0

>  <SCORE.SYSTEM.CONST>
0

>  <SCORE.SYSTEM.DIHEDRAL>
0

>  <SCORE.SYSTEM.SOLV>
0

>  <SCORE.SYSTEM.norm>
0

>  <SCORE.heavy>
27

>  <SCORE.norm>
-0.70912

>  <RMSD>
1.093

$$$$
ligand
 OpenBabel11021811483D
libRbt.so/2013.1/901 2013/11/27
 27 29  0  0  0  0  0  0  0  0999 V2000
  -15.4205   -4.8757   28.4905 N   0  0  0  0  0  0  0  0  0  0  0  0
  -14.1503   -5.5904   28.3973 C   0  0  2  0  0  0  0  0  0  0  0  0
  -13.9989   -6.3102   27.0598 C   0  0  0  0  0  0  0  0  0  0  0  0
  -14.9601   -6.8656   26.5230 O   0  0  0  0  0  0  0  0  0  0  0  0
  -13.9799   -6.5529   29.5688 C   0  0  0  0  0  0  0  0  0  0  0  0
  -12.5600   -7.0777   29.7157 C   0  0  0  0  0  0  0  0  0  0  0  0
  -12.4690   -8.7919   30.2897 S   0  0  2  0  0  0  0  0  0  0  0  0
  -13.2898   -9.6413   28.9180 C   0  0  0  0  0  0  0  0  0  0  0  0
  -13.7755   -8.8042   31.5473 C   0  0  0  0  0  0  0  0  0  0  0  0
  -13.2341   -8.2167   32.8427 C   0  0  1  0  0  0  0  0  0  0  0  0
  -12.8176   -6.8960   32.5900 O   0  0  0  0  0  0  0  0  0  0  0  0
  -14.2343   -8.0904   33.9766 C   0  0  1  0  0  0  0  0  0  0  0  0
  -14.1475   -9.1938   34.8504 O   0  0  0  0  0  0  0  0  0  0  0  0
  -13.7883   -6.8284   34.6868 C   0  0  1  0  0  0  0  0  0  0  0  0
  -13.1534   -7.1942   35.8872 O   0  0  0  0  0  0  0  0  0  0  0  0
  -12.7860   -6.1378   33.7720 C   0  0  2  0  0  0  0  0  0  0  0  0
  -12.9074   -6.3541   26.4921 O   0  0  0  0  0  0  0  0  0  0  0  0
  -16.6746   -3.1727   31.8068 N   0  0  0  0  0  0  0  0  0  0  0  0
  -16.6208   -4.5488   31.9087 C   0  0  0  0  0  0  0  0  0  0  0  0
  -15.5132   -5.1710   32.4532 N   0  0  0  0  0  0  0  0  0  0  0  0
  -14.4626   -4.4367   32.8901 C   0  0  0  0  0  0  0  0  0  0  0  0
  -14.5025   -3.0506   32.8036 C   0  0  0  0  0  0  0  0  0  0  0  0
  -15.6117   -2.4186   32.2549 C   0  0  0  0  0  0  0  0  0  0  0  0
  -15.6456   -1.0914   32.1633 N   0  0  0  0  0  0  0  0  0  0  0  0
  -13.3463   -2.5705   33.3100 N   0  0  0  0  0  0  0  0  0  0  0  0
  -12.5903   -3.6130   33.7274 C   0  0  0  0  0  0  0  0  0  0  0  0
  -13.2662   -4.7777   33.4756 N   0  0  0  0  0  0  0  0  0  0  0  0
  2  1  1  6  0  0  0
  2  3  1  0  0  0  0
  2  5  1  0  0  0  0
  3  4  1  0  0  0  0
  3 17  1  0  0  0  0
  5  6  1  0  0  0  0
  7  6  1  6  0  0  0
  7  8  1  0  0  0  0
  7  9  1  0  0  0  0
 10  9  1  6  0  0  0
 10 11  1  0  0  0  0
 10 12  1  0  0  0  0
 11 16  1  0  0  0  0
 12 13  1  1  0  0  0
 12 14  1  0  0  0  0
 14 15  1  1  0  0  0
 14 16  1  0  0  0  0
 16 27  1  6  0  0  0
 18 19  2  0  0  0  0
 18 23  1  0  0  0  0
 19 20  1  0  0  0  0
 20 21  2  0  0  0  0
 21 22  1  0  0  0  0
 21 27  1  0  0  0  0
 22 23  2  0  0  0  0
 22 25  1  0  0  0  0
 23 24  1  0  0  0  0
 25 26  2  0  0  0  0
 26 27  1  0  0  0  0
M  END
>  <CHROM.1>
-38.42794140,-166.29534085,-144.81883382,63.03459861,-81.26037094,59.96674672
54.84206951,-13.97058085,-6.08549542,31.47532744,1.29066908,1.21970339,-1.74812817

>  <Name>
ligand

>  <RI>
0

>  <Rbt.Current_Directory>
/home/itssahil/PROJECTS/Mol_Feturizer/New_Systems/rnas/3GX6

>  <Rbt.Executable>
rbdock ($Id: //depot/dev/client3/rdock/2013.1/src/exe/rbdock.cxx#4 $)

>  <Rbt.Library>
libRbt.so (2013.1, Build901 2013/11/27)

>  <Rbt.Parameter_File>
/export/apps/rDock/src/rDock_2013.1_src/data/scripts/dock_solv.prm

>  <Rbt.Receptor>
prm/pocket_docking_2.prm

>  <SCORE>
-23.3054

>  <SCORE.INTER>
-14.1015

>  <SCORE.INTER.CONST>
1

>  <SCORE.INTER.POLAR>
0

>  <SCORE.INTER.ROT>
7

>  <SCORE.INTER.SOLV>
15.2947

>  <SCORE.INTER.VDW>
-22.7659

>  <SCORE.INTER.norm>
-0.522279

>  <SCORE.INTRA>
-9.20642

>  <SCORE.INTRA.DIHEDRAL>
-6.83203

>  <SCORE.INTRA.DIHEDRAL.0>
15.0182

>  <SCORE.INTRA.POLAR>
0

>  <SCORE.INTRA.POLAR.0>
0

>  <SCORE.INTRA.REPUL>
0

>  <SCORE.INTRA.REPUL.0>
0

>  <SCORE.INTRA.SOLV>
-1.32867

>  <SCORE.INTRA.SOLV.lig_0>
-47.9129

>  <SCORE.INTRA.VDW>
-5.12607

>  <SCORE.INTRA.VDW.0>
2.00851

>  <SCORE.INTRA.norm>
-0.340978

>  <SCORE.RESTR>
0.00256833

>  <SCORE.RESTR.CAVITY>
0.00256833

>  <SCORE.RESTR.norm>
9.51232e-05

>  <SCORE.SYSTEM>
0

>  <SCORE.SYSTEM.CONST>
0

>  <SCORE.SYSTEM.DIHEDRAL>
0

>  <SCORE.SYSTEM.SOLV>
0

>  <SCORE.SYSTEM.norm>
0

>  <SCORE.heavy>
27

>  <SCORE.norm>
-0.863163

>  <RMSD>
1.100

$$$$
ligand
 OpenBabel11021811483D
libRbt.so/2013.1/901 2013/11/27
 27 29  0  0  0  0  0  0  0  0999 V2000
  -16.4810   -5.6574   28.2088 N   0  0  0  0  0  0  0  0  0  0  0  0
  -15.0809   -5.3899   27.8909 C   0  0  2  0  0  0  0  0  0  0  0  0
  -14.8908   -5.0234   26.4214 C   0  0  0  0  0  0  0  0  0  0  0  0
  -15.1785   -3.8997   26.0029 O   0  0  0  0  0  0  0  0  0  0  0  0
  -14.1975   -6.5687   28.2883 C   0  0  0  0  0  0  0  0  0  0  0  0
  -14.2994   -6.9278   29.7627 C   0  0  0  0  0  0  0  0  0  0  0  0
  -13.4220   -8.4469   30.2084 S   0  0  2  0  0  0  0  0  0  0  0  0
  -14.1960   -9.6197   29.0673 C   0  0  0  0  0  0  0  0  0  0  0  0
  -14.2429   -8.8744   31.7677 C   0  0  0  0  0  0  0  0  0  0  0  0
  -13.4582   -8.2827   32.9298 C   0  0  1  0  0  0  0  0  0  0  0  0
  -13.0251   -6.9949   32.5615 O   0  0  0  0  0  0  0  0  0  0  0  0
  -14.2410   -8.0693   34.2118 C   0  0  1  0  0  0  0  0  0  0  0  0
  -14.0612   -9.1513   35.0981 O   0  0  0  0  0  0  0  0  0  0  0  0
  -13.6165   -6.8152   34.7889 C   0  0  1  0  0  0  0  0  0  0  0  0
  -12.8041   -7.1827   35.8765 O   0  0  0  0  0  0  0  0  0  0  0  0
  -12.7526   -6.2074   33.6922 C   0  0  2  0  0  0  0  0  0  0  0  0
  -14.4494   -5.8489   25.6218 O   0  0  0  0  0  0  0  0  0  0  0  0
  -16.6316   -3.1145   31.9138 N   0  0  0  0  0  0  0  0  0  0  0  0
  -16.6106   -4.4928   31.9956 C   0  0  0  0  0  0  0  0  0  0  0  0
  -15.5004   -5.1513   32.4897 N   0  0  0  0  0  0  0  0  0  0  0  0
  -14.4151   -4.4509   32.8964 C   0  0  0  0  0  0  0  0  0  0  0  0
  -14.4213   -3.0631   32.8297 C   0  0  0  0  0  0  0  0  0  0  0  0
  -15.5331   -2.3948   32.3314 C   0  0  0  0  0  0  0  0  0  0  0  0
  -15.5351   -1.0660   32.2586 N   0  0  0  0  0  0  0  0  0  0  0  0
  -13.2348   -2.6205   33.2985 N   0  0  0  0  0  0  0  0  0  0  0  0
  -12.4917   -3.6882   33.6734 C   0  0  0  0  0  0  0  0  0  0  0  0
  -13.2072   -4.8311   33.4320 N   0  0  0  0  0  0  0  0  0  0  0  0
  2  1  1  6  0  0  0
  2  3  1  0  0  0  0
  2  5  1  0  0  0  0
  3  4  1  0  0  0  0
  3 17  1  0  0  0  0
  5  6  1  0  0  0  0
  7  6  1  6  0  0  0
  7  8  1  0  0  0  0
  7  9  1  0  0  0  0
 10  9  1  6  0  0  0
 10 11  1  0  0  0  0
 10 12  1  0  0  0  0
 11 16  1  0  0  0  0
 12 13  1  1  0  0  0
 12 14  1  0  0  0  0
 14 15  1  1  0  0  0
 14 16  1  0  0  0  0
 16 27  1  6  0  0  0
 18 19  2  0  0  0  0
 18 23  1  0  0  0  0
 19 20  1  0  0  0  0
 20 21  2  0  0  0  0
 21 22  1  0  0  0  0
 21 27  1  0  0  0  0
 22 23  2  0  0  0  0
 22 25  1  0  0  0  0
 23 24  1  0  0  0  0
 25 26  2  0  0  0  0
 26 27  1  0  0  0  0
M  END
>  <CHROM.1>
77.23863474,-57.57214126,172.74365664,-56.01945763,-93.01301266,40.18515271
46.55368184,-14.30922603,-5.89943258,31.36536743,2.33783030,1.28761486,-2.18054803

>  <Name>
ligand

>  <RI>
0

>  <Rbt.Current_Directory>
/home/itssahil/PROJECTS/Mol_Feturizer/New_Systems/rnas/3GX6

>  <Rbt.Executable>
rbdock ($Id: //depot/dev/client3/rdock/2013.1/src/exe/rbdock.cxx#4 $)

>  <Rbt.Library>
libRbt.so (2013.1, Build901 2013/11/27)

>  <Rbt.Parameter_File>
/export/apps/rDock/src/rDock_2013.1_src/data/scripts/dock_solv.prm

>  <Rbt.Receptor>
prm/pocket_docking_2.prm

>  <SCORE>
-22.5715

>  <SCORE.INTER>
-14.0967

>  <SCORE.INTER.CONST>
1

>  <SCORE.INTER.POLAR>
0

>  <SCORE.INTER.ROT>
7

>  <SCORE.INTER.SOLV>
16.9162

>  <SCORE.INTER.VDW>
-23.3032

>  <SCORE.INTER.norm>
-0.522099

>  <SCORE.INTRA>
-8.70634

>  <SCORE.INTRA.DIHEDRAL>
-8.36091

>  <SCORE.INTRA.DIHEDRAL.0>
15.0182

>  <SCORE.INTRA.POLAR>
0

>  <SCORE.INTRA.POLAR.0>
0

>  <SCORE.INTRA.REPUL>
0

>  <SCORE.INTRA.REPUL.0>
0

>  <SCORE.INTRA.SOLV>
-0.87415

>  <SCORE.INTRA.SOLV.lig_0>
-47.9129

>  <SCORE.INTRA.VDW>
-4.08881

>  <SCORE.INTRA.VDW.0>
2.00851

>  <SCORE.INTRA.norm>
-0.322457

>  <SCORE.RESTR>
0.23151

>  <SCORE.RESTR.CAVITY>
0.23151

>  <SCORE.RESTR.norm>
0.00857444

>  <SCORE.SYSTEM>
0

>  <SCORE.SYSTEM.CONST>
0

>  <SCORE.SYSTEM.DIHEDRAL>
0

>  <SCORE.SYSTEM.SOLV>
0

>  <SCORE.SYSTEM.norm>
0

>  <SCORE.heavy>
27

>  <SCORE.norm>
-0.835982

>  <RMSD>
1.121

$$$$
ligand
 OpenBabel11021811483D
libRbt.so/2013.1/901 2013/11/27
 27 29  0  0  0  0  0  0  0  0999 V2000
  -14.0771   -6.5161   26.2882 N   0  0  0  0  0  0  0  0  0  0  0  0
  -14.9210   -6.2530   27.4507 C   0  0  2  0  0  0  0  0  0  0  0  0
  -14.8559   -4.7903   27.8822 C   0  0  0  0  0  0  0  0  0  0  0  0
  -15.8822   -4.1216   28.0234 O   0  0  0  0  0  0  0  0  0  0  0  0
  -14.5678   -7.1886   28.6030 C   0  0  0  0  0  0  0  0  0  0  0  0
  -13.1015   -7.1259   29.0021 C   0  0  0  0  0  0  0  0  0  0  0  0
  -12.5336   -8.5713   29.9318 S   0  0  2  0  0  0  0  0  0  0  0  0
  -13.0580   -9.9019   28.8222 C   0  0  0  0  0  0  0  0  0  0  0  0
  -13.8003   -8.6684   31.2258 C   0  0  0  0  0  0  0  0  0  0  0  0
  -13.2184   -8.1677   32.5400 C   0  0  1  0  0  0  0  0  0  0  0  0
  -12.7262   -6.8643   32.3382 O   0  0  0  0  0  0  0  0  0  0  0  0
  -14.2033   -8.0298   33.6858 C   0  0  1  0  0  0  0  0  0  0  0  0
  -14.1769   -9.1716   34.5131 O   0  0  0  0  0  0  0  0  0  0  0  0
  -13.6800   -6.8265   34.4435 C   0  0  1  0  0  0  0  0  0  0  0  0
  -13.0613   -7.2781   35.6230 O   0  0  0  0  0  0  0  0  0  0  0  0
  -12.6436   -6.1587   33.5499 C   0  0  2  0  0  0  0  0  0  0  0  0
  -13.7714   -4.2472   28.0931 O   0  0  0  0  0  0  0  0  0  0  0  0
  -15.8355   -2.8766   30.9392 N   0  0  0  0  0  0  0  0  0  0  0  0
  -15.7831   -4.2545   30.8628 C   0  0  0  0  0  0  0  0  0  0  0  0
  -14.8745   -4.9670   31.6224 N   0  0  0  0  0  0  0  0  0  0  0  0
  -14.0192   -4.3203   32.4496 C   0  0  0  0  0  0  0  0  0  0  0  0
  -14.0631   -2.9350   32.5460 C   0  0  0  0  0  0  0  0  0  0  0  0
  -14.9722   -2.2122   31.7832 C   0  0  0  0  0  0  0  0  0  0  0  0
  -15.0076   -0.8846   31.8686 N   0  0  0  0  0  0  0  0  0  0  0  0
  -13.1220   -2.5516   33.4355 N   0  0  0  0  0  0  0  0  0  0  0  0
  -12.5013   -3.6561   33.9125 C   0  0  0  0  0  0  0  0  0  0  0  0
  -13.0445   -4.7617   33.3131 N   0  0  0  0  0  0  0  0  0  0  0  0
  2  1  1  6  0  0  0
  2  3  1  0  0  0  0
  2  5  1  0  0  0  0
  3  4  1  0  0  0  0
  3 17  1  0  0  0  0
  5  6  1  0  0  0  0
  7  6  1  6  0  0  0
  7  8  1  0  0  0  0
  7  9  1  0  0  0  0
 10  9  1  6  0  0  0
 10 11  1  0  0  0  0
 10 12  1  0  0  0  0
 11 16  1  0  0  0  0
 12 13  1  1  0  0  0
 12 14  1  0  0  0  0
 14 15  1  1  0  0  0
 14 16  1  0  0  0  0
 16 27  1  6  0  0  0
 18 19  2  0  0  0  0
 18 23  1  0  0  0  0
 19 20  1  0  0  0  0
 20 21  2  0  0  0  0
 21 22  1  0  0  0  0
 21 27  1  0  0  0  0
 22 23  2  0  0  0  0
 22 25  1  0  0  0  0
 23 24  1  0  0  0  0
 25 26  2  0  0  0  0
 26 27  1  0  0  0  0
M  END
>  <CHROM.1>
126.91623086,55.79789356,-160.18829049,52.80217413,-104.86968614,56.03486035
35.84142094,-13.90199343,-5.88286404,31.20657633,-2.09590687,-1.28891154
1.00782140

>  <Name>
ligand

>  <RI>
0

>  <Rbt.Current_Directory>
/home/itssahil/PROJECTS/Mol_Feturizer/New_Systems/rnas/3GX6

>  <Rbt.Executable>
rbdock ($Id: //depot/dev/client3/rdock/2013.1/src/exe/rbdock.cxx#4 $)

>  <Rbt.Library>
libRbt.so (2013.1, Build901 2013/11/27)

>  <Rbt.Parameter_File>
/export/apps/rDock/src/rDock_2013.1_src/data/scripts/dock_solv.prm

>  <Rbt.Receptor>
prm/pocket_docking_2.prm

>  <SCORE>
-21.121

>  <SCORE.INTER>
-12.0108

>  <SCORE.INTER.CONST>
1

>  <SCORE.INTER.POLAR>
0

>  <SCORE.INTER.ROT>
7

>  <SCORE.INTER.SOLV>
17.8672

>  <SCORE.INTER.VDW>
-22.2296

>  <SCORE.INTER.norm>
-0.444845

>  <SCORE.INTRA>
-9.11022

>  <SCORE.INTRA.DIHEDRAL>
-7.43625

>  <SCORE.INTRA.DIHEDRAL.0>
15.0182

>  <SCORE.INTRA.POLAR>
0

>  <SCORE.INTRA.POLAR.0>
0

>  <SCORE.INTRA.REPUL>
0

>  <SCORE.INTRA.REPUL.0>
0

>  <SCORE.INTRA.SOLV>
-0.597469

>  <SCORE.INTRA.SOLV.lig_0>
-47.9129

>  <SCORE.INTRA.VDW>
-5.09336

>  <SCORE.INTRA.VDW.0>
2.00851

>  <SCORE.INTRA.norm>
-0.337415

>  <SCORE.RESTR>
0

>  <SCORE.RESTR.CAVITY>
0

>  <SCORE.RESTR.norm>
0

>  <SCORE.SYSTEM>
0

>  <SCORE.SYSTEM.CONST>
0

>  <SCORE.SYSTEM.DIHEDRAL>
0

>  <SCORE.SYSTEM.SOLV>
0

>  <SCORE.SYSTEM.norm>
0

>  <SCORE.heavy>
27

>  <SCORE.norm>
-0.782261

>  <RMSD>
1.122

$$$$
ligand
 OpenBabel11021811483D
libRbt.so/2013.1/901 2013/11/27
 27 29  0  0  0  0  0  0  0  0999 V2000
  -16.2123   -5.9698   28.1367 N   0  0  0  0  0  0  0  0  0  0  0  0
  -14.8128   -5.9510   28.5537 C   0  0  2  0  0  0  0  0  0  0  0  0
  -13.9736   -5.0145   27.6885 C   0  0  0  0  0  0  0  0  0  0  0  0
  -14.3587   -3.8727   27.4271 O   0  0  0  0  0  0  0  0  0  0  0  0
  -14.2310   -7.3613   28.5720 C   0  0  0  0  0  0  0  0  0  0  0  0
  -12.8422   -7.4322   29.1879 C   0  0  0  0  0  0  0  0  0  0  0  0
  -12.5274   -8.9578   30.1097 S   0  0  2  0  0  0  0  0  0  0  0  0
  -13.2009  -10.1816   28.9585 C   0  0  0  0  0  0  0  0  0  0  0  0
  -13.8409   -8.8839   31.3577 C   0  0  0  0  0  0  0  0  0  0  0  0
  -13.2673   -8.3513   32.6629 C   0  0  1  0  0  0  0  0  0  0  0  0
  -12.8052   -7.0402   32.4411 O   0  0  0  0  0  0  0  0  0  0  0  0
  -14.2522   -8.2193   33.8093 C   0  0  1  0  0  0  0  0  0  0  0  0
  -14.1980   -9.3481   34.6528 O   0  0  0  0  0  0  0  0  0  0  0  0
  -13.7545   -6.9937   34.5483 C   0  0  1  0  0  0  0  0  0  0  0  0
  -13.1228   -7.4141   35.7324 O   0  0  0  0  0  0  0  0  0  0  0  0
  -12.7357   -6.3155   33.6423 C   0  0  2  0  0  0  0  0  0  0  0  0
  -12.8935   -5.3859   27.2290 O   0  0  0  0  0  0  0  0  0  0  0  0
  -16.5856   -3.1535   31.9234 N   0  0  0  0  0  0  0  0  0  0  0  0
  -16.5892   -4.5318   32.0080 C   0  0  0  0  0  0  0  0  0  0  0  0
  -15.4834   -5.2102   32.4846 N   0  0  0  0  0  0  0  0  0  0  0  0
  -14.3782   -4.5296   32.8710 C   0  0  0  0  0  0  0  0  0  0  0  0
  -14.3593   -3.1420   32.8010 C   0  0  0  0  0  0  0  0  0  0  0  0
  -15.4667   -2.4538   32.3203 C   0  0  0  0  0  0  0  0  0  0  0  0
  -15.4449   -1.1254   32.2444 N   0  0  0  0  0  0  0  0  0  0  0  0
  -13.1568   -2.7210   33.2484 N   0  0  0  0  0  0  0  0  0  0  0  0
  -12.4276   -3.8017   33.6131 C   0  0  0  0  0  0  0  0  0  0  0  0
  -13.1687   -4.9315   33.3867 N   0  0  0  0  0  0  0  0  0  0  0  0
  2  1  1  6  0  0  0
  2  3  1  0  0  0  0
  2  5  1  0  0  0  0
  3  4  1  0  0  0  0
  3 17  1  0  0  0  0
  5  6  1  0  0  0  0
  7  6  1  6  0  0  0
  7  8  1  0  0  0  0
  7  9  1  0  0  0  0
 10  9  1  6  0  0  0
 10 11  1  0  0  0  0
 10 12  1  0  0  0  0
 11 16  1  0  0  0  0
 12 13  1  1  0  0  0
 12 14  1  0  0  0  0
 14 15  1  1  0  0  0
 14 16  1  0  0  0  0
 16 27  1  6  0  0  0
 18 19  2  0  0  0  0
 18 23  1  0  0  0  0
 19 20  1  0  0  0  0
 20 21  2  0  0  0  0
 21 22  1  0  0  0  0
 21 27  1  0  0  0  0
 22 23  2  0  0  0  0
 22 25  1  0  0  0  0
 23 24  1  0  0  0  0
 25 26  2  0  0  0  0
 26 27  1  0  0  0  0
M  END
>  <CHROM.1>
47.13098801,-171.67840962,145.41383148,44.71742221,-98.96145604,62.57448671
57.62394552,-13.97797047,-6.07999994,31.44227059,0.91654266,1.27442385,-1.72999622

>  <Name>
ligand

>  <RI>
0

>  <Rbt.Current_Directory>
/home/itssahil/PROJECTS/Mol_Feturizer/New_Systems/rnas/3GX6

>  <Rbt.Executable>
rbdock ($Id: //depot/dev/client3/rdock/2013.1/src/exe/rbdock.cxx#4 $)

>  <Rbt.Library>
libRbt.so (2013.1, Build901 2013/11/27)

>  <Rbt.Parameter_File>
/export/apps/rDock/src/rDock_2013.1_src/data/scripts/dock_solv.prm

>  <Rbt.Receptor>
prm/pocket_docking_2.prm

>  <SCORE>
-19.2166

>  <SCORE.INTER>
-12.8362

>  <SCORE.INTER.CONST>
1

>  <SCORE.INTER.POLAR>
0

>  <SCORE.INTER.ROT>
7

>  <SCORE.INTER.SOLV>
15.8358

>  <SCORE.INTER.VDW>
-22.1028

>  <SCORE.INTER.norm>
-0.475417

>  <SCORE.INTRA>
-6.61849

>  <SCORE.INTRA.DIHEDRAL>
-5.75239

>  <SCORE.INTRA.DIHEDRAL.0>
15.0182

>  <SCORE.INTRA.POLAR>
0

>  <SCORE.INTRA.POLAR.0>
0

>  <SCORE.INTRA.REPUL>
0

>  <SCORE.INTRA.REPUL.0>
0

>  <SCORE.INTRA.SOLV>
-1.7158

>  <SCORE.INTRA.SOLV.lig_0>
-47.9129

>  <SCORE.INTRA.VDW>
-2.8844

>  <SCORE.INTRA.VDW.0>
2.00851

>  <SCORE.INTRA.norm>
-0.245129

>  <SCORE.RESTR>
0.238109

>  <SCORE.RESTR.CAVITY>
0.238109

>  <SCORE.RESTR.norm>
0.00881887

>  <SCORE.SYSTEM>
0

>  <SCORE.SYSTEM.CONST>
0

>  <SCORE.SYSTEM.DIHEDRAL>
0

>  <SCORE.SYSTEM.SOLV>
0

>  <SCORE.SYSTEM.norm>
0

>  <SCORE.heavy>
27

>  <SCORE.norm>
-0.711727

>  <RMSD>
1.134

$$$$
ligand
 OpenBabel11021811483D
libRbt.so/2013.1/901 2013/11/27
 27 29  0  0  0  0  0  0  0  0999 V2000
  -11.4940   -6.2636   28.5391 N   0  0  0  0  0  0  0  0  0  0  0  0
  -12.4196   -6.8077   27.5491 C   0  0  2  0  0  0  0  0  0  0  0  0
  -13.4779   -5.7874   27.1380 C   0  0  0  0  0  0  0  0  0  0  0  0
  -14.0770   -5.8883   26.0650 O   0  0  0  0  0  0  0  0  0  0  0  0
  -13.0583   -8.0987   28.0523 C   0  0  0  0  0  0  0  0  0  0  0  0
  -13.8436   -7.9194   29.3423 C   0  0  0  0  0  0  0  0  0  0  0  0
  -14.5661   -9.4522   29.9784 S   0  0  2  0  0  0  0  0  0  0  0  0
  -15.9074   -9.7012   28.7887 C   0  0  0  0  0  0  0  0  0  0  0  0
  -15.4787   -8.8320   31.4175 C   0  0  0  0  0  0  0  0  0  0  0  0
  -14.4924   -8.4192   32.5006 C   0  0  1  0  0  0  0  0  0  0  0  0
  -13.8607   -7.2287   32.0939 O   0  0  0  0  0  0  0  0  0  0  0  0
  -15.0990   -8.0864   33.8509 C   0  0  1  0  0  0  0  0  0  0  0  0
  -15.0448   -9.1990   34.7157 O   0  0  0  0  0  0  0  0  0  0  0  0
  -14.1990   -6.9823   34.3673 C   0  0  1  0  0  0  0  0  0  0  0  0
  -13.3731   -7.5153   35.3731 O   0  0  0  0  0  0  0  0  0  0  0  0
  -13.3414   -6.5270   33.1943 C   0  0  2  0  0  0  0  0  0  0  0  0
  -13.7502   -4.8371   27.8718 O   0  0  0  0  0  0  0  0  0  0  0  0
  -16.8230   -2.6639   32.3397 N   0  0  0  0  0  0  0  0  0  0  0  0
  -17.0700   -4.0129   32.5016 C   0  0  0  0  0  0  0  0  0  0  0  0
  -16.0301   -4.8974   32.7173 N   0  0  0  0  0  0  0  0  0  0  0  0
  -14.7525   -4.4511   32.7680 C   0  0  0  0  0  0  0  0  0  0  0  0
  -14.4856   -3.0961   32.6159 C   0  0  0  0  0  0  0  0  0  0  0  0
  -15.5261   -2.2016   32.3961 C   0  0  0  0  0  0  0  0  0  0  0  0
  -15.2693   -0.9051   32.2409 N   0  0  0  0  0  0  0  0  0  0  0  0
  -13.1500   -2.9232   32.7155 N   0  0  0  0  0  0  0  0  0  0  0  0
  -12.5732   -4.1267   32.9427 C   0  0  0  0  0  0  0  0  0  0  0  0
  -13.5511   -5.0854   32.9789 N   0  0  0  0  0  0  0  0  0  0  0  0
  2  1  1  1  0  0  0
  2  3  1  0  0  0  0
  2  5  1  0  0  0  0
  3  4  1  0  0  0  0
  3 17  1  0  0  0  0
  5  6  1  0  0  0  0
  7  6  1  6  0  0  0
  7  8  1  0  0  0  0
  7  9  1  0  0  0  0
 10  9  1  6  0  0  0
 10 11  1  0  0  0  0
 10 12  1  0  0  0  0
 11 16  1  0  0  0  0
 12 13  1  1  0  0  0
 12 14  1  0  0  0  0
 14 15  1  1  0  0  0
 14 16  1  0  0  0  0
 16 27  1  6  0  0  0
 18 19  2  0  0  0  0
 18 23  1  0  0  0  0
 19 20  1  0  0  0  0
 20 21  2  0  0  0  0
 21 22  1  0  0  0  0
 21 27  1  0  0  0  0
 22 23  2  0  0  0  0
 22 25  1  0  0  0  0
 23 24  1  0  0  0  0
 25 26  2  0  0  0  0
 26 27  1  0  0  0  0
M  END
>  <CHROM.1>
157.82135044,59.67593910,-178.27016152,-72.91102212,-71.01901669,72.44316689
57.68942227,-14.32570026,-6.23606402,31.27453509,-0.41450613,1.39431078,-0.22142689

>  <Name>
ligand

>  <RI>
0

>  <Rbt.Current_Directory>
/home/itssahil/PROJECTS/Mol_Feturizer/New_Systems/rnas/3GX6

>  <Rbt.Executable>
rbdock ($Id: //depot/dev/client3/rdock/2013.1/src/exe/rbdock.cxx#4 $)

>  <Rbt.Library>
libRbt.so (2013.1, Build901 2013/11/27)

>  <Rbt.Parameter_File>
/export/apps/rDock/src/rDock_2013.1_src/data/scripts/dock_solv.prm

>  <Rbt.Receptor>
prm/pocket_docking_5.prm

>  <SCORE>
-21.5562

>  <SCORE.INTER>
-10.9844

>  <SCORE.INTER.CONST>
1

>  <SCORE.INTER.POLAR>
0

>  <SCORE.INTER.ROT>
7

>  <SCORE.INTER.SOLV>
18.4447

>  <SCORE.INTER.VDW>
-21.7378

>  <SCORE.INTER.norm>
-0.406829

>  <SCORE.INTRA>
-10.5719

>  <SCORE.INTRA.DIHEDRAL>
-11.1705

>  <SCORE.INTRA.DIHEDRAL.0>
15.0182

>  <SCORE.INTRA.POLAR>
0

>  <SCORE.INTRA.POLAR.0>
0

>  <SCORE.INTRA.REPUL>
0

>  <SCORE.INTRA.REPUL.0>
0

>  <SCORE.INTRA.SOLV>
-1.02616

>  <SCORE.INTRA.SOLV.lig_0>
-47.9129

>  <SCORE.INTRA.VDW>
-4.47352

>  <SCORE.INTRA.VDW.0>
2.00851

>  <SCORE.INTRA.norm>
-0.391551

>  <SCORE.RESTR>
0

>  <SCORE.RESTR.CAVITY>
0

>  <SCORE.RESTR.norm>
0

>  <SCORE.SYSTEM>
0

>  <SCORE.SYSTEM.CONST>
0

>  <SCORE.SYSTEM.DIHEDRAL>
0

>  <SCORE.SYSTEM.SOLV>
0

>  <SCORE.SYSTEM.norm>
0

>  <SCORE.heavy>
27

>  <SCORE.norm>
-0.798379

>  <RMSD>
1.143

$$$$
ligand
 OpenBabel11021811483D
libRbt.so/2013.1/901 2013/11/27
 27 29  0  0  0  0  0  0  0  0999 V2000
  -15.2768   -4.7579   28.6752 N   0  0  0  0  0  0  0  0  0  0  0  0
  -13.9620   -5.3710   28.5068 C   0  0  2  0  0  0  0  0  0  0  0  0
  -13.6318   -5.6152   27.0367 C   0  0  0  0  0  0  0  0  0  0  0  0
  -12.6106   -6.2217   26.7055 O   0  0  0  0  0  0  0  0  0  0  0  0
  -13.8519   -6.6561   29.3219 C   0  0  0  0  0  0  0  0  0  0  0  0
  -12.4161   -7.0965   29.5614 C   0  0  0  0  0  0  0  0  0  0  0  0
  -12.2671   -8.7639   30.2498 S   0  0  2  0  0  0  0  0  0  0  0  0
  -13.0407   -9.7334   28.9314 C   0  0  0  0  0  0  0  0  0  0  0  0
  -13.5857   -8.7420   31.4945 C   0  0  0  0  0  0  0  0  0  0  0  0
  -13.0616   -8.1049   32.7734 C   0  0  1  0  0  0  0  0  0  0  0  0
  -12.6634   -6.7868   32.4805 O   0  0  0  0  0  0  0  0  0  0  0  0
  -14.0707   -7.9573   33.8967 C   0  0  1  0  0  0  0  0  0  0  0  0
  -13.9728   -9.0305   34.8063 O   0  0  0  0  0  0  0  0  0  0  0  0
  -13.6484   -6.6664   34.5683 C   0  0  1  0  0  0  0  0  0  0  0  0
  -13.0157   -6.9835   35.7836 O   0  0  0  0  0  0  0  0  0  0  0  0
  -12.6508   -5.9904   33.6375 C   0  0  2  0  0  0  0  0  0  0  0  0
  -14.3804   -5.2042   26.1499 O   0  0  0  0  0  0  0  0  0  0  0  0
  -16.8068   -3.0579   32.2579 N   0  0  0  0  0  0  0  0  0  0  0  0
  -16.7680   -4.4148   32.5115 C   0  0  0  0  0  0  0  0  0  0  0  0
  -15.5819   -5.0312   32.8626 N   0  0  0  0  0  0  0  0  0  0  0  0
  -14.4393   -4.3106   32.9579 C   0  0  0  0  0  0  0  0  0  0  0  0
  -14.4606   -2.9428   32.7148 C   0  0  0  0  0  0  0  0  0  0  0  0
  -15.6491   -2.3171   32.3587 C   0  0  0  0  0  0  0  0  0  0  0  0
  -15.6674   -1.0086   32.1166 N   0  0  0  0  0  0  0  0  0  0  0  0
  -13.2062   -2.4723   32.8842 N   0  0  0  0  0  0  0  0  0  0  0  0
  -12.4025   -3.5009   33.2432 C   0  0  0  0  0  0  0  0  0  0  0  0
  -13.1496   -4.6481   33.2944 N   0  0  0  0  0  0  0  0  0  0  0  0
  2  1  1  6  0  0  0
  2  3  1  0  0  0  0
  2  5  1  0  0  0  0
  3  4  1  0  0  0  0
  3 17  1  0  0  0  0
  5  6  1  0  0  0  0
  7  6  1  6  0  0  0
  7  8  1  0  0  0  0
  7  9  1  0  0  0  0
 10  9  1  6  0  0  0
 10 11  1  0  0  0  0
 10 12  1  0  0  0  0
 11 16  1  0  0  0  0
 12 13  1  1  0  0  0
 12 14  1  0  0  0  0
 14 15  1  1  0  0  0
 14 16  1  0  0  0  0
 16 27  1  6  0  0  0
 18 19  2  0  0  0  0
 18 23  1  0  0  0  0
 19 20  1  0  0  0  0
 20 21  2  0  0  0  0
 21 22  1  0  0  0  0
 21 27  1  0  0  0  0
 22 23  2  0  0  0  0
 22 25  1  0  0  0  0
 23 24  1  0  0  0  0
 25 26  2  0  0  0  0
 26 27  1  0  0  0  0
M  END
>  <CHROM.1>
-174.19470051,-161.20461039,-169.16284541,60.98286354,-83.75459127,60.46916368
69.66577078,-13.82631320,-5.90597438,31.44893705,1.03689314,1.19247819,-1.52515010

>  <Name>
ligand

>  <RI>
0

>  <Rbt.Current_Directory>
/home/itssahil/PROJECTS/Mol_Feturizer/New_Systems/rnas/3GX6

>  <Rbt.Executable>
rbdock ($Id: //depot/dev/client3/rdock/2013.1/src/exe/rbdock.cxx#4 $)

>  <Rbt.Library>
libRbt.so (2013.1, Build901 2013/11/27)

>  <Rbt.Parameter_File>
/export/apps/rDock/src/rDock_2013.1_src/data/scripts/dock_solv.prm

>  <Rbt.Receptor>
prm/pocket_docking_3.prm

>  <SCORE>
-25.8924

>  <SCORE.INTER>
-16.388

>  <SCORE.INTER.CONST>
1

>  <SCORE.INTER.POLAR>
0

>  <SCORE.INTER.ROT>
7

>  <SCORE.INTER.SOLV>
16.0731

>  <SCORE.INTER.VDW>
-24.5497

>  <SCORE.INTER.norm>
-0.606964

>  <SCORE.INTRA>
-9.50435

>  <SCORE.INTRA.DIHEDRAL>
-9.26868

>  <SCORE.INTRA.DIHEDRAL.0>
15.0182

>  <SCORE.INTRA.POLAR>
0

>  <SCORE.INTRA.POLAR.0>
0

>  <SCORE.INTRA.REPUL>
0

>  <SCORE.INTRA.REPUL.0>
0

>  <SCORE.INTRA.SOLV>
-1.604

>  <SCORE.INTRA.SOLV.lig_0>
-47.9129

>  <SCORE.INTRA.VDW>
-4.06802

>  <SCORE.INTRA.VDW.0>
2.00851

>  <SCORE.INTRA.norm>
-0.352013

>  <SCORE.RESTR>
0

>  <SCORE.RESTR.CAVITY>
0

>  <SCORE.RESTR.norm>
0

>  <SCORE.SYSTEM>
0

>  <SCORE.SYSTEM.CONST>
0

>  <SCORE.SYSTEM.DIHEDRAL>
0

>  <SCORE.SYSTEM.SOLV>
0

>  <SCORE.SYSTEM.norm>
0

>  <SCORE.heavy>
27

>  <SCORE.norm>
-0.958977

>  <RMSD>
1.148

$$$$
ligand
 OpenBabel11021811483D
libRbt.so/2013.1/901 2013/11/27
 27 29  0  0  0  0  0  0  0  0999 V2000
  -15.8698   -4.6790   29.5646 N   0  0  0  0  0  0  0  0  0  0  0  0
  -14.6003   -5.2741   29.1557 C   0  0  2  0  0  0  0  0  0  0  0  0
  -14.3687   -5.1440   27.6526 C   0  0  0  0  0  0  0  0  0  0  0  0
  -15.3113   -4.9809   26.8747 O   0  0  0  0  0  0  0  0  0  0  0  0
  -14.5098   -6.7283   29.6082 C   0  0  0  0  0  0  0  0  0  0  0  0
  -13.0943   -7.2834   29.5726 C   0  0  0  0  0  0  0  0  0  0  0  0
  -12.9505   -8.9643   30.2283 S   0  0  2  0  0  0  0  0  0  0  0  0
  -13.9655   -9.8702   29.0343 C   0  0  0  0  0  0  0  0  0  0  0  0
  -14.0707   -8.8761   31.6516 C   0  0  0  0  0  0  0  0  0  0  0  0
  -13.3304   -8.2793   32.8399 C   0  0  1  0  0  0  0  0  0  0  0  0
  -12.8395   -7.0141   32.4658 O   0  0  0  0  0  0  0  0  0  0  0  0
  -14.1727   -8.0116   34.0731 C   0  0  1  0  0  0  0  0  0  0  0  0
  -14.0729   -9.0764   34.9924 O   0  0  0  0  0  0  0  0  0  0  0  0
  -13.5415   -6.7625   34.6538 C   0  0  1  0  0  0  0  0  0  0  0  0
  -12.7990   -7.1269   35.7913 O   0  0  0  0  0  0  0  0  0  0  0  0
  -12.6030   -6.2073   33.5910 C   0  0  2  0  0  0  0  0  0  0  0  0
  -13.2308   -5.2052   27.1865 O   0  0  0  0  0  0  0  0  0  0  0  0
  -16.5534   -2.9241   32.4121 N   0  0  0  0  0  0  0  0  0  0  0  0
  -16.6185   -4.2812   32.6593 C   0  0  0  0  0  0  0  0  0  0  0  0
  -15.4742   -4.9981   32.9539 N   0  0  0  0  0  0  0  0  0  0  0  0
  -14.2714   -4.3775   32.9992 C   0  0  0  0  0  0  0  0  0  0  0  0
  -14.1876   -3.0111   32.7617 C   0  0  0  0  0  0  0  0  0  0  0  0
  -15.3337   -2.2846   32.4623 C   0  0  0  0  0  0  0  0  0  0  0  0
  -15.2519   -0.9776   32.2255 N   0  0  0  0  0  0  0  0  0  0  0  0
  -12.8915   -2.6496   32.8752 N   0  0  0  0  0  0  0  0  0  0  0  0
  -12.1626   -3.7450   33.1938 C   0  0  0  0  0  0  0  0  0  0  0  0
  -13.0011   -4.8252   33.2754 N   0  0  0  0  0  0  0  0  0  0  0  0
  2  1  1  6  0  0  0
  2  3  1  0  0  0  0
  2  5  1  0  0  0  0
  3  4  1  0  0  0  0
  3 17  1  0  0  0  0
  5  6  1  0  0  0  0
  7  6  1  6  0  0  0
  7  8  1  0  0  0  0
  7  9  1  0  0  0  0
 10  9  1  6  0  0  0
 10 11  1  0  0  0  0
 10 12  1  0  0  0  0
 11 16  1  0  0  0  0
 12 13  1  1  0  0  0
 12 14  1  0  0  0  0
 14 15  1  1  0  0  0
 14 16  1  0  0  0  0
 16 27  1  6  0  0  0
 18 19  2  0  0  0  0
 18 23  1  0  0  0  0
 19 20  1  0  0  0  0
 20 21  2  0  0  0  0
 21 22  1  0  0  0  0
 21 27  1  0  0  0  0
 22 23  2  0  0  0  0
 22 25  1  0  0  0  0
 23 24  1  0  0  0  0
 25 26  2  0  0  0  0
 26 27  1  0  0  0  0
M  END
>  <CHROM.1>
-22.42523786,-163.62162671,175.47390980,63.80237522,-83.44718155,57.24322558
64.86879988,-14.04222262,-5.91777945,31.62677606,1.12455971,1.28867103,-1.96521394

>  <Name>
ligand

>  <RI>
0

>  <Rbt.Current_Directory>
/home/itssahil/PROJECTS/Mol_Feturizer/New_Systems/rnas/3GX6

>  <Rbt.Executable>
rbdock ($Id: //depot/dev/client3/rdock/2013.1/src/exe/rbdock.cxx#4 $)

>  <Rbt.Library>
libRbt.so (2013.1, Build901 2013/11/27)

>  <Rbt.Parameter_File>
/export/apps/rDock/src/rDock_2013.1_src/data/scripts/dock_solv.prm

>  <Rbt.Receptor>
prm/pocket_docking_3.prm

>  <SCORE>
-24.1654

>  <SCORE.INTER>
-14.2015

>  <SCORE.INTER.CONST>
1

>  <SCORE.INTER.POLAR>
0

>  <SCORE.INTER.ROT>
7

>  <SCORE.INTER.SOLV>
16.0091

>  <SCORE.INTER.VDW>
-23.0707

>  <SCORE.INTER.norm>
-0.525983

>  <SCORE.INTRA>
-9.96382

>  <SCORE.INTRA.DIHEDRAL>
-9.74479

>  <SCORE.INTRA.DIHEDRAL.0>
15.0182

>  <SCORE.INTRA.POLAR>
0

>  <SCORE.INTRA.POLAR.0>
0

>  <SCORE.INTRA.REPUL>
0

>  <SCORE.INTRA.REPUL.0>
0

>  <SCORE.INTRA.SOLV>
-0.165891

>  <SCORE.INTRA.SOLV.lig_0>
-47.9129

>  <SCORE.INTRA.VDW>
-5.00848

>  <SCORE.INTRA.VDW.0>
2.00851

>  <SCORE.INTRA.norm>
-0.36903

>  <SCORE.RESTR>
0

>  <SCORE.RESTR.CAVITY>
0

>  <SCORE.RESTR.norm>
0

>  <SCORE.SYSTEM>
0

>  <SCORE.SYSTEM.CONST>
0

>  <SCORE.SYSTEM.DIHEDRAL>
0

>  <SCORE.SYSTEM.SOLV>
0

>  <SCORE.SYSTEM.norm>
0

>  <SCORE.heavy>
27

>  <SCORE.norm>
-0.895013

>  <RMSD>
1.186

$$$$
ligand
 OpenBabel11021811483D
libRbt.so/2013.1/901 2013/11/27
 27 29  0  0  0  0  0  0  0  0999 V2000
  -13.5903   -6.2558   26.4866 N   0  0  0  0  0  0  0  0  0  0  0  0
  -14.5643   -6.0011   27.5446 C   0  0  2  0  0  0  0  0  0  0  0  0
  -14.6798   -4.5134   27.8659 C   0  0  0  0  0  0  0  0  0  0  0  0
  -15.7798   -3.9609   27.9381 O   0  0  0  0  0  0  0  0  0  0  0  0
  -14.2378   -6.8155   28.7929 C   0  0  0  0  0  0  0  0  0  0  0  0
  -12.8172   -6.6065   29.2941 C   0  0  0  0  0  0  0  0  0  0  0  0
  -12.0746   -8.0856   30.0270 S   0  0  2  0  0  0  0  0  0  0  0  0
  -12.3988   -9.2968   28.7214 C   0  0  0  0  0  0  0  0  0  0  0  0
  -13.3364   -8.5351   31.2494 C   0  0  0  0  0  0  0  0  0  0  0  0
  -12.9851   -7.9080   32.5909 C   0  0  1  0  0  0  0  0  0  0  0  0
  -12.6631   -6.5546   32.3762 O   0  0  0  0  0  0  0  0  0  0  0  0
  -14.1038   -7.8756   33.6153 C   0  0  1  0  0  0  0  0  0  0  0  0
  -14.0102   -8.9710   34.4985 O   0  0  0  0  0  0  0  0  0  0  0  0
  -13.8465   -6.5824   34.3618 C   0  0  1  0  0  0  0  0  0  0  0  0
  -13.3086   -6.8960   35.6228 O   0  0  0  0  0  0  0  0  0  0  0  0
  -12.8203   -5.8018   33.5517 C   0  0  2  0  0  0  0  0  0  0  0  0
  -13.6712   -3.8331   28.0547 O   0  0  0  0  0  0  0  0  0  0  0  0
  -16.7877   -3.1811   31.2787 N   0  0  0  0  0  0  0  0  0  0  0  0
  -16.6316   -4.5472   31.4065 C   0  0  0  0  0  0  0  0  0  0  0  0
  -15.5183   -5.0723   32.0350 N   0  0  0  0  0  0  0  0  0  0  0  0
  -14.5622   -4.2510   32.5303 C   0  0  0  0  0  0  0  0  0  0  0  0
  -14.7062   -2.8736   32.4186 C   0  0  0  0  0  0  0  0  0  0  0  0
  -15.8217   -2.3391   31.7856 C   0  0  0  0  0  0  0  0  0  0  0  0
  -15.9549   -1.0200   31.6703 N   0  0  0  0  0  0  0  0  0  0  0  0
  -13.6297   -2.2965   32.9945 N   0  0  0  0  0  0  0  0  0  0  0  0
  -12.8237   -3.2701   33.4793 C   0  0  0  0  0  0  0  0  0  0  0  0
  -13.3857   -4.4881   33.2012 N   0  0  0  0  0  0  0  0  0  0  0  0
  2  1  1  6  0  0  0
  2  3  1  0  0  0  0
  2  5  1  0  0  0  0
  3  4  1  0  0  0  0
  3 17  1  0  0  0  0
  5  6  1  0  0  0  0
  7  6  1  6  0  0  0
  7  8  1  0  0  0  0
  7  9  1  0  0  0  0
 10  9  1  6  0  0  0
 10 11  1  0  0  0  0
 10 12  1  0  0  0  0
 11 16  1  0  0  0  0
 12 13  1  1  0  0  0
 12 14  1  0  0  0  0
 14 15  1  1  0  0  0
 14 16  1  0  0  0  0
 16 27  1  6  0  0  0
 18 19  2  0  0  0  0
 18 23  1  0  0  0  0
 19 20  1  0  0  0  0
 20 21  2  0  0  0  0
 21 22  1  0  0  0  0
 21 27  1  0  0  0  0
 22 23  2  0  0  0  0
 22 25  1  0  0  0  0
 23 24  1  0  0  0  0
 25 26  2  0  0  0  0
 26 27  1  0  0  0  0
M  END
>  <CHROM.1>
131.15250525,54.21153789,-145.85834998,50.65813903,-93.21009760,47.53924592
57.01885981,-13.97851870,-5.66016723,31.23304906,-2.25721568,-1.14694945
1.49510784

>  <Name>
ligand

>  <RI>
0

>  <Rbt.Current_Directory>
/home/itssahil/PROJECTS/Mol_Feturizer/New_Systems/rnas/3GX6

>  <Rbt.Executable>
rbdock ($Id: //depot/dev/client3/rdock/2013.1/src/exe/rbdock.cxx#4 $)

>  <Rbt.Library>
libRbt.so (2013.1, Build901 2013/11/27)

>  <Rbt.Parameter_File>
/export/apps/rDock/src/rDock_2013.1_src/data/scripts/dock_solv.prm

>  <Rbt.Receptor>
prm/pocket_docking_2.prm

>  <SCORE>
-20.7085

>  <SCORE.INTER>
-12.8146

>  <SCORE.INTER.CONST>
1

>  <SCORE.INTER.POLAR>
0

>  <SCORE.INTER.ROT>
7

>  <SCORE.INTER.SOLV>
17.0593

>  <SCORE.INTER.VDW>
-22.4962

>  <SCORE.INTER.norm>
-0.474616

>  <SCORE.INTRA>
-7.91105

>  <SCORE.INTRA.DIHEDRAL>
-6.2113

>  <SCORE.INTRA.DIHEDRAL.0>
15.0182

>  <SCORE.INTRA.POLAR>
0

>  <SCORE.INTRA.POLAR.0>
0

>  <SCORE.INTRA.REPUL>
0

>  <SCORE.INTRA.REPUL.0>
0

>  <SCORE.INTRA.SOLV>
-0.10013

>  <SCORE.INTRA.SOLV.lig_0>
-47.9129

>  <SCORE.INTRA.VDW>
-4.75533

>  <SCORE.INTRA.VDW.0>
2.00851

>  <SCORE.INTRA.norm>
-0.293002

>  <SCORE.RESTR>
0.0171837

>  <SCORE.RESTR.CAVITY>
0.0171837

>  <SCORE.RESTR.norm>
0.000636433

>  <SCORE.SYSTEM>
0

>  <SCORE.SYSTEM.CONST>
0

>  <SCORE.SYSTEM.DIHEDRAL>
0

>  <SCORE.SYSTEM.SOLV>
0

>  <SCORE.SYSTEM.norm>
0

>  <SCORE.heavy>
27

>  <SCORE.norm>
-0.766982

>  <RMSD>
1.189

$$$$
ligand
 OpenBabel11021811483D
libRbt.so/2013.1/901 2013/11/27
 27 29  0  0  0  0  0  0  0  0999 V2000
  -14.4287   -5.9590   25.8124 N   0  0  0  0  0  0  0  0  0  0  0  0
  -14.7863   -5.8264   27.2222 C   0  0  2  0  0  0  0  0  0  0  0  0
  -15.0551   -4.3739   27.6071 C   0  0  0  0  0  0  0  0  0  0  0  0
  -16.1865   -3.8913   27.5214 O   0  0  0  0  0  0  0  0  0  0  0  0
  -13.7182   -6.4495   28.1159 C   0  0  0  0  0  0  0  0  0  0  0  0
  -13.5497   -7.9455   27.9000 C   0  0  0  0  0  0  0  0  0  0  0  0
  -12.7159   -8.7927   29.2649 S   0  0  2  0  0  0  0  0  0  0  0  0
  -12.9197  -10.5173   28.7542 C   0  0  0  0  0  0  0  0  0  0  0  0
  -13.9677   -8.6588   30.5700 C   0  0  0  0  0  0  0  0  0  0  0  0
  -13.2993   -8.2292   31.8681 C   0  0  1  0  0  0  0  0  0  0  0  0
  -12.9372   -6.8738   31.7522 O   0  0  0  0  0  0  0  0  0  0  0  0
  -14.1720   -8.2857   33.1079 C   0  0  1  0  0  0  0  0  0  0  0  0
  -13.9701   -9.4909   33.8117 O   0  0  0  0  0  0  0  0  0  0  0  0
  -13.6745   -7.1140   33.9298 C   0  0  1  0  0  0  0  0  0  0  0  0
  -12.9059   -7.6133   34.9965 O   0  0  0  0  0  0  0  0  0  0  0  0
  -12.7908   -6.2768   33.0152 C   0  0  2  0  0  0  0  0  0  0  0  0
  -14.1412   -3.6525   28.0072 O   0  0  0  0  0  0  0  0  0  0  0  0
  -16.5362   -3.0897   31.1205 N   0  0  0  0  0  0  0  0  0  0  0  0
  -16.3880   -4.4470   30.9141 C   0  0  0  0  0  0  0  0  0  0  0  0
  -15.3368   -5.1354   31.4897 N   0  0  0  0  0  0  0  0  0  0  0  0
  -14.4344   -4.4843   32.2615 C   0  0  0  0  0  0  0  0  0  0  0  0
  -14.5722   -3.1203   32.4874 C   0  0  0  0  0  0  0  0  0  0  0  0
  -15.6252   -2.4216   31.9096 C   0  0  0  0  0  0  0  0  0  0  0  0
  -15.7516   -1.1133   32.1184 N   0  0  0  0  0  0  0  0  0  0  0  0
  -13.5567   -2.7282   33.2865 N   0  0  0  0  0  0  0  0  0  0  0  0
  -12.7964   -3.8084   33.5825 C   0  0  0  0  0  0  0  0  0  0  0  0
  -13.3254   -4.9059   32.9563 N   0  0  0  0  0  0  0  0  0  0  0  0
  2  1  1  6  0  0  0
  2  3  1  0  0  0  0
  2  5  1  0  0  0  0
  3  4  1  0  0  0  0
  3 17  1  0  0  0  0
  5  6  1  0  0  0  0
  7  6  1  6  0  0  0
  7  8  1  0  0  0  0
  7  9  1  0  0  0  0
 10  9  1  6  0  0  0
 10 11  1  0  0  0  0
 10 12  1  0  0  0  0
 11 16  1  0  0  0  0
 12 13  1  1  0  0  0
 12 14  1  0  0  0  0
 14 15  1  1  0  0  0
 14 16  1  0  0  0  0
 16 27  1  6  0  0  0
 18 19  2  0  0  0  0
 18 23  1  0  0  0  0
 19 20  1  0  0  0  0
 20 21  2  0  0  0  0
 21 22  1  0  0  0  0
 21 27  1  0  0  0  0
 22 23  2  0  0  0  0
 22 25  1  0  0  0  0
 23 24  1  0  0  0  0
 25 26  2  0  0  0  0
 26 27  1  0  0  0  0
M  END
>  <CHROM.1>
90.03756479,-62.58407998,-161.25320821,172.35267153,-134.60051083,72.45751424
37.61972329,-14.11561397,-5.95897763,30.83645999,0.55701494,1.21825487,-1.91793051

>  <Name>
ligand

>  <RI>
0

>  <Rbt.Current_Directory>
/home/itssahil/PROJECTS/Mol_Feturizer/New_Systems/rnas/3GX6

>  <Rbt.Executable>
rbdock ($Id: //depot/dev/client3/rdock/2013.1/src/exe/rbdock.cxx#4 $)

>  <Rbt.Library>
libRbt.so (2013.1, Build901 2013/11/27)

>  <Rbt.Parameter_File>
/export/apps/rDock/src/rDock_2013.1_src/data/scripts/dock_solv.prm

>  <Rbt.Receptor>
prm/pocket_docking_2.prm

>  <SCORE>
-17.66

>  <SCORE.INTER>
-8.40408

>  <SCORE.INTER.CONST>
1

>  <SCORE.INTER.POLAR>
0

>  <SCORE.INTER.ROT>
7

>  <SCORE.INTER.SOLV>
19.076

>  <SCORE.INTER.VDW>
-20.2281

>  <SCORE.INTER.norm>
-0.311262

>  <SCORE.INTRA>
-9.27337

>  <SCORE.INTRA.DIHEDRAL>
-5.79181

>  <SCORE.INTRA.DIHEDRAL.0>
15.0182

>  <SCORE.INTRA.POLAR>
0

>  <SCORE.INTRA.POLAR.0>
0

>  <SCORE.INTRA.REPUL>
0

>  <SCORE.INTRA.REPUL.0>
0

>  <SCORE.INTRA.SOLV>
-1.12211

>  <SCORE.INTRA.SOLV.lig_0>
-47.9129

>  <SCORE.INTRA.VDW>
-5.81641

>  <SCORE.INTRA.VDW.0>
2.00851

>  <SCORE.INTRA.norm>
-0.343458

>  <SCORE.RESTR>
0.0174531

>  <SCORE.RESTR.CAVITY>
0.0174531

>  <SCORE.RESTR.norm>
0.000646412

>  <SCORE.SYSTEM>
0

>  <SCORE.SYSTEM.CONST>
0

>  <SCORE.SYSTEM.DIHEDRAL>
0

>  <SCORE.SYSTEM.SOLV>
0

>  <SCORE.SYSTEM.norm>
0

>  <SCORE.heavy>
27

>  <SCORE.norm>
-0.654074

>  <RMSD>
1.203

$$$$
ligand
 OpenBabel11021811483D
libRbt.so/2013.1/901 2013/11/27
 27 29  0  0  0  0  0  0  0  0999 V2000
  -16.0171   -5.7409   29.8111 N   0  0  0  0  0  0  0  0  0  0  0  0
  -14.8481   -5.0926   29.2229 C   0  0  2  0  0  0  0  0  0  0  0  0
  -14.9429   -5.0201   27.7011 C   0  0  0  0  0  0  0  0  0  0  0  0
  -15.5878   -5.8549   27.0627 O   0  0  0  0  0  0  0  0  0  0  0  0
  -13.5617   -5.7822   29.6674 C   0  0  0  0  0  0  0  0  0  0  0  0
  -13.3611   -7.1498   29.0330 C   0  0  0  0  0  0  0  0  0  0  0  0
  -12.3883   -8.2911   30.0466 S   0  0  2  0  0  0  0  0  0  0  0  0
  -12.4805   -9.7890   29.0344 C   0  0  0  0  0  0  0  0  0  0  0  0
  -13.5736   -8.6790   31.3631 C   0  0  0  0  0  0  0  0  0  0  0  0
  -13.1048   -8.0476   32.6661 C   0  0  1  0  0  0  0  0  0  0  0  0
  -12.7040   -6.7251   32.3982 O   0  0  0  0  0  0  0  0  0  0  0  0
  -14.1586   -7.9144   33.7494 C   0  0  1  0  0  0  0  0  0  0  0  0
  -14.0899   -8.9933   34.6548 O   0  0  0  0  0  0  0  0  0  0  0  0
  -13.7717   -6.6256   34.4461 C   0  0  1  0  0  0  0  0  0  0  0  0
  -13.1856   -6.9473   35.6834 O   0  0  0  0  0  0  0  0  0  0  0  0
  -12.7424   -5.9369   33.5602 C   0  0  2  0  0  0  0  0  0  0  0  0
  -14.3698   -4.1251   27.0798 O   0  0  0  0  0  0  0  0  0  0  0  0
  -16.9255   -2.9511   32.3931 N   0  0  0  0  0  0  0  0  0  0  0  0
  -16.8978   -4.2989   32.6929 C   0  0  0  0  0  0  0  0  0  0  0  0
  -15.7022   -4.9321   32.9754 N   0  0  0  0  0  0  0  0  0  0  0  0
  -14.5398   -4.2375   32.9570 C   0  0  0  0  0  0  0  0  0  0  0  0
  -14.5492   -2.8790   32.6659 C   0  0  0  0  0  0  0  0  0  0  0  0
  -15.7473   -2.2365   32.3783 C   0  0  0  0  0  0  0  0  0  0  0  0
  -15.7550   -0.9373   32.0902 N   0  0  0  0  0  0  0  0  0  0  0  0
  -13.2753   -2.4345   32.7222 N   0  0  0  0  0  0  0  0  0  0  0  0
  -12.4696   -3.4697   33.0568 C   0  0  0  0  0  0  0  0  0  0  0  0
  -13.2360   -4.5952   33.2068 N   0  0  0  0  0  0  0  0  0  0  0  0
  2  1  1  6  0  0  0
  2  3  1  0  0  0  0
  2  5  1  0  0  0  0
  3  4  1  0  0  0  0
  3 17  1  0  0  0  0
  5  6  1  0  0  0  0
  7  6  1  6  0  0  0
  7  8  1  0  0  0  0
  7  9  1  0  0  0  0
 10  9  1  6  0  0  0
 10 11  1  0  0  0  0
 10 12  1  0  0  0  0
 11 16  1  0  0  0  0
 12 13  1  1  0  0  0
 12 14  1  0  0  0  0
 14 15  1  1  0  0  0
 14 16  1  0  0  0  0
 16 27  1  6  0  0  0
 18 19  2  0  0  0  0
 18 23  1  0  0  0  0
 19 20  1  0  0  0  0
 20 21  2  0  0  0  0
 21 22  1  0  0  0  0
 21 27  1  0  0  0  0
 22 23  2  0  0  0  0
 22 25  1  0  0  0  0
 23 24  1  0  0  0  0
 25 26  2  0  0  0  0
 26 27  1  0  0  0  0
M  END
>  <CHROM.1>
-27.72971156,71.86259190,-151.93873531,176.05643630,-110.23768468,45.34392789
76.96798560,-14.11300527,-5.74952604,31.53183207,2.57916516,-1.16107467,1.36007319

>  <Name>
ligand

>  <RI>
0

>  <Rbt.Current_Directory>
/home/itssahil/PROJECTS/Mol_Feturizer/New_Systems/rnas/3GX6

>  <Rbt.Executable>
rbdock ($Id: //depot/dev/client3/rdock/2013.1/src/exe/rbdock.cxx#4 $)

>  <Rbt.Library>
libRbt.so (2013.1, Build901 2013/11/27)

>  <Rbt.Parameter_File>
/export/apps/rDock/src/rDock_2013.1_src/data/scripts/dock_solv.prm

>  <Rbt.Receptor>
prm/pocket_docking_3.prm

>  <SCORE>
-22.7095

>  <SCORE.INTER>
-14.6697

>  <SCORE.INTER.CONST>
1

>  <SCORE.INTER.POLAR>
0

>  <SCORE.INTER.ROT>
7

>  <SCORE.INTER.SOLV>
15.01

>  <SCORE.INTER.VDW>
-23.0498

>  <SCORE.INTER.norm>
-0.543323

>  <SCORE.INTRA>
-8.0398

>  <SCORE.INTRA.DIHEDRAL>
-4.67035

>  <SCORE.INTRA.DIHEDRAL.0>
15.0182

>  <SCORE.INTRA.POLAR>
0

>  <SCORE.INTRA.POLAR.0>
0

>  <SCORE.INTRA.REPUL>
0

>  <SCORE.INTRA.REPUL.0>
0

>  <SCORE.INTRA.SOLV>
0.465935

>  <SCORE.INTRA.SOLV.lig_0>
-47.9129

>  <SCORE.INTRA.VDW>
-5.93759

>  <SCORE.INTRA.VDW.0>
2.00851

>  <SCORE.INTRA.norm>
-0.29777

>  <SCORE.RESTR>
0

>  <SCORE.RESTR.CAVITY>
0

>  <SCORE.RESTR.norm>
0

>  <SCORE.SYSTEM>
0

>  <SCORE.SYSTEM.CONST>
0

>  <SCORE.SYSTEM.DIHEDRAL>
0

>  <SCORE.SYSTEM.SOLV>
0

>  <SCORE.SYSTEM.norm>
0

>  <SCORE.heavy>
27

>  <SCORE.norm>
-0.841093

>  <RMSD>
1.223

$$$$
ligand
 OpenBabel11021811483D
libRbt.so/2013.1/901 2013/11/27
 27 29  0  0  0  0  0  0  0  0999 V2000
  -16.4156   -5.9990   27.6425 N   0  0  0  0  0  0  0  0  0  0  0  0
  -15.0400   -5.8731   28.1166 C   0  0  2  0  0  0  0  0  0  0  0  0
  -14.3820   -4.5886   27.6198 C   0  0  0  0  0  0  0  0  0  0  0  0
  -13.5024   -4.0280   28.2774 O   0  0  0  0  0  0  0  0  0  0  0  0
  -14.2185   -7.1014   27.7366 C   0  0  0  0  0  0  0  0  0  0  0  0
  -12.8068   -7.0805   28.3022 C   0  0  0  0  0  0  0  0  0  0  0  0
  -12.4210   -8.4981   29.3594 S   0  0  2  0  0  0  0  0  0  0  0  0
  -13.0875   -9.8480   28.3544 C   0  0  0  0  0  0  0  0  0  0  0  0
  -13.7023   -8.3375   30.6326 C   0  0  0  0  0  0  0  0  0  0  0  0
  -13.0631   -7.8835   31.9371 C   0  0  1  0  0  0  0  0  0  0  0  0
  -12.7133   -6.5260   31.8098 O   0  0  0  0  0  0  0  0  0  0  0  0
  -13.9585   -7.9331   33.1609 C   0  0  1  0  0  0  0  0  0  0  0  0
  -13.7572   -9.1267   33.8845 O   0  0  0  0  0  0  0  0  0  0  0  0
  -13.4891   -6.7453   33.9763 C   0  0  1  0  0  0  0  0  0  0  0  0
  -12.7356   -7.2221   35.0638 O   0  0  0  0  0  0  0  0  0  0  0  0
  -12.5971   -5.9108   33.0672 C   0  0  2  0  0  0  0  0  0  0  0  0
  -14.7228   -4.0834   26.5501 O   0  0  0  0  0  0  0  0  0  0  0  0
  -16.2588   -2.7642   30.9538 N   0  0  0  0  0  0  0  0  0  0  0  0
  -16.0802   -4.1186   30.7523 C   0  0  0  0  0  0  0  0  0  0  0  0
  -15.0580   -4.7958   31.3899 N   0  0  0  0  0  0  0  0  0  0  0  0
  -14.2140   -4.1364   32.2187 C   0  0  0  0  0  0  0  0  0  0  0  0
  -14.3836   -2.7753   32.4404 C   0  0  0  0  0  0  0  0  0  0  0  0
  -15.4076   -2.0877   31.8005 C   0  0  0  0  0  0  0  0  0  0  0  0
  -15.5639   -0.7821   32.0055 N   0  0  0  0  0  0  0  0  0  0  0  0
  -13.4251   -2.3735   33.3026 N   0  0  0  0  0  0  0  0  0  0  0  0
  -12.6705   -3.4451   33.6416 C   0  0  0  0  0  0  0  0  0  0  0  0
  -13.1450   -4.5467   32.9799 N   0  0  0  0  0  0  0  0  0  0  0  0
  2  1  1  6  0  0  0
  2  3  1  0  0  0  0
  2  5  1  0  0  0  0
  3  4  1  0  0  0  0
  3 17  1  0  0  0  0
  5  6  1  0  0  0  0
  7  6  1  6  0  0  0
  7  8  1  0  0  0  0
  7  9  1  0  0  0  0
 10  9  1  6  0  0  0
 10 11  1  0  0  0  0
 10 12  1  0  0  0  0
 11 16  1  0  0  0  0
 12 13  1  1  0  0  0
 12 14  1  0  0  0  0
 14 15  1  1  0  0  0
 14 16  1  0  0  0  0
 16 27  1  6  0  0  0
 18 19  2  0  0  0  0
 18 23  1  0  0  0  0
 19 20  1  0  0  0  0
 20 21  2  0  0  0  0
 21 22  1  0  0  0  0
 21 27  1  0  0  0  0
 22 23  2  0  0  0  0
 22 25  1  0  0  0  0
 23 24  1  0  0  0  0
 25 26  2  0  0  0  0
 26 27  1  0  0  0  0
M  END
>  <CHROM.1>
150.51027499,-175.25193604,121.56347956,45.38172487,-108.47610996,73.26303303
34.93719912,-13.92944743,-5.71543041,30.89302865,1.06699428,1.20978515,-2.05944579

>  <Name>
ligand

>  <RI>
0

>  <Rbt.Current_Directory>
/home/itssahil/PROJECTS/Mol_Feturizer/New_Systems/rnas/3GX6

>  <Rbt.Executable>
rbdock ($Id: //depot/dev/client3/rdock/2013.1/src/exe/rbdock.cxx#4 $)

>  <Rbt.Library>
libRbt.so (2013.1, Build901 2013/11/27)

>  <Rbt.Parameter_File>
/export/apps/rDock/src/rDock_2013.1_src/data/scripts/dock_solv.prm

>  <Rbt.Receptor>
prm/pocket_docking_2.prm

>  <SCORE>
-18.8104

>  <SCORE.INTER>
-11.9945

>  <SCORE.INTER.CONST>
1

>  <SCORE.INTER.POLAR>
0

>  <SCORE.INTER.ROT>
7

>  <SCORE.INTER.SOLV>
17.8851

>  <SCORE.INTER.VDW>
-22.2247

>  <SCORE.INTER.norm>
-0.44424

>  <SCORE.INTRA>
-6.83417

>  <SCORE.INTRA.DIHEDRAL>
-2.21747

>  <SCORE.INTRA.DIHEDRAL.0>
15.0182

>  <SCORE.INTRA.POLAR>
0

>  <SCORE.INTRA.POLAR.0>
0

>  <SCORE.INTRA.REPUL>
0

>  <SCORE.INTRA.REPUL.0>
0

>  <SCORE.INTRA.SOLV>
-1.45708

>  <SCORE.INTRA.SOLV.lig_0>
-47.9129

>  <SCORE.INTRA.VDW>
-4.9969

>  <SCORE.INTRA.VDW.0>
2.00851

>  <SCORE.INTRA.norm>
-0.253118

>  <SCORE.RESTR>
0.0182461

>  <SCORE.RESTR.CAVITY>
0.0182461

>  <SCORE.RESTR.norm>
0.000675783

>  <SCORE.SYSTEM>
0

>  <SCORE.SYSTEM.CONST>
0

>  <SCORE.SYSTEM.DIHEDRAL>
0

>  <SCORE.SYSTEM.SOLV>
0

>  <SCORE.SYSTEM.norm>
0

>  <SCORE.heavy>
27

>  <SCORE.norm>
-0.696682

>  <RMSD>
1.236

$$$$
ligand
 OpenBabel11021811483D
libRbt.so/2013.1/901 2013/11/27
 27 29  0  0  0  0  0  0  0  0999 V2000
  -15.5239   -6.5386   27.5469 N   0  0  0  0  0  0  0  0  0  0  0  0
  -14.3666   -6.3905   28.4252 C   0  0  2  0  0  0  0  0  0  0  0  0
  -14.0687   -4.9252   28.7322 C   0  0  0  0  0  0  0  0  0  0  0  0
  -14.9568   -4.0712   28.6845 O   0  0  0  0  0  0  0  0  0  0  0  0
  -13.1459   -7.0952   27.8411 C   0  0  0  0  0  0  0  0  0  0  0  0
  -12.0787   -7.4102   28.8778 C   0  0  0  0  0  0  0  0  0  0  0  0
  -12.4113   -8.9076   29.8389 S   0  0  2  0  0  0  0  0  0  0  0  0
  -13.2242   -9.9286   28.5846 C   0  0  0  0  0  0  0  0  0  0  0  0
  -13.8296   -8.3709   30.8333 C   0  0  0  0  0  0  0  0  0  0  0  0
  -13.3389   -7.8781   32.1871 C   0  0  1  0  0  0  0  0  0  0  0  0
  -12.9308   -6.5379   32.0490 O   0  0  0  0  0  0  0  0  0  0  0  0
  -14.3776   -7.8481   33.2926 C   0  0  1  0  0  0  0  0  0  0  0  0
  -14.3059   -9.0137   34.0831 O   0  0  0  0  0  0  0  0  0  0  0  0
  -13.9712   -6.6393   34.1108 C   0  0  1  0  0  0  0  0  0  0  0  0
  -13.3719   -7.0887   35.3010 O   0  0  0  0  0  0  0  0  0  0  0  0
  -12.9478   -5.8713   33.2853 C   0  0  2  0  0  0  0  0  0  0  0  0
  -12.9291   -4.5666   29.0295 O   0  0  0  0  0  0  0  0  0  0  0  0
  -16.8497   -2.8063   31.5087 N   0  0  0  0  0  0  0  0  0  0  0  0
  -16.7887   -4.1859   31.5219 C   0  0  0  0  0  0  0  0  0  0  0  0
  -15.6785   -4.8360   32.0270 N   0  0  0  0  0  0  0  0  0  0  0  0
  -14.6324   -4.1259   32.5120 C   0  0  0  0  0  0  0  0  0  0  0  0
  -14.6796   -2.7372   32.5148 C   0  0  0  0  0  0  0  0  0  0  0  0
  -15.7915   -2.0771   32.0061 C   0  0  0  0  0  0  0  0  0  0  0  0
  -15.8324   -0.7469   32.0000 N   0  0  0  0  0  0  0  0  0  0  0  0
  -13.5267   -2.2847   33.0529 N   0  0  0  0  0  0  0  0  0  0  0  0
  -12.7656   -3.3479   33.4036 C   0  0  0  0  0  0  0  0  0  0  0  0
  -13.4350   -4.4974   33.0763 N   0  0  0  0  0  0  0  0  0  0  0  0
  2  1  1  6  0  0  0
  2  3  1  0  0  0  0
  2  5  1  0  0  0  0
  3  4  1  0  0  0  0
  3 17  1  0  0  0  0
  5  6  1  0  0  0  0
  7  6  1  6  0  0  0
  7  8  1  0  0  0  0
  7  9  1  0  0  0  0
 10  9  1  6  0  0  0
 10 11  1  0  0  0  0
 10 12  1  0  0  0  0
 11 16  1  0  0  0  0
 12 13  1  1  0  0  0
 12 14  1  0  0  0  0
 14 15  1  1  0  0  0
 14 16  1  0  0  0  0
 16 27  1  6  0  0  0
 18 19  2  0  0  0  0
 18 23  1  0  0  0  0
 19 20  1  0  0  0  0
 20 21  2  0  0  0  0
 21 22  1  0  0  0  0
 21 27  1  0  0  0  0
 22 23  2  0  0  0  0
 22 25  1  0  0  0  0
 23 24  1  0  0  0  0
 25 26  2  0  0  0  0
 26 27  1  0  0  0  0
M  END
>  <CHROM.1>
25.60943966,-159.55170697,81.20654117,34.20142472,-95.08562405,83.39340584
56.82427852,-14.02988194,-5.81004128,31.25553967,0.52955389,1.22115233,-1.67953038

>  <Name>
ligand

>  <RI>
0

>  <Rbt.Current_Directory>
/home/itssahil/PROJECTS/Mol_Feturizer/New_Systems/rnas/3GX6

>  <Rbt.Executable>
rbdock ($Id: //depot/dev/client3/rdock/2013.1/src/exe/rbdock.cxx#4 $)

>  <Rbt.Library>
libRbt.so (2013.1, Build901 2013/11/27)

>  <Rbt.Parameter_File>
/export/apps/rDock/src/rDock_2013.1_src/data/scripts/dock_solv.prm

>  <Rbt.Receptor>
prm/pocket_docking_2.prm

>  <SCORE>
-19.4899

>  <SCORE.INTER>
-12.8595

>  <SCORE.INTER.CONST>
1

>  <SCORE.INTER.POLAR>
0

>  <SCORE.INTER.ROT>
7

>  <SCORE.INTER.SOLV>
15.2497

>  <SCORE.INTER.VDW>
-21.9229

>  <SCORE.INTER.norm>
-0.476278

>  <SCORE.INTRA>
-6.67686

>  <SCORE.INTRA.DIHEDRAL>
-4.429

>  <SCORE.INTRA.DIHEDRAL.0>
15.0182

>  <SCORE.INTRA.POLAR>
0

>  <SCORE.INTRA.POLAR.0>
0

>  <SCORE.INTRA.REPUL>
0

>  <SCORE.INTRA.REPUL.0>
0

>  <SCORE.INTRA.SOLV>
-0.684651

>  <SCORE.INTRA.SOLV.lig_0>
-47.9129

>  <SCORE.INTRA.VDW>
-4.12003

>  <SCORE.INTRA.VDW.0>
2.00851

>  <SCORE.INTRA.norm>
-0.247291

>  <SCORE.RESTR>
0.0464961

>  <SCORE.RESTR.CAVITY>
0.0464961

>  <SCORE.RESTR.norm>
0.00172208

>  <SCORE.SYSTEM>
0

>  <SCORE.SYSTEM.CONST>
0

>  <SCORE.SYSTEM.DIHEDRAL>
0

>  <SCORE.SYSTEM.SOLV>
0

>  <SCORE.SYSTEM.norm>
0

>  <SCORE.heavy>
27

>  <SCORE.norm>
-0.721847

>  <RMSD>
1.251

$$$$
ligand
 OpenBabel11021811483D
libRbt.so/2013.1/901 2013/11/27
 27 29  0  0  0  0  0  0  0  0999 V2000
  -14.7429   -6.4236   26.7857 N   0  0  0  0  0  0  0  0  0  0  0  0
  -14.5829   -6.0932   28.1993 C   0  0  2  0  0  0  0  0  0  0  0  0
  -15.1637   -4.7215   28.5326 C   0  0  0  0  0  0  0  0  0  0  0  0
  -15.3818   -4.3887   29.6997 O   0  0  0  0  0  0  0  0  0  0  0  0
  -13.1198   -6.1943   28.6200 C   0  0  0  0  0  0  0  0  0  0  0  0
  -12.4749   -7.5194   28.2437 C   0  0  0  0  0  0  0  0  0  0  0  0
  -12.4002   -8.7097   29.6053 S   0  0  2  0  0  0  0  0  0  0  0  0
  -12.9506  -10.2118   28.7584 C   0  0  0  0  0  0  0  0  0  0  0  0
  -13.8900   -8.2616   30.5371 C   0  0  0  0  0  0  0  0  0  0  0  0
  -13.4956   -7.8324   31.9430 C   0  0  1  0  0  0  0  0  0  0  0  0
  -13.0078   -6.5133   31.8829 O   0  0  0  0  0  0  0  0  0  0  0  0
  -14.6247   -7.7754   32.9548 C   0  0  1  0  0  0  0  0  0  0  0  0
  -14.6837   -8.9638   33.7117 O   0  0  0  0  0  0  0  0  0  0  0  0
  -14.2297   -6.6127   33.8426 C   0  0  1  0  0  0  0  0  0  0  0  0
  -13.7618   -7.1257   35.0656 O   0  0  0  0  0  0  0  0  0  0  0  0
  -13.0990   -5.8799   33.1333 C   0  0  2  0  0  0  0  0  0  0  0  0
  -15.4313   -3.9202   27.6371 O   0  0  0  0  0  0  0  0  0  0  0  0
  -16.9900   -2.5313   31.9406 N   0  0  0  0  0  0  0  0  0  0  0  0
  -17.0508   -3.9072   32.0403 C   0  0  0  0  0  0  0  0  0  0  0  0
  -15.9240   -4.6396   32.3633 N   0  0  0  0  0  0  0  0  0  0  0  0
  -14.7425   -4.0151   32.5820 C   0  0  0  0  0  0  0  0  0  0  0  0
  -14.6641   -2.6306   32.4946 C   0  0  0  0  0  0  0  0  0  0  0  0
  -15.7924   -1.8884   32.1676 C   0  0  0  0  0  0  0  0  0  0  0  0
  -15.7148   -0.5631   32.0746 N   0  0  0  0  0  0  0  0  0  0  0  0
  -13.3906   -2.2701   32.7628 N   0  0  0  0  0  0  0  0  0  0  0  0
  -12.6723   -3.3854   33.0328 C   0  0  0  0  0  0  0  0  0  0  0  0
  -13.4938   -4.4765   32.9260 N   0  0  0  0  0  0  0  0  0  0  0  0
  2  1  1  6  0  0  0
  2  3  1  0  0  0  0
  2  5  1  0  0  0  0
  3  4  1  0  0  0  0
  3 17  1  0  0  0  0
  5  6  1  0  0  0  0
  7  6  1  6  0  0  0
  7  8  1  0  0  0  0
  7  9  1  0  0  0  0
 10  9  1  6  0  0  0
 10 11  1  0  0  0  0
 10 12  1  0  0  0  0
 11 16  1  0  0  0  0
 12 13  1  1  0  0  0
 12 14  1  0  0  0  0
 14 15  1  1  0  0  0
 14 16  1  0  0  0  0
 16 27  1  6  0  0  0
 18 19  2  0  0  0  0
 18 23  1  0  0  0  0
 19 20  1  0  0  0  0
 20 21  2  0  0  0  0
 21 22  1  0  0  0  0
 21 27  1  0  0  0  0
 22 23  2  0  0  0  0
 22 25  1  0  0  0  0
 23 24  1  0  0  0  0
 25 26  2  0  0  0  0
 26 27  1  0  0  0  0
M  END
>  <CHROM.1>
164.38545926,-51.71065228,-98.93382403,135.04670889,-119.57250290,78.45167375
74.31650119,-14.24349319,-5.68775392,31.14154768,0.51912614,1.20259287,-1.66958492

>  <Name>
ligand

>  <RI>
0

>  <Rbt.Current_Directory>
/home/itssahil/PROJECTS/Mol_Feturizer/New_Systems/rnas/3GX6

>  <Rbt.Executable>
rbdock ($Id: //depot/dev/client3/rdock/2013.1/src/exe/rbdock.cxx#4 $)

>  <Rbt.Library>
libRbt.so (2013.1, Build901 2013/11/27)

>  <Rbt.Parameter_File>
/export/apps/rDock/src/rDock_2013.1_src/data/scripts/dock_solv.prm

>  <Rbt.Receptor>
prm/pocket_docking_2.prm

>  <SCORE>
-15.7498

>  <SCORE.INTER>
-11.0441

>  <SCORE.INTER.CONST>
1

>  <SCORE.INTER.POLAR>
0

>  <SCORE.INTER.ROT>
7

>  <SCORE.INTER.SOLV>
15.717

>  <SCORE.INTER.VDW>
-20.8684

>  <SCORE.INTER.norm>
-0.409041

>  <SCORE.INTRA>
-4.71343

>  <SCORE.INTRA.DIHEDRAL>
0.623821

>  <SCORE.INTRA.DIHEDRAL.0>
15.0182

>  <SCORE.INTRA.POLAR>
0

>  <SCORE.INTRA.POLAR.0>
0

>  <SCORE.INTRA.REPUL>
0

>  <SCORE.INTRA.REPUL.0>
0

>  <SCORE.INTRA.SOLV>
-0.23201

>  <SCORE.INTRA.SOLV.lig_0>
-47.9129

>  <SCORE.INTRA.VDW>
-4.90934

>  <SCORE.INTRA.VDW.0>
2.00851

>  <SCORE.INTRA.norm>
-0.174572

>  <SCORE.RESTR>
0.00770692

>  <SCORE.RESTR.CAVITY>
0.00770692

>  <SCORE.RESTR.norm>
0.000285442

>  <SCORE.SYSTEM>
0

>  <SCORE.SYSTEM.CONST>
0

>  <SCORE.SYSTEM.DIHEDRAL>
0

>  <SCORE.SYSTEM.SOLV>
0

>  <SCORE.SYSTEM.norm>
0

>  <SCORE.heavy>
27

>  <SCORE.norm>
-0.583327

>  <RMSD>
1.255

$$$$
ligand
 OpenBabel11021811483D
libRbt.so/2013.1/901 2013/11/27
 27 29  0  0  0  0  0  0  0  0999 V2000
  -12.2245   -6.9460   26.3606 N   0  0  0  0  0  0  0  0  0  0  0  0
  -13.3163   -7.0074   27.3286 C   0  0  2  0  0  0  0  0  0  0  0  0
  -14.5298   -6.2032   26.8697 C   0  0  0  0  0  0  0  0  0  0  0  0
  -15.6674   -6.6745   26.9337 O   0  0  0  0  0  0  0  0  0  0  0  0
  -12.8450   -6.5627   28.7099 C   0  0  0  0  0  0  0  0  0  0  0  0
  -11.6374   -7.3384   29.2130 C   0  0  0  0  0  0  0  0  0  0  0  0
  -12.0571   -8.9024   30.0217 S   0  0  2  0  0  0  0  0  0  0  0  0
  -12.8910   -9.7606   28.6634 C   0  0  0  0  0  0  0  0  0  0  0  0
  -13.4687   -8.3955   31.0410 C   0  0  0  0  0  0  0  0  0  0  0  0
  -12.9603   -7.7233   32.3082 C   0  0  1  0  0  0  0  0  0  0  0  0
  -12.6098   -6.3963   31.9954 O   0  0  0  0  0  0  0  0  0  0  0  0
  -13.9680   -7.5957   33.4352 C   0  0  1  0  0  0  0  0  0  0  0  0
  -13.8280   -8.6524   34.3585 O   0  0  0  0  0  0  0  0  0  0  0  0
  -13.5872   -6.2819   34.0871 C   0  0  1  0  0  0  0  0  0  0  0  0
  -12.9374   -6.5604   35.3029 O   0  0  0  0  0  0  0  0  0  0  0  0
  -12.6186   -5.5844   33.1416 C   0  0  2  0  0  0  0  0  0  0  0  0
  -14.3936   -5.0652   26.4200 O   0  0  0  0  0  0  0  0  0  0  0  0
  -16.9433   -2.6934   32.2963 N   0  0  0  0  0  0  0  0  0  0  0  0
  -16.8650   -4.0257   32.6510 C   0  0  0  0  0  0  0  0  0  0  0  0
  -15.6375   -4.6344   32.8321 N   0  0  0  0  0  0  0  0  0  0  0  0
  -14.4935   -3.9309   32.6588 C   0  0  0  0  0  0  0  0  0  0  0  0
  -14.5526   -2.5872   32.3102 C   0  0  0  0  0  0  0  0  0  0  0  0
  -15.7834   -1.9695   32.1239 C   0  0  0  0  0  0  0  0  0  0  0  0
  -15.8397   -0.6849   31.7807 N   0  0  0  0  0  0  0  0  0  0  0  0
  -13.2863   -2.1290   32.2102 N   0  0  0  0  0  0  0  0  0  0  0  0
  -12.4353   -3.1405   32.5026 C   0  0  0  0  0  0  0  0  0  0  0  0
  -13.1656   -4.2649   32.7836 N   0  0  0  0  0  0  0  0  0  0  0  0
  2  1  1  6  0  0  0
  2  3  1  0  0  0  0
  2  5  1  0  0  0  0
  3  4  1  0  0  0  0
  3 17  1  0  0  0  0
  5  6  1  0  0  0  0
  7  6  1  6  0  0  0
  7  8  1  0  0  0  0
  7  9  1  0  0  0  0
 10  9  1  6  0  0  0
 10 11  1  0  0  0  0
 10 12  1  0  0  0  0
 11 16  1  0  0  0  0
 12 13  1  1  0  0  0
 12 14  1  0  0  0  0
 14 15  1  1  0  0  0
 14 16  1  0  0  0  0
 16 27  1  6  0  0  0
 18 19  2  0  0  0  0
 18 23  1  0  0  0  0
 19 20  1  0  0  0  0
 20 21  2  0  0  0  0
 21 22  1  0  0  0  0
 21 27  1  0  0  0  0
 22 23  2  0  0  0  0
 22 25  1  0  0  0  0
 23 24  1  0  0  0  0
 25 26  2  0  0  0  0
 26 27  1  0  0  0  0
M  END
>  <CHROM.1>
133.56693218,-54.80948749,-84.59402866,60.31264695,-80.67264219,79.74430850
80.88288413,-13.76523346,-5.85396149,31.03893781,0.91130699,1.13167977,-1.69341883

>  <Name>
ligand

>  <RI>
0

>  <Rbt.Current_Directory>
/home/itssahil/PROJECTS/Mol_Feturizer/New_Systems/rnas/3GX6

>  <Rbt.Executable>
rbdock ($Id: //depot/dev/client3/rdock/2013.1/src/exe/rbdock.cxx#4 $)

>  <Rbt.Library>
libRbt.so (2013.1, Build901 2013/11/27)

>  <Rbt.Parameter_File>
/export/apps/rDock/src/rDock_2013.1_src/data/scripts/dock_solv.prm

>  <Rbt.Receptor>
prm/pocket_docking_6.prm

>  <SCORE>
-23.7492

>  <SCORE.INTER>
-16.6113

>  <SCORE.INTER.CONST>
1

>  <SCORE.INTER.POLAR>
0

>  <SCORE.INTER.ROT>
7

>  <SCORE.INTER.SOLV>
17.6184

>  <SCORE.INTER.VDW>
-25.2136

>  <SCORE.INTER.norm>
-0.615232

>  <SCORE.INTRA>
-7.13799

>  <SCORE.INTRA.DIHEDRAL>
-7.82364

>  <SCORE.INTRA.DIHEDRAL.0>
15.0182

>  <SCORE.INTRA.POLAR>
0

>  <SCORE.INTRA.POLAR.0>
0

>  <SCORE.INTRA.REPUL>
0

>  <SCORE.INTRA.REPUL.0>
0

>  <SCORE.INTRA.SOLV>
0.21157

>  <SCORE.INTRA.SOLV.lig_0>
-47.9129

>  <SCORE.INTRA.VDW>
-3.33195

>  <SCORE.INTRA.VDW.0>
2.00851

>  <SCORE.INTRA.norm>
-0.26437

>  <SCORE.RESTR>
0

>  <SCORE.RESTR.CAVITY>
0

>  <SCORE.RESTR.norm>
0

>  <SCORE.SYSTEM>
0

>  <SCORE.SYSTEM.CONST>
0

>  <SCORE.SYSTEM.DIHEDRAL>
0

>  <SCORE.SYSTEM.SOLV>
0

>  <SCORE.SYSTEM.norm>
0

>  <SCORE.heavy>
27

>  <SCORE.norm>
-0.879602

>  <RMSD>
1.259

$$$$
ligand
 OpenBabel11021811483D
libRbt.so/2013.1/901 2013/11/27
 27 29  0  0  0  0  0  0  0  0999 V2000
  -15.5213   -6.5617   27.5309 N   0  0  0  0  0  0  0  0  0  0  0  0
  -14.3829   -6.3960   28.4307 C   0  0  2  0  0  0  0  0  0  0  0  0
  -14.1007   -4.9254   28.7267 C   0  0  0  0  0  0  0  0  0  0  0  0
  -12.9826   -4.5517   29.0881 O   0  0  0  0  0  0  0  0  0  0  0  0
  -13.1462   -7.0993   27.8795 C   0  0  0  0  0  0  0  0  0  0  0  0
  -12.0768   -7.3501   28.9313 C   0  0  0  0  0  0  0  0  0  0  0  0
  -12.3462   -8.8519   29.9053 S   0  0  2  0  0  0  0  0  0  0  0  0
  -13.1287   -9.9119   28.6641 C   0  0  0  0  0  0  0  0  0  0  0  0
  -13.7767   -8.3617   30.9061 C   0  0  0  0  0  0  0  0  0  0  0  0
  -13.2956   -7.8421   32.2533 C   0  0  1  0  0  0  0  0  0  0  0  0
  -12.9125   -6.4965   32.0977 O   0  0  0  0  0  0  0  0  0  0  0  0
  -14.3349   -7.8170   33.3583 C   0  0  1  0  0  0  0  0  0  0  0  0
  -14.2419   -8.9706   34.1640 O   0  0  0  0  0  0  0  0  0  0  0  0
  -13.9514   -6.5901   34.1606 C   0  0  1  0  0  0  0  0  0  0  0  0
  -13.3441   -7.0127   35.3566 O   0  0  0  0  0  0  0  0  0  0  0  0
  -12.9422   -5.8141   33.3251 C   0  0  2  0  0  0  0  0  0  0  0  0
  -14.9903   -4.0819   28.6145 O   0  0  0  0  0  0  0  0  0  0  0  0
  -16.8742   -2.8452   31.4544 N   0  0  0  0  0  0  0  0  0  0  0  0
  -16.7837   -4.2229   31.4775 C   0  0  0  0  0  0  0  0  0  0  0  0
  -15.6697   -4.8458   32.0079 N   0  0  0  0  0  0  0  0  0  0  0  0
  -14.6488   -4.1103   32.5085 C   0  0  0  0  0  0  0  0  0  0  0  0
  -14.7260   -2.7230   32.5016 C   0  0  0  0  0  0  0  0  0  0  0  0
  -15.8418   -2.0902   31.9674 C   0  0  0  0  0  0  0  0  0  0  0  0
  -15.9114   -0.7613   31.9522 N   0  0  0  0  0  0  0  0  0  0  0  0
  -13.5938   -2.2424   33.0590 N   0  0  0  0  0  0  0  0  0  0  0  0
  -12.8169   -3.2867   33.4310 C   0  0  0  0  0  0  0  0  0  0  0  0
  -13.4548   -4.4524   33.0981 N   0  0  0  0  0  0  0  0  0  0  0  0
  2  1  1  6  0  0  0
  2  3  1  0  0  0  0
  2  5  1  0  0  0  0
  3  4  1  0  0  0  0
  3 17  1  0  0  0  0
  5  6  1  0  0  0  0
  7  6  1  6  0  0  0
  7  8  1  0  0  0  0
  7  9  1  0  0  0  0
 10  9  1  6  0  0  0
 10 11  1  0  0  0  0
 10 12  1  0  0  0  0
 11 16  1  0  0  0  0
 12 13  1  1  0  0  0
 12 14  1  0  0  0  0
 14 15  1  1  0  0  0
 14 16  1  0  0  0  0
 16 27  1  6  0  0  0
 18 19  2  0  0  0  0
 18 23  1  0  0  0  0
 19 20  1  0  0  0  0
 20 21  2  0  0  0  0
 21 22  1  0  0  0  0
 21 27  1  0  0  0  0
 22 23  2  0  0  0  0
 22 25  1  0  0  0  0
 23 24  1  0  0  0  0
 25 26  2  0  0  0  0
 26 27  1  0  0  0  0
M  END
>  <CHROM.1>
-156.59358832,-161.64784079,83.65595050,32.93305190,-95.13860054,82.19881560
55.63925213,-14.02709574,-5.78883606,31.27833103,0.53770989,1.20282667,-1.70292445

>  <Name>
ligand

>  <RI>
0

>  <Rbt.Current_Directory>
/home/itssahil/PROJECTS/Mol_Feturizer/New_Systems/rnas/3GX6

>  <Rbt.Executable>
rbdock ($Id: //depot/dev/client3/rdock/2013.1/src/exe/rbdock.cxx#4 $)

>  <Rbt.Library>
libRbt.so (2013.1, Build901 2013/11/27)

>  <Rbt.Parameter_File>
/export/apps/rDock/src/rDock_2013.1_src/data/scripts/dock_solv.prm

>  <Rbt.Receptor>
prm/pocket_docking_2.prm

>  <SCORE>
-19.8422

>  <SCORE.INTER>
-13.2228

>  <SCORE.INTER.CONST>
1

>  <SCORE.INTER.POLAR>
0

>  <SCORE.INTER.ROT>
7

>  <SCORE.INTER.SOLV>
15.2466

>  <SCORE.INTER.VDW>
-22.1641

>  <SCORE.INTER.norm>
-0.489733

>  <SCORE.INTRA>
-6.68331

>  <SCORE.INTRA.DIHEDRAL>
-4.41304

>  <SCORE.INTRA.DIHEDRAL.0>
15.0182

>  <SCORE.INTRA.POLAR>
0

>  <SCORE.INTRA.POLAR.0>
0

>  <SCORE.INTRA.REPUL>
0

>  <SCORE.INTRA.REPUL.0>
0

>  <SCORE.INTRA.SOLV>
-0.815309

>  <SCORE.INTRA.SOLV.lig_0>
-47.9129

>  <SCORE.INTRA.VDW>
-4.06914

>  <SCORE.INTRA.VDW.0>
2.00851

>  <SCORE.INTRA.norm>
-0.24753

>  <SCORE.RESTR>
0.0638951

>  <SCORE.RESTR.CAVITY>
0.0638951

>  <SCORE.RESTR.norm>
0.00236648

>  <SCORE.SYSTEM>
0

>  <SCORE.SYSTEM.CONST>
0

>  <SCORE.SYSTEM.DIHEDRAL>
0

>  <SCORE.SYSTEM.SOLV>
0

>  <SCORE.SYSTEM.norm>
0

>  <SCORE.heavy>
27

>  <SCORE.norm>
-0.734897

>  <RMSD>
1.262

$$$$
ligand
 OpenBabel11021811483D
libRbt.so/2013.1/901 2013/11/27
 27 29  0  0  0  0  0  0  0  0999 V2000
  -14.6805   -6.5307   27.0294 N   0  0  0  0  0  0  0  0  0  0  0  0
  -14.7029   -5.9174   28.3547 C   0  0  2  0  0  0  0  0  0  0  0  0
  -13.7219   -4.7526   28.4595 C   0  0  0  0  0  0  0  0  0  0  0  0
  -14.0483   -3.6914   28.9959 O   0  0  0  0  0  0  0  0  0  0  0  0
  -14.4478   -6.9582   29.4408 C   0  0  0  0  0  0  0  0  0  0  0  0
  -12.9823   -7.3416   29.5755 C   0  0  0  0  0  0  0  0  0  0  0  0
  -12.7189   -9.0023   30.2456 S   0  0  2  0  0  0  0  0  0  0  0  0
  -13.5622   -9.9994   28.9921 C   0  0  0  0  0  0  0  0  0  0  0  0
  -13.9318   -9.0266   31.5934 C   0  0  0  0  0  0  0  0  0  0  0  0
  -13.3076   -8.4257   32.8447 C   0  0  1  0  0  0  0  0  0  0  0  0
  -12.9067   -7.1087   32.5508 O   0  0  0  0  0  0  0  0  0  0  0  0
  -14.2326   -8.2849   34.0390 C   0  0  1  0  0  0  0  0  0  0  0  0
  -14.0910   -9.3786   34.9178 O   0  0  0  0  0  0  0  0  0  0  0  0
  -13.7404   -7.0159   34.7048 C   0  0  1  0  0  0  0  0  0  0  0  0
  -13.0300   -7.3694   35.8659 O   0  0  0  0  0  0  0  0  0  0  0  0
  -12.7982   -6.3374   33.7197 C   0  0  2  0  0  0  0  0  0  0  0  0
  -12.5826   -4.8502   28.0033 O   0  0  0  0  0  0  0  0  0  0  0  0
  -16.6012   -3.4006   31.5546 N   0  0  0  0  0  0  0  0  0  0  0  0
  -16.5124   -4.7778   31.6044 C   0  0  0  0  0  0  0  0  0  0  0  0
  -15.4350   -5.3916   32.2149 N   0  0  0  0  0  0  0  0  0  0  0  0
  -14.4485   -4.6476   32.7690 C   0  0  0  0  0  0  0  0  0  0  0  0
  -14.5249   -3.2607   32.7362 C   0  0  0  0  0  0  0  0  0  0  0  0
  -15.6040   -2.6371   32.1216 C   0  0  0  0  0  0  0  0  0  0  0  0
  -15.6723   -1.3086   32.0819 N   0  0  0  0  0  0  0  0  0  0  0  0
  -13.4310   -2.7706   33.3581 N   0  0  0  0  0  0  0  0  0  0  0  0
  -12.6798   -3.8085   33.7951 C   0  0  0  0  0  0  0  0  0  0  0  0
  -13.2950   -4.9798   33.4395 N   0  0  0  0  0  0  0  0  0  0  0  0
  2  1  1  6  0  0  0
  2  3  1  0  0  0  0
  2  5  1  0  0  0  0
  3  4  1  0  0  0  0
  3 17  1  0  0  0  0
  5  6  1  0  0  0  0
  7  6  1  6  0  0  0
  7  8  1  0  0  0  0
  7  9  1  0  0  0  0
 10  9  1  6  0  0  0
 10 11  1  0  0  0  0
 10 12  1  0  0  0  0
 11 16  1  0  0  0  0
 12 13  1  1  0  0  0
 12 14  1  0  0  0  0
 14 15  1  1  0  0  0
 14 16  1  0  0  0  0
 16 27  1  6  0  0  0
 18 19  2  0  0  0  0
 18 23  1  0  0  0  0
 19 20  1  0  0  0  0
 20 21  2  0  0  0  0
 21 22  1  0  0  0  0
 21 27  1  0  0  0  0
 22 23  2  0  0  0  0
 22 25  1  0  0  0  0
 23 24  1  0  0  0  0
 25 26  2  0  0  0  0
 26 27  1  0  0  0  0
M  END
>  <CHROM.1>
135.59458456,77.77454540,-153.80387835,60.36870244,-86.21009898,58.91272879
45.60888219,-13.96837132,-6.10012848,31.58310233,-3.13857814,-1.30979608
1.48033348

>  <Name>
ligand

>  <RI>
0

>  <Rbt.Current_Directory>
/home/itssahil/PROJECTS/Mol_Feturizer/New_Systems/rnas/3GX6

>  <Rbt.Executable>
rbdock ($Id: //depot/dev/client3/rdock/2013.1/src/exe/rbdock.cxx#4 $)

>  <Rbt.Library>
libRbt.so (2013.1, Build901 2013/11/27)

>  <Rbt.Parameter_File>
/export/apps/rDock/src/rDock_2013.1_src/data/scripts/dock_solv.prm

>  <Rbt.Receptor>
prm/pocket_docking_2.prm

>  <SCORE>
-21.5138

>  <SCORE.INTER>
-12.762

>  <SCORE.INTER.CONST>
1

>  <SCORE.INTER.POLAR>
0

>  <SCORE.INTER.ROT>
7

>  <SCORE.INTER.SOLV>
14.3236

>  <SCORE.INTER.VDW>
-21.5492

>  <SCORE.INTER.norm>
-0.472667

>  <SCORE.INTRA>
-8.98744

>  <SCORE.INTRA.DIHEDRAL>
-7.39956

>  <SCORE.INTRA.DIHEDRAL.0>
15.0182

>  <SCORE.INTRA.POLAR>
0

>  <SCORE.INTRA.POLAR.0>
0

>  <SCORE.INTRA.REPUL>
0

>  <SCORE.INTRA.REPUL.0>
0

>  <SCORE.INTRA.SOLV>
-0.55816

>  <SCORE.INTRA.SOLV.lig_0>
-47.9129

>  <SCORE.INTRA.VDW>
-5.00858

>  <SCORE.INTRA.VDW.0>
2.00851

>  <SCORE.INTRA.norm>
-0.332868

>  <SCORE.RESTR>
0.23562

>  <SCORE.RESTR.CAVITY>
0.23562

>  <SCORE.RESTR.norm>
0.00872666

>  <SCORE.SYSTEM>
0

>  <SCORE.SYSTEM.CONST>
0

>  <SCORE.SYSTEM.DIHEDRAL>
0

>  <SCORE.SYSTEM.SOLV>
0

>  <SCORE.SYSTEM.norm>
0

>  <SCORE.heavy>
27

>  <SCORE.norm>
-0.796808

>  <RMSD>
1.277

$$$$
ligand
 OpenBabel11021811483D
libRbt.so/2013.1/901 2013/11/27
 27 29  0  0  0  0  0  0  0  0999 V2000
  -16.7677   -5.4809   29.0258 N   0  0  0  0  0  0  0  0  0  0  0  0
  -15.4494   -5.1131   28.5160 C   0  0  2  0  0  0  0  0  0  0  0  0
  -15.4159   -5.0877   26.9902 C   0  0  0  0  0  0  0  0  0  0  0  0
  -15.0656   -4.0765   26.3776 O   0  0  0  0  0  0  0  0  0  0  0  0
  -14.3712   -6.0333   29.0804 C   0  0  0  0  0  0  0  0  0  0  0  0
  -14.5438   -7.4871   28.6683 C   0  0  0  0  0  0  0  0  0  0  0  0
  -13.4539   -8.6321   29.5501 S   0  0  2  0  0  0  0  0  0  0  0  0
  -13.9155  -10.1957   28.7637 C   0  0  0  0  0  0  0  0  0  0  0  0
  -14.3122   -8.7684   31.1417 C   0  0  0  0  0  0  0  0  0  0  0  0
  -13.4652   -8.1222   32.2286 C   0  0  1  0  0  0  0  0  0  0  0  0
  -13.1035   -6.8313   31.7992 O   0  0  0  0  0  0  0  0  0  0  0  0
  -14.1594   -7.9005   33.5593 C   0  0  1  0  0  0  0  0  0  0  0  0
  -13.8794   -8.9530   34.4552 O   0  0  0  0  0  0  0  0  0  0  0  0
  -13.5369   -6.6127   34.0593 C   0  0  1  0  0  0  0  0  0  0  0  0
  -12.6357   -6.9260   35.0925 O   0  0  0  0  0  0  0  0  0  0  0  0
  -12.7760   -6.0065   32.8879 C   0  0  2  0  0  0  0  0  0  0  0  0
  -15.7447   -6.0799   26.3398 O   0  0  0  0  0  0  0  0  0  0  0  0
  -17.0369   -2.9503   32.3584 N   0  0  0  0  0  0  0  0  0  0  0  0
  -16.9874   -4.3039   32.6272 C   0  0  0  0  0  0  0  0  0  0  0  0
  -15.7735   -4.9563   32.7320 N   0  0  0  0  0  0  0  0  0  0  0  0
  -14.6149   -4.2750   32.5671 C   0  0  0  0  0  0  0  0  0  0  0  0
  -14.6448   -2.9109   32.3045 C   0  0  0  0  0  0  0  0  0  0  0  0
  -15.8618   -2.2492   32.1953 C   0  0  0  0  0  0  0  0  0  0  0  0
  -15.8904   -0.9445   31.9344 N   0  0  0  0  0  0  0  0  0  0  0  0
  -13.3690   -2.4823   32.1939 N   0  0  0  0  0  0  0  0  0  0  0  0
  -12.5398   -3.5331   32.3963 C   0  0  0  0  0  0  0  0  0  0  0  0
  -13.2943   -4.6525   32.6296 N   0  0  0  0  0  0  0  0  0  0  0  0
  2  1  1  6  0  0  0
  2  3  1  0  0  0  0
  2  5  1  0  0  0  0
  3  4  1  0  0  0  0
  3 17  1  0  0  0  0
  5  6  1  0  0  0  0
  7  6  1  6  0  0  0
  7  8  1  0  0  0  0
  7  9  1  0  0  0  0
 10  9  1  6  0  0  0
 10 11  1  0  0  0  0
 10 12  1  0  0  0  0
 11 16  1  0  0  0  0
 12 13  1  1  0  0  0
 12 14  1  0  0  0  0
 14 15  1  1  0  0  0
 14 16  1  0  0  0  0
 16 27  1  6  0  0  0
 18 19  2  0  0  0  0
 18 23  1  0  0  0  0
 19 20  1  0  0  0  0
 20 21  2  0  0  0  0
 21 22  1  0  0  0  0
 21 27  1  0  0  0  0
 22 23  2  0  0  0  0
 22 25  1  0  0  0  0
 23 24  1  0  0  0  0
 25 26  2  0  0  0  0
 26 27  1  0  0  0  0
M  END
>  <CHROM.1>
123.94991285,62.95789774,-170.00781983,-178.36538273,-112.29563419,51.09101231
67.47414652,-14.47148916,-5.83344864,31.08691788,1.85395674,1.18972809,-2.20034267

>  <Name>
ligand

>  <RI>
0

>  <Rbt.Current_Directory>
/home/itssahil/PROJECTS/Mol_Feturizer/New_Systems/rnas/3GX6

>  <Rbt.Executable>
rbdock ($Id: //depot/dev/client3/rdock/2013.1/src/exe/rbdock.cxx#4 $)

>  <Rbt.Library>
libRbt.so (2013.1, Build901 2013/11/27)

>  <Rbt.Parameter_File>
/export/apps/rDock/src/rDock_2013.1_src/data/scripts/dock_solv.prm

>  <Rbt.Receptor>
prm/pocket_docking_5.prm

>  <SCORE>
-22.0648

>  <SCORE.INTER>
-12.3416

>  <SCORE.INTER.CONST>
1

>  <SCORE.INTER.POLAR>
0

>  <SCORE.INTER.ROT>
7

>  <SCORE.INTER.SOLV>
14.7275

>  <SCORE.INTER.VDW>
-21.4036

>  <SCORE.INTER.norm>
-0.457095

>  <SCORE.INTRA>
-9.72322

>  <SCORE.INTRA.DIHEDRAL>
-7.28157

>  <SCORE.INTRA.DIHEDRAL.0>
15.0182

>  <SCORE.INTRA.POLAR>
0

>  <SCORE.INTRA.POLAR.0>
0

>  <SCORE.INTRA.REPUL>
0

>  <SCORE.INTRA.REPUL.0>
0

>  <SCORE.INTRA.SOLV>
-0.744028

>  <SCORE.INTRA.SOLV.lig_0>
-47.9129

>  <SCORE.INTRA.VDW>
-5.71042

>  <SCORE.INTRA.VDW.0>
2.00851

>  <SCORE.INTRA.norm>
-0.360119

>  <SCORE.RESTR>
0

>  <SCORE.RESTR.CAVITY>
0

>  <SCORE.RESTR.norm>
0

>  <SCORE.SYSTEM>
0

>  <SCORE.SYSTEM.CONST>
0

>  <SCORE.SYSTEM.DIHEDRAL>
0

>  <SCORE.SYSTEM.SOLV>
0

>  <SCORE.SYSTEM.norm>
0

>  <SCORE.heavy>
27

>  <SCORE.norm>
-0.817214

>  <RMSD>
1.280

$$$$
ligand
 OpenBabel11021811483D
libRbt.so/2013.1/901 2013/11/27
 27 29  0  0  0  0  0  0  0  0999 V2000
  -14.7600   -4.7623   26.2731 N   0  0  0  0  0  0  0  0  0  0  0  0
  -14.5584   -5.5658   27.4758 C   0  0  2  0  0  0  0  0  0  0  0  0
  -13.3793   -5.0637   28.3049 C   0  0  0  0  0  0  0  0  0  0  0  0
  -13.5049   -4.1135   29.0807 O   0  0  0  0  0  0  0  0  0  0  0  0
  -14.4020   -7.0423   27.1245 C   0  0  0  0  0  0  0  0  0  0  0  0
  -14.6261   -7.9703   28.3084 C   0  0  0  0  0  0  0  0  0  0  0  0
  -13.2509   -8.0006   29.4850 S   0  0  2  0  0  0  0  0  0  0  0  0
  -12.3948   -9.5032   28.9503 C   0  0  0  0  0  0  0  0  0  0  0  0
  -14.0911   -8.5846   30.9822 C   0  0  0  0  0  0  0  0  0  0  0  0
  -13.3091   -8.1340   32.2077 C   0  0  1  0  0  0  0  0  0  0  0  0
  -12.8943   -6.8043   32.0040 O   0  0  0  0  0  0  0  0  0  0  0  0
  -14.0893   -8.0948   33.5083 C   0  0  1  0  0  0  0  0  0  0  0  0
  -13.8918   -9.2776   34.2503 O   0  0  0  0  0  0  0  0  0  0  0  0
  -13.4786   -6.9154   34.2378 C   0  0  1  0  0  0  0  0  0  0  0  0
  -12.6569   -7.4066   35.2681 O   0  0  0  0  0  0  0  0  0  0  0  0
  -12.6272   -6.1624   33.2245 C   0  0  2  0  0  0  0  0  0  0  0  0
  -12.2741   -5.5977   28.2098 O   0  0  0  0  0  0  0  0  0  0  0  0
  -16.2260   -2.8457   31.2692 N   0  0  0  0  0  0  0  0  0  0  0  0
  -16.1377   -4.2115   31.0859 C   0  0  0  0  0  0  0  0  0  0  0  0
  -15.1186   -4.9358   31.6751 N   0  0  0  0  0  0  0  0  0  0  0  0
  -14.1892   -4.3122   32.4375 C   0  0  0  0  0  0  0  0  0  0  0  0
  -14.2669   -2.9398   32.6402 C   0  0  0  0  0  0  0  0  0  0  0  0
  -15.2873   -2.2051   32.0487 C   0  0  0  0  0  0  0  0  0  0  0  0
  -15.3560   -0.8892   32.2351 N   0  0  0  0  0  0  0  0  0  0  0  0
  -13.2360   -2.5794   33.4345 N   0  0  0  0  0  0  0  0  0  0  0  0
  -12.5245   -3.6869   33.7501 C   0  0  0  0  0  0  0  0  0  0  0  0
  -13.1007   -4.7705   33.1415 N   0  0  0  0  0  0  0  0  0  0  0  0
  2  1  1  6  0  0  0
  2  3  1  0  0  0  0
  2  5  1  0  0  0  0
  3  4  1  0  0  0  0
  3 17  1  0  0  0  0
  5  6  1  0  0  0  0
  7  6  1  6  0  0  0
  7  8  1  0  0  0  0
  7  9  1  0  0  0  0
 10  9  1  6  0  0  0
 10 11  1  0  0  0  0
 10 12  1  0  0  0  0
 11 16  1  0  0  0  0
 12 13  1  1  0  0  0
 12 14  1  0  0  0  0
 14 15  1  1  0  0  0
 14 16  1  0  0  0  0
 16 27  1  6  0  0  0
 18 19  2  0  0  0  0
 18 23  1  0  0  0  0
 19 20  1  0  0  0  0
 20 21  2  0  0  0  0
 21 22  1  0  0  0  0
 21 27  1  0  0  0  0
 22 23  2  0  0  0  0
 22 25  1  0  0  0  0
 23 24  1  0  0  0  0
 25 26  2  0  0  0  0
 26 27  1  0  0  0  0
M  END
>  <CHROM.1>
81.85920485,-161.86105977,-75.11162379,-98.54422920,-155.94028638,42.11045765
33.05956246,-13.84760025,-5.83013894,31.10895489,1.41947176,1.30966154,-1.91445369

>  <Name>
ligand

>  <RI>
0

>  <Rbt.Current_Directory>
/home/itssahil/PROJECTS/Mol_Feturizer/New_Systems/rnas/3GX6

>  <Rbt.Executable>
rbdock ($Id: //depot/dev/client3/rdock/2013.1/src/exe/rbdock.cxx#4 $)

>  <Rbt.Library>
libRbt.so (2013.1, Build901 2013/11/27)

>  <Rbt.Parameter_File>
/export/apps/rDock/src/rDock_2013.1_src/data/scripts/dock_solv.prm

>  <Rbt.Receptor>
prm/pocket_docking_2.prm

>  <SCORE>
-18.7005

>  <SCORE.INTER>
-9.91357

>  <SCORE.INTER.CONST>
1

>  <SCORE.INTER.POLAR>
0

>  <SCORE.INTER.ROT>
7

>  <SCORE.INTER.SOLV>
21.7014

>  <SCORE.INTER.VDW>
-22.1095

>  <SCORE.INTER.norm>
-0.367169

>  <SCORE.INTRA>
-8.82341

>  <SCORE.INTRA.DIHEDRAL>
-4.10863

>  <SCORE.INTRA.DIHEDRAL.0>
15.0182

>  <SCORE.INTRA.POLAR>
0

>  <SCORE.INTRA.POLAR.0>
0

>  <SCORE.INTRA.REPUL>
0

>  <SCORE.INTRA.REPUL.0>
0

>  <SCORE.INTRA.SOLV>
-1.62455

>  <SCORE.INTRA.SOLV.lig_0>
-47.9129

>  <SCORE.INTRA.VDW>
-5.95682

>  <SCORE.INTRA.VDW.0>
2.00851

>  <SCORE.INTRA.norm>
-0.326793

>  <SCORE.RESTR>
0.0364265

>  <SCORE.RESTR.CAVITY>
0.0364265

>  <SCORE.RESTR.norm>
0.00134913

>  <SCORE.SYSTEM>
0

>  <SCORE.SYSTEM.CONST>
0

>  <SCORE.SYSTEM.DIHEDRAL>
0

>  <SCORE.SYSTEM.SOLV>
0

>  <SCORE.SYSTEM.norm>
0

>  <SCORE.heavy>
27

>  <SCORE.norm>
-0.692613

>  <RMSD>
1.380

$$$$
ligand
 OpenBabel11021811483D
libRbt.so/2013.1/901 2013/11/27
 27 29  0  0  0  0  0  0  0  0999 V2000
  -16.3374   -5.3652   28.1018 N   0  0  0  0  0  0  0  0  0  0  0  0
  -15.0186   -5.9906   28.0515 C   0  0  2  0  0  0  0  0  0  0  0  0
  -14.1797   -5.4577   26.8929 C   0  0  0  0  0  0  0  0  0  0  0  0
  -14.6696   -4.7113   26.0424 O   0  0  0  0  0  0  0  0  0  0  0  0
  -15.1384   -7.5107   27.9978 C   0  0  0  0  0  0  0  0  0  0  0  0
  -13.8037   -8.2256   28.1415 C   0  0  0  0  0  0  0  0  0  0  0  0
  -12.8418   -7.6974   29.5810 S   0  0  2  0  0  0  0  0  0  0  0  0
  -11.6160   -9.0268   29.6622 C   0  0  0  0  0  0  0  0  0  0  0  0
  -13.9591   -8.1620   30.9316 C   0  0  0  0  0  0  0  0  0  0  0  0
  -13.4037   -7.6388   32.2484 C   0  0  1  0  0  0  0  0  0  0  0  0
  -13.0408   -6.2902   32.0712 O   0  0  0  0  0  0  0  0  0  0  0  0
  -14.3764   -7.6218   33.4126 C   0  0  1  0  0  0  0  0  0  0  0  0
  -14.2272   -8.7747   34.2109 O   0  0  0  0  0  0  0  0  0  0  0  0
  -13.9558   -6.3920   34.1916 C   0  0  1  0  0  0  0  0  0  0  0  0
  -13.2760   -6.8099   35.3497 O   0  0  0  0  0  0  0  0  0  0  0  0
  -13.0036   -5.6082   33.2986 C   0  0  2  0  0  0  0  0  0  0  0  0
  -12.9938   -5.7693   26.7829 O   0  0  0  0  0  0  0  0  0  0  0  0
  -17.0844   -2.6707   31.7196 N   0  0  0  0  0  0  0  0  0  0  0  0
  -16.9854   -4.0478   31.7451 C   0  0  0  0  0  0  0  0  0  0  0  0
  -15.8303   -4.6618   32.1914 N   0  0  0  0  0  0  0  0  0  0  0  0
  -14.7772   -3.9180   32.6057 C   0  0  0  0  0  0  0  0  0  0  0  0
  -14.8617   -2.5312   32.5952 C   0  0  0  0  0  0  0  0  0  0  0  0
  -16.0190   -1.9074   32.1453 C   0  0  0  0  0  0  0  0  0  0  0  0
  -16.0962   -0.5789   32.1264 N   0  0  0  0  0  0  0  0  0  0  0  0
  -13.6920   -2.0414   33.0594 N   0  0  0  0  0  0  0  0  0  0  0  0
  -12.8831   -3.0795   33.3768 C   0  0  0  0  0  0  0  0  0  0  0  0
  -13.5392   -4.2505   33.1028 N   0  0  0  0  0  0  0  0  0  0  0  0
  2  1  1  6  0  0  0
  2  3  1  0  0  0  0
  2  5  1  0  0  0  0
  3  4  1  0  0  0  0
  3 17  1  0  0  0  0
  5  6  1  0  0  0  0
  7  6  1  6  0  0  0
  7  8  1  0  0  0  0
  7  9  1  0  0  0  0
 10  9  1  6  0  0  0
 10 11  1  0  0  0  0
 10 12  1  0  0  0  0
 11 16  1  0  0  0  0
 12 13  1  1  0  0  0
 12 14  1  0  0  0  0
 14 15  1  1  0  0  0
 14 16  1  0  0  0  0
 16 27  1  6  0  0  0
 18 19  2  0  0  0  0
 18 23  1  0  0  0  0
 19 20  1  0  0  0  0
 20 21  2  0  0  0  0
 21 22  1  0  0  0  0
 21 27  1  0  0  0  0
 22 23  2  0  0  0  0
 22 25  1  0  0  0  0
 23 24  1  0  0  0  0
 25 26  2  0  0  0  0
 26 27  1  0  0  0  0
M  END
>  <CHROM.1>
-7.96950956,-171.86856491,51.69052818,165.41733339,-172.98652833,47.74020927
56.83053146,-14.24730383,-5.62000819,31.06125457,1.18786224,1.14713769,-1.78916274

>  <Name>
ligand

>  <RI>
0

>  <Rbt.Current_Directory>
/home/itssahil/PROJECTS/Mol_Feturizer/New_Systems/rnas/3GX6

>  <Rbt.Executable>
rbdock ($Id: //depot/dev/client3/rdock/2013.1/src/exe/rbdock.cxx#4 $)

>  <Rbt.Library>
libRbt.so (2013.1, Build901 2013/11/27)

>  <Rbt.Parameter_File>
/export/apps/rDock/src/rDock_2013.1_src/data/scripts/dock_solv.prm

>  <Rbt.Receptor>
prm/pocket_docking_2.prm

>  <SCORE>
-20.8666

>  <SCORE.INTER>
-11.2119

>  <SCORE.INTER.CONST>
1

>  <SCORE.INTER.POLAR>
0

>  <SCORE.INTER.ROT>
7

>  <SCORE.INTER.SOLV>
16.7859

>  <SCORE.INTER.VDW>
-21.3366

>  <SCORE.INTER.norm>
-0.415254

>  <SCORE.INTRA>
-10.503

>  <SCORE.INTRA.DIHEDRAL>
-10.0345

>  <SCORE.INTRA.DIHEDRAL.0>
15.0182

>  <SCORE.INTRA.POLAR>
0

>  <SCORE.INTRA.POLAR.0>
0

>  <SCORE.INTRA.REPUL>
0

>  <SCORE.INTRA.REPUL.0>
0

>  <SCORE.INTRA.SOLV>
-1.42066

>  <SCORE.INTRA.SOLV.lig_0>
-47.9129

>  <SCORE.INTRA.VDW>
-4.77541

>  <SCORE.INTRA.VDW.0>
2.00851

>  <SCORE.INTRA.norm>
-0.389

>  <SCORE.RESTR>
0.848282

>  <SCORE.RESTR.CAVITY>
0.848282

>  <SCORE.RESTR.norm>
0.0314178

>  <SCORE.SYSTEM>
0

>  <SCORE.SYSTEM.CONST>
0

>  <SCORE.SYSTEM.DIHEDRAL>
0

>  <SCORE.SYSTEM.SOLV>
0

>  <SCORE.SYSTEM.norm>
0

>  <SCORE.heavy>
27

>  <SCORE.norm>
-0.772836

>  <RMSD>
1.388

$$$$
ligand
 OpenBabel11021811483D
libRbt.so/2013.1/901 2013/11/27
 27 29  0  0  0  0  0  0  0  0999 V2000
  -16.3803   -5.3428   28.1118 N   0  0  0  0  0  0  0  0  0  0  0  0
  -15.0547   -5.9551   28.1395 C   0  0  2  0  0  0  0  0  0  0  0  0
  -14.1312   -5.3614   27.0790 C   0  0  0  0  0  0  0  0  0  0  0  0
  -12.9064   -5.4743   27.1657 O   0  0  0  0  0  0  0  0  0  0  0  0
  -15.1524   -7.4717   28.0053 C   0  0  0  0  0  0  0  0  0  0  0  0
  -13.8047   -8.1718   28.0865 C   0  0  0  0  0  0  0  0  0  0  0  0
  -12.8206   -7.6998   29.5305 S   0  0  2  0  0  0  0  0  0  0  0  0
  -11.5915   -9.0286   29.5385 C   0  0  0  0  0  0  0  0  0  0  0  0
  -13.9154   -8.2209   30.8790 C   0  0  0  0  0  0  0  0  0  0  0  0
  -13.3612   -7.7145   32.2030 C   0  0  1  0  0  0  0  0  0  0  0  0
  -12.9717   -6.3722   32.0355 O   0  0  0  0  0  0  0  0  0  0  0  0
  -14.3431   -7.6849   33.3592 C   0  0  1  0  0  0  0  0  0  0  0  0
  -14.2222   -8.8442   34.1529 O   0  0  0  0  0  0  0  0  0  0  0  0
  -13.9061   -6.4670   34.1477 C   0  0  1  0  0  0  0  0  0  0  0  0
  -13.2439   -6.9031   35.3092 O   0  0  0  0  0  0  0  0  0  0  0  0
  -12.9319   -5.6969   33.2665 C   0  0  2  0  0  0  0  0  0  0  0  0
  -14.5946   -4.7513   26.1154 O   0  0  0  0  0  0  0  0  0  0  0  0
  -16.9947   -2.6756   31.8032 N   0  0  0  0  0  0  0  0  0  0  0  0
  -16.9294   -4.0544   31.8432 C   0  0  0  0  0  0  0  0  0  0  0  0
  -15.7740   -4.6922   32.2539 N   0  0  0  0  0  0  0  0  0  0  0  0
  -14.6876   -3.9706   32.6184 C   0  0  0  0  0  0  0  0  0  0  0  0
  -14.7376   -2.5823   32.5928 C   0  0  0  0  0  0  0  0  0  0  0  0
  -15.8951   -1.9346   32.1785 C   0  0  0  0  0  0  0  0  0  0  0  0
  -15.9397   -0.6050   32.1449 N   0  0  0  0  0  0  0  0  0  0  0  0
  -13.5392   -2.1169   33.0061 N   0  0  0  0  0  0  0  0  0  0  0  0
  -12.7452   -3.1714   33.3067 C   0  0  0  0  0  0  0  0  0  0  0  0
  -13.4403   -4.3285   33.0730 N   0  0  0  0  0  0  0  0  0  0  0  0
  2  1  1  6  0  0  0
  2  3  1  0  0  0  0
  2  5  1  0  0  0  0
  3  4  1  0  0  0  0
  3 17  1  0  0  0  0
  5  6  1  0  0  0  0
  7  6  1  6  0  0  0
  7  8  1  0  0  0  0
  7  9  1  0  0  0  0
 10  9  1  6  0  0  0
 10 11  1  0  0  0  0
 10 12  1  0  0  0  0
 11 16  1  0  0  0  0
 12 13  1  1  0  0  0
 12 14  1  0  0  0  0
 14 15  1  1  0  0  0
 14 16  1  0  0  0  0
 16 27  1  6  0  0  0
 18 19  2  0  0  0  0
 18 23  1  0  0  0  0
 19 20  1  0  0  0  0
 20 21  2  0  0  0  0
 21 22  1  0  0  0  0
 21 27  1  0  0  0  0
 22 23  2  0  0  0  0
 22 25  1  0  0  0  0
 23 24  1  0  0  0  0
 25 26  2  0  0  0  0
 26 27  1  0  0  0  0
M  END
>  <CHROM.1>
160.45488781,-177.56734835,51.36096586,164.46157071,-171.32830791,44.95206543
59.68158985,-14.19102471,-5.63854235,31.07023474,1.16384459,1.16044610,-1.79198500

>  <Name>
ligand

>  <RI>
0

>  <Rbt.Current_Directory>
/home/itssahil/PROJECTS/Mol_Feturizer/New_Systems/rnas/3GX6

>  <Rbt.Executable>
rbdock ($Id: //depot/dev/client3/rdock/2013.1/src/exe/rbdock.cxx#4 $)

>  <Rbt.Library>
libRbt.so (2013.1, Build901 2013/11/27)

>  <Rbt.Parameter_File>
/export/apps/rDock/src/rDock_2013.1_src/data/scripts/dock_solv.prm

>  <Rbt.Receptor>
prm/pocket_docking_2.prm

>  <SCORE>
-20.9914

>  <SCORE.INTER>
-11.4656

>  <SCORE.INTER.CONST>
1

>  <SCORE.INTER.POLAR>
0

>  <SCORE.INTER.ROT>
7

>  <SCORE.INTER.SOLV>
16.6912

>  <SCORE.INTER.VDW>
-21.4742

>  <SCORE.INTER.norm>
-0.424653

>  <SCORE.INTRA>
-10.4103

>  <SCORE.INTRA.DIHEDRAL>
-9.79167

>  <SCORE.INTRA.DIHEDRAL.0>
15.0182

>  <SCORE.INTRA.POLAR>
0

>  <SCORE.INTRA.POLAR.0>
0

>  <SCORE.INTRA.REPUL>
0

>  <SCORE.INTRA.REPUL.0>
0

>  <SCORE.INTRA.SOLV>
-1.51379

>  <SCORE.INTRA.SOLV.lig_0>
-47.9129

>  <SCORE.INTRA.VDW>
-4.75755

>  <SCORE.INTRA.VDW.0>
2.00851

>  <SCORE.INTRA.norm>
-0.385566

>  <SCORE.RESTR>
0.88454

>  <SCORE.RESTR.CAVITY>
0.88454

>  <SCORE.RESTR.norm>
0.0327608

>  <SCORE.SYSTEM>
0

>  <SCORE.SYSTEM.CONST>
0

>  <SCORE.SYSTEM.DIHEDRAL>
0

>  <SCORE.SYSTEM.SOLV>
0

>  <SCORE.SYSTEM.norm>
0

>  <SCORE.heavy>
27

>  <SCORE.norm>
-0.777458

>  <RMSD>
1.390

$$$$
ligand
 OpenBabel11021811483D
libRbt.so/2013.1/901 2013/11/27
 27 29  0  0  0  0  0  0  0  0999 V2000
  -15.9326   -5.2342   26.7096 N   0  0  0  0  0  0  0  0  0  0  0  0
  -15.2680   -6.0468   27.7249 C   0  0  2  0  0  0  0  0  0  0  0  0
  -13.9268   -5.4501   28.1434 C   0  0  0  0  0  0  0  0  0  0  0  0
  -12.9327   -5.5483   27.4206 O   0  0  0  0  0  0  0  0  0  0  0  0
  -15.1112   -7.4887   27.2516 C   0  0  0  0  0  0  0  0  0  0  0  0
  -15.0027   -8.4888   28.3922 C   0  0  0  0  0  0  0  0  0  0  0  0
  -13.6406   -8.1504   29.5352 S   0  0  2  0  0  0  0  0  0  0  0  0
  -12.5104   -9.4978   29.1068 C   0  0  0  0  0  0  0  0  0  0  0  0
  -14.3404   -8.7565   31.0945 C   0  0  0  0  0  0  0  0  0  0  0  0
  -13.4467   -8.3269   32.2492 C   0  0  1  0  0  0  0  0  0  0  0  0
  -13.0076   -7.0122   32.0038 O   0  0  0  0  0  0  0  0  0  0  0  0
  -14.1161   -8.2576   33.6089 C   0  0  1  0  0  0  0  0  0  0  0  0
  -13.8965   -9.4434   34.3398 O   0  0  0  0  0  0  0  0  0  0  0  0
  -13.4104   -7.0959   34.2786 C   0  0  1  0  0  0  0  0  0  0  0  0
  -12.5233   -7.6096   35.2414 O   0  0  0  0  0  0  0  0  0  0  0  0
  -12.6212   -6.3747   33.1943 C   0  0  2  0  0  0  0  0  0  0  0  0
  -13.8113   -4.8612   29.2183 O   0  0  0  0  0  0  0  0  0  0  0  0
  -16.1539   -2.9238   31.3540 N   0  0  0  0  0  0  0  0  0  0  0  0
  -16.1086   -4.2885   31.1477 C   0  0  0  0  0  0  0  0  0  0  0  0
  -15.1013   -5.0515   31.7077 N   0  0  0  0  0  0  0  0  0  0  0  0
  -14.1414   -4.4675   32.4637 C   0  0  0  0  0  0  0  0  0  0  0  0
  -14.1756   -3.0969   32.6892 C   0  0  0  0  0  0  0  0  0  0  0  0
  -15.1839   -2.3235   32.1270 C   0  0  0  0  0  0  0  0  0  0  0  0
  -15.2109   -1.0093   32.3353 N   0  0  0  0  0  0  0  0  0  0  0  0
  -13.1213   -2.7794   33.4711 N   0  0  0  0  0  0  0  0  0  0  0  0
  -12.4372   -3.9121   33.7569 C   0  0  0  0  0  0  0  0  0  0  0  0
  -13.0551   -4.9685   33.1414 N   0  0  0  0  0  0  0  0  0  0  0  0
  2  1  1  6  0  0  0
  2  3  1  0  0  0  0
  2  5  1  0  0  0  0
  3  4  1  0  0  0  0
  3 17  1  0  0  0  0
  5  6  1  0  0  0  0
  7  6  1  6  0  0  0
  7  8  1  0  0  0  0
  7  9  1  0  0  0  0
 10  9  1  6  0  0  0
 10 11  1  0  0  0  0
 10 12  1  0  0  0  0
 11 16  1  0  0  0  0
 12 13  1  1  0  0  0
 12 14  1  0  0  0  0
 14 15  1  1  0  0  0
 14 16  1  0  0  0  0
 16 27  1  6  0  0  0
 18 19  2  0  0  0  0
 18 23  1  0  0  0  0
 19 20  1  0  0  0  0
 20 21  2  0  0  0  0
 21 22  1  0  0  0  0
 21 27  1  0  0  0  0
 22 23  2  0  0  0  0
 22 25  1  0  0  0  0
 23 24  1  0  0  0  0
 25 26  2  0  0  0  0
 26 27  1  0  0  0  0
M  END
>  <CHROM.1>
-76.24319614,-155.15926385,-57.15522848,-108.35409390,-169.47899031,39.94322945
29.15236246,-14.03132779,-6.05324688,31.14661463,1.90780293,1.27077310,-2.33078749

>  <Name>
ligand

>  <RI>
0

>  <Rbt.Current_Directory>
/home/itssahil/PROJECTS/Mol_Feturizer/New_Systems/rnas/3GX6

>  <Rbt.Executable>
rbdock ($Id: //depot/dev/client3/rdock/2013.1/src/exe/rbdock.cxx#4 $)

>  <Rbt.Library>
libRbt.so (2013.1, Build901 2013/11/27)

>  <Rbt.Parameter_File>
/export/apps/rDock/src/rDock_2013.1_src/data/scripts/dock_solv.prm

>  <Rbt.Receptor>
prm/pocket_docking_2.prm

>  <SCORE>
-17.4077

>  <SCORE.INTER>
-8.36647

>  <SCORE.INTER.CONST>
1

>  <SCORE.INTER.POLAR>
0

>  <SCORE.INTER.ROT>
7

>  <SCORE.INTER.SOLV>
20.0392

>  <SCORE.INTER.VDW>
-20.524

>  <SCORE.INTER.norm>
-0.309869

>  <SCORE.INTRA>
-9.08441

>  <SCORE.INTRA.DIHEDRAL>
-4.13991

>  <SCORE.INTRA.DIHEDRAL.0>
15.0182

>  <SCORE.INTRA.POLAR>
0

>  <SCORE.INTRA.POLAR.0>
0

>  <SCORE.INTRA.REPUL>
0

>  <SCORE.INTRA.REPUL.0>
0

>  <SCORE.INTRA.SOLV>
-1.54226

>  <SCORE.INTRA.SOLV.lig_0>
-47.9129

>  <SCORE.INTRA.VDW>
-6.24332

>  <SCORE.INTRA.VDW.0>
2.00851

>  <SCORE.INTRA.norm>
-0.33646

>  <SCORE.RESTR>
0.0431549

>  <SCORE.RESTR.CAVITY>
0.0431549

>  <SCORE.RESTR.norm>
0.00159833

>  <SCORE.SYSTEM>
0

>  <SCORE.SYSTEM.CONST>
0

>  <SCORE.SYSTEM.DIHEDRAL>
0

>  <SCORE.SYSTEM.SOLV>
0

>  <SCORE.SYSTEM.norm>
0

>  <SCORE.heavy>
27

>  <SCORE.norm>
-0.644731

>  <RMSD>
1.411

$$$$
ligand
 OpenBabel11021811483D
libRbt.so/2013.1/901 2013/11/27
 27 29  0  0  0  0  0  0  0  0999 V2000
  -13.6543   -5.5834   26.8848 N   0  0  0  0  0  0  0  0  0  0  0  0
  -14.3749   -5.6464   28.1536 C   0  0  2  0  0  0  0  0  0  0  0  0
  -14.1050   -4.4211   29.0229 C   0  0  0  0  0  0  0  0  0  0  0  0
  -14.8469   -4.1324   29.9646 O   0  0  0  0  0  0  0  0  0  0  0  0
  -14.0534   -6.9383   28.8989 C   0  0  0  0  0  0  0  0  0  0  0  0
  -12.5832   -7.0731   29.2643 C   0  0  0  0  0  0  0  0  0  0  0  0
  -12.1776   -8.6232   30.1063 S   0  0  2  0  0  0  0  0  0  0  0  0
  -12.7339   -9.8231   28.8706 C   0  0  0  0  0  0  0  0  0  0  0  0
  -13.5202   -8.7170   31.3217 C   0  0  0  0  0  0  0  0  0  0  0  0
  -13.0722   -8.0610   32.6199 C   0  0  1  0  0  0  0  0  0  0  0  0
  -12.6985   -6.7332   32.3391 O   0  0  0  0  0  0  0  0  0  0  0  0
  -14.1345   -7.9383   33.6961 C   0  0  1  0  0  0  0  0  0  0  0  0
  -14.0475   -9.0053   34.6140 O   0  0  0  0  0  0  0  0  0  0  0  0
  -13.7793   -6.6338   34.3801 C   0  0  1  0  0  0  0  0  0  0  0  0
  -13.1932   -6.9288   35.6240 O   0  0  0  0  0  0  0  0  0  0  0  0
  -12.7602   -5.9330   33.4918 C   0  0  2  0  0  0  0  0  0  0  0  0
  -13.1395   -3.6919   28.7954 O   0  0  0  0  0  0  0  0  0  0  0  0
  -17.0089   -3.0349   32.3407 N   0  0  0  0  0  0  0  0  0  0  0  0
  -16.9550   -4.3757   32.6667 C   0  0  0  0  0  0  0  0  0  0  0  0
  -15.7450   -4.9850   32.9403 N   0  0  0  0  0  0  0  0  0  0  0  0
  -14.5940   -4.2735   32.8872 C   0  0  0  0  0  0  0  0  0  0  0  0
  -14.6295   -2.9214   32.5693 C   0  0  0  0  0  0  0  0  0  0  0  0
  -15.8423   -2.3031   32.2905 C   0  0  0  0  0  0  0  0  0  0  0  0
  -15.8751   -1.0102   31.9767 N   0  0  0  0  0  0  0  0  0  0  0  0
  -13.3618   -2.4567   32.5938 N   0  0  0  0  0  0  0  0  0  0  0  0
  -12.5345   -3.4726   32.9344 C   0  0  0  0  0  0  0  0  0  0  0  0
  -13.2806   -4.6064   33.1206 N   0  0  0  0  0  0  0  0  0  0  0  0
  2  1  1  6  0  0  0
  2  3  1  0  0  0  0
  2  5  1  0  0  0  0
  3  4  1  0  0  0  0
  3 17  1  0  0  0  0
  5  6  1  0  0  0  0
  7  6  1  6  0  0  0
  7  8  1  0  0  0  0
  7  9  1  0  0  0  0
 10  9  1  6  0  0  0
 10 11  1  0  0  0  0
 10 12  1  0  0  0  0
 11 16  1  0  0  0  0
 12 13  1  1  0  0  0
 12 14  1  0  0  0  0
 14 15  1  1  0  0  0
 14 16  1  0  0  0  0
 16 27  1  6  0  0  0
 18 19  2  0  0  0  0
 18 23  1  0  0  0  0
 19 20  1  0  0  0  0
 20 21  2  0  0  0  0
 21 22  1  0  0  0  0
 21 27  1  0  0  0  0
 22 23  2  0  0  0  0
 22 25  1  0  0  0  0
 23 24  1  0  0  0  0
 25 26  2  0  0  0  0
 26 27  1  0  0  0  0
M  END
>  <CHROM.1>
162.45620748,61.76830081,-178.30512026,58.07233033,-91.89713346,57.34341468
78.43304310,-13.90778340,-5.74136888,31.55726329,0.08269824,1.18984930,-1.33049439

>  <Name>
ligand

>  <RI>
0

>  <Rbt.Current_Directory>
/home/itssahil/PROJECTS/Mol_Feturizer/New_Systems/rnas/3GX6

>  <Rbt.Executable>
rbdock ($Id: //depot/dev/client3/rdock/2013.1/src/exe/rbdock.cxx#4 $)

>  <Rbt.Library>
libRbt.so (2013.1, Build901 2013/11/27)

>  <Rbt.Parameter_File>
/export/apps/rDock/src/rDock_2013.1_src/data/scripts/dock_solv.prm

>  <Rbt.Receptor>
prm/pocket_docking_3.prm

>  <SCORE>
-25.5638

>  <SCORE.INTER>
-15.0051

>  <SCORE.INTER.CONST>
1

>  <SCORE.INTER.POLAR>
0

>  <SCORE.INTER.ROT>
7

>  <SCORE.INTER.SOLV>
18.3423

>  <SCORE.INTER.VDW>
-24.3841

>  <SCORE.INTER.norm>
-0.555743

>  <SCORE.INTRA>
-10.5587

>  <SCORE.INTRA.DIHEDRAL>
-10.2401

>  <SCORE.INTRA.DIHEDRAL.0>
15.0182

>  <SCORE.INTRA.POLAR>
0

>  <SCORE.INTRA.POLAR.0>
0

>  <SCORE.INTRA.REPUL>
0

>  <SCORE.INTRA.REPUL.0>
0

>  <SCORE.INTRA.SOLV>
-0.862902

>  <SCORE.INTRA.SOLV.lig_0>
-47.9129

>  <SCORE.INTRA.VDW>
-5.00718

>  <SCORE.INTRA.VDW.0>
2.00851

>  <SCORE.INTRA.norm>
-0.391063

>  <SCORE.RESTR>
0

>  <SCORE.RESTR.CAVITY>
0

>  <SCORE.RESTR.norm>
0

>  <SCORE.SYSTEM>
0

>  <SCORE.SYSTEM.CONST>
0

>  <SCORE.SYSTEM.DIHEDRAL>
0

>  <SCORE.SYSTEM.SOLV>
0

>  <SCORE.SYSTEM.norm>
0

>  <SCORE.heavy>
27

>  <SCORE.norm>
-0.946806

>  <RMSD>
1.421

$$$$
ligand
 OpenBabel11021811483D
libRbt.so/2013.1/901 2013/11/27
 27 29  0  0  0  0  0  0  0  0999 V2000
  -15.7816   -6.0923   27.9074 N   0  0  0  0  0  0  0  0  0  0  0  0
  -14.5651   -6.0290   28.7130 C   0  0  2  0  0  0  0  0  0  0  0  0
  -14.2340   -4.5992   29.1326 C   0  0  0  0  0  0  0  0  0  0  0  0
  -14.9086   -4.0122   29.9815 O   0  0  0  0  0  0  0  0  0  0  0  0
  -13.3939   -6.6792   27.9827 C   0  0  0  0  0  0  0  0  0  0  0  0
  -12.1865   -6.9207   28.8754 C   0  0  0  0  0  0  0  0  0  0  0  0
  -12.2592   -8.4750   29.8001 S   0  0  2  0  0  0  0  0  0  0  0  0
  -12.9078   -9.5849   28.5256 C   0  0  0  0  0  0  0  0  0  0  0  0
  -13.7352   -8.2022   30.8176 C   0  0  0  0  0  0  0  0  0  0  0  0
  -13.3149   -7.7008   32.1918 C   0  0  1  0  0  0  0  0  0  0  0  0
  -12.8954   -6.3630   32.0658 O   0  0  0  0  0  0  0  0  0  0  0  0
  -14.4104   -7.6594   33.2406 C   0  0  1  0  0  0  0  0  0  0  0  0
  -14.3847   -8.8194   34.0422 O   0  0  0  0  0  0  0  0  0  0  0  0
  -14.0436   -6.4458   34.0704 C   0  0  1  0  0  0  0  0  0  0  0  0
  -13.5095   -6.8883   35.2938 O   0  0  0  0  0  0  0  0  0  0  0  0
  -12.9754   -5.6872   33.2946 C   0  0  2  0  0  0  0  0  0  0  0  0
  -13.2853   -4.0011   28.6247 O   0  0  0  0  0  0  0  0  0  0  0  0
  -17.0256   -2.5948   31.9501 N   0  0  0  0  0  0  0  0  0  0  0  0
  -17.0089   -3.9698   32.0765 C   0  0  0  0  0  0  0  0  0  0  0  0
  -15.8493   -4.6288   32.4387 N   0  0  0  0  0  0  0  0  0  0  0  0
  -14.7111   -3.9324   32.6700 C   0  0  0  0  0  0  0  0  0  0  0  0
  -14.7111   -2.5476   32.5561 C   0  0  0  0  0  0  0  0  0  0  0  0
  -15.8728   -1.8789   32.1897 C   0  0  0  0  0  0  0  0  0  0  0  0
  -15.8701   -0.5534   32.0713 N   0  0  0  0  0  0  0  0  0  0  0  0
  -13.4671   -2.1083   32.8443 N   0  0  0  0  0  0  0  0  0  0  0  0
  -12.6917   -3.1744   33.1524 C   0  0  0  0  0  0  0  0  0  0  0  0
  -13.4460   -4.3134   33.0502 N   0  0  0  0  0  0  0  0  0  0  0  0
  2  1  1  6  0  0  0
  2  3  1  0  0  0  0
  2  5  1  0  0  0  0
  3  4  1  0  0  0  0
  3 17  1  0  0  0  0
  5  6  1  0  0  0  0
  7  6  1  6  0  0  0
  7  8  1  0  0  0  0
  7  9  1  0  0  0  0
 10  9  1  6  0  0  0
 10 11  1  0  0  0  0
 10 12  1  0  0  0  0
 11 16  1  0  0  0  0
 12 13  1  1  0  0  0
 12 14  1  0  0  0  0
 14 15  1  1  0  0  0
 14 16  1  0  0  0  0
 16 27  1  6  0  0  0
 18 19  2  0  0  0  0
 18 23  1  0  0  0  0
 19 20  1  0  0  0  0
 20 21  2  0  0  0  0
 21 22  1  0  0  0  0
 21 27  1  0  0  0  0
 22 23  2  0  0  0  0
 22 25  1  0  0  0  0
 23 24  1  0  0  0  0
 25 26  2  0  0  0  0
 26 27  1  0  0  0  0
M  END
>  <CHROM.1>
71.81007813,-167.31981060,85.24946757,41.50315549,-96.46441979,73.52339771
70.84859634,-14.08167216,-5.54607720,31.36788751,0.37198847,1.20162196,-1.52880617

>  <Name>
ligand

>  <RI>
0

>  <Rbt.Current_Directory>
/home/itssahil/PROJECTS/Mol_Feturizer/New_Systems/rnas/3GX6

>  <Rbt.Executable>
rbdock ($Id: //depot/dev/client3/rdock/2013.1/src/exe/rbdock.cxx#4 $)

>  <Rbt.Library>
libRbt.so (2013.1, Build901 2013/11/27)

>  <Rbt.Parameter_File>
/export/apps/rDock/src/rDock_2013.1_src/data/scripts/dock_solv.prm

>  <Rbt.Receptor>
prm/pocket_docking_2.prm

>  <SCORE>
-21.0888

>  <SCORE.INTER>
-13.2388

>  <SCORE.INTER.CONST>
1

>  <SCORE.INTER.POLAR>
0

>  <SCORE.INTER.ROT>
7

>  <SCORE.INTER.SOLV>
15.7941

>  <SCORE.INTER.VDW>
-22.3572

>  <SCORE.INTER.norm>
-0.490324

>  <SCORE.INTRA>
-8.01828

>  <SCORE.INTRA.DIHEDRAL>
-6.28516

>  <SCORE.INTRA.DIHEDRAL.0>
15.0182

>  <SCORE.INTRA.POLAR>
0

>  <SCORE.INTRA.POLAR.0>
0

>  <SCORE.INTRA.REPUL>
0

>  <SCORE.INTRA.REPUL.0>
0

>  <SCORE.INTRA.SOLV>
-0.986541

>  <SCORE.INTRA.SOLV.lig_0>
-47.9129

>  <SCORE.INTRA.VDW>
-4.38243

>  <SCORE.INTRA.VDW.0>
2.00851

>  <SCORE.INTRA.norm>
-0.296973

>  <SCORE.RESTR>
0.168267

>  <SCORE.RESTR.CAVITY>
0.168267

>  <SCORE.RESTR.norm>
0.00623209

>  <SCORE.SYSTEM>
0

>  <SCORE.SYSTEM.CONST>
0

>  <SCORE.SYSTEM.DIHEDRAL>
0

>  <SCORE.SYSTEM.SOLV>
0

>  <SCORE.SYSTEM.norm>
0

>  <SCORE.heavy>
27

>  <SCORE.norm>
-0.781066

>  <RMSD>
1.423

$$$$
ligand
 OpenBabel11021811483D
libRbt.so/2013.1/901 2013/11/27
 27 29  0  0  0  0  0  0  0  0999 V2000
  -16.2221   -4.8818   28.5721 N   0  0  0  0  0  0  0  0  0  0  0  0
  -14.8119   -4.9781   28.2050 C   0  0  2  0  0  0  0  0  0  0  0  0
  -14.6115   -4.9140   26.6931 C   0  0  0  0  0  0  0  0  0  0  0  0
  -13.8512   -5.6957   26.1177 O   0  0  0  0  0  0  0  0  0  0  0  0
  -14.1797   -6.2344   28.7965 C   0  0  0  0  0  0  0  0  0  0  0  0
  -12.6651   -6.1518   28.9074 C   0  0  0  0  0  0  0  0  0  0  0  0
  -11.8928   -7.6677   29.5253 S   0  0  2  0  0  0  0  0  0  0  0  0
  -12.3183   -8.8186   28.1946 C   0  0  0  0  0  0  0  0  0  0  0  0
  -13.0749   -8.1579   30.8101 C   0  0  0  0  0  0  0  0  0  0  0  0
  -12.7179   -7.4625   32.1159 C   0  0  1  0  0  0  0  0  0  0  0  0
  -12.4911   -6.1000   31.8444 O   0  0  0  0  0  0  0  0  0  0  0  0
  -13.7998   -7.4641   33.1796 C   0  0  1  0  0  0  0  0  0  0  0  0
  -13.6051   -8.5192   34.0947 O   0  0  0  0  0  0  0  0  0  0  0  0
  -13.6000   -6.1315   33.8724 C   0  0  1  0  0  0  0  0  0  0  0  0
  -12.9992   -6.3655   35.1223 O   0  0  0  0  0  0  0  0  0  0  0  0
  -12.6550   -5.3172   32.9991 C   0  0  2  0  0  0  0  0  0  0  0  0
  -15.2047   -4.0727   26.0177 O   0  0  0  0  0  0  0  0  0  0  0  0
  -17.2181   -2.7653   32.3347 N   0  0  0  0  0  0  0  0  0  0  0  0
  -17.0234   -4.0720   32.7367 C   0  0  0  0  0  0  0  0  0  0  0  0
  -15.7470   -4.5879   32.8581 N   0  0  0  0  0  0  0  0  0  0  0  0
  -14.6689   -3.8172   32.5789 C   0  0  0  0  0  0  0  0  0  0  0  0
  -14.8450   -2.4976   32.1814 C   0  0  0  0  0  0  0  0  0  0  0  0
  -16.1256   -1.9733   32.0547 C   0  0  0  0  0  0  0  0  0  0  0  0
  -16.2943   -0.7122   31.6647 N   0  0  0  0  0  0  0  0  0  0  0  0
  -13.6232   -1.9600   31.9770 N   0  0  0  0  0  0  0  0  0  0  0  0
  -12.6860   -2.8977   32.2511 C   0  0  0  0  0  0  0  0  0  0  0  0
  -13.3156   -4.0550   32.6263 N   0  0  0  0  0  0  0  0  0  0  0  0
  2  1  1  6  0  0  0
  2  3  1  0  0  0  0
  2  5  1  0  0  0  0
  3  4  1  0  0  0  0
  3 17  1  0  0  0  0
  5  6  1  0  0  0  0
  7  6  1  6  0  0  0
  7  8  1  0  0  0  0
  7  9  1  0  0  0  0
 10  9  1  6  0  0  0
 10 11  1  0  0  0  0
 10 12  1  0  0  0  0
 11 16  1  0  0  0  0
 12 13  1  1  0  0  0
 12 14  1  0  0  0  0
 14 15  1  1  0  0  0
 14 16  1  0  0  0  0
 16 27  1  6  0  0  0
 18 19  2  0  0  0  0
 18 23  1  0  0  0  0
 19 20  1  0  0  0  0
 20 21  2  0  0  0  0
 21 22  1  0  0  0  0
 21 27  1  0  0  0  0
 22 23  2  0  0  0  0
 22 25  1  0  0  0  0
 23 24  1  0  0  0  0
 25 26  2  0  0  0  0
 26 27  1  0  0  0  0
M  END
>  <CHROM.1>
-135.01434346,-158.55783334,-176.92409944,63.91428980,-86.73963055,47.27846366
89.26447692,-14.01661088,-5.31461463,30.93639238,1.07434274,1.02129153,-1.66280982

>  <Name>
ligand

>  <RI>
0

>  <Rbt.Current_Directory>
/home/itssahil/PROJECTS/Mol_Feturizer/New_Systems/rnas/3GX6

>  <Rbt.Executable>
rbdock ($Id: //depot/dev/client3/rdock/2013.1/src/exe/rbdock.cxx#4 $)

>  <Rbt.Library>
libRbt.so (2013.1, Build901 2013/11/27)

>  <Rbt.Parameter_File>
/export/apps/rDock/src/rDock_2013.1_src/data/scripts/dock_solv.prm

>  <Rbt.Receptor>
prm/pocket_docking_3.prm

>  <SCORE>
-24.2201

>  <SCORE.INTER>
-16.3434

>  <SCORE.INTER.CONST>
1

>  <SCORE.INTER.POLAR>
0

>  <SCORE.INTER.ROT>
7

>  <SCORE.INTER.SOLV>
16.508

>  <SCORE.INTER.VDW>
-24.6649

>  <SCORE.INTER.norm>
-0.605311

>  <SCORE.INTRA>
-7.89904

>  <SCORE.INTRA.DIHEDRAL>
-8.354

>  <SCORE.INTRA.DIHEDRAL.0>
15.0182

>  <SCORE.INTRA.POLAR>
0

>  <SCORE.INTRA.POLAR.0>
0

>  <SCORE.INTRA.REPUL>
0

>  <SCORE.INTRA.REPUL.0>
0

>  <SCORE.INTRA.SOLV>
-1.60816

>  <SCORE.INTRA.SOLV.lig_0>
-47.9129

>  <SCORE.INTRA.VDW>
-2.91796

>  <SCORE.INTRA.VDW.0>
2.00851

>  <SCORE.INTRA.norm>
-0.292557

>  <SCORE.RESTR>
0.0222912

>  <SCORE.RESTR.CAVITY>
0.0222912

>  <SCORE.RESTR.norm>
0.000825599

>  <SCORE.SYSTEM>
0

>  <SCORE.SYSTEM.CONST>
0

>  <SCORE.SYSTEM.DIHEDRAL>
0

>  <SCORE.SYSTEM.SOLV>
0

>  <SCORE.SYSTEM.norm>
0

>  <SCORE.heavy>
27

>  <SCORE.norm>
-0.897042

>  <RMSD>
1.472

$$$$
ligand
 OpenBabel11021811483D
libRbt.so/2013.1/901 2013/11/27
 27 29  0  0  0  0  0  0  0  0999 V2000
  -13.4895   -5.2564   27.2577 N   0  0  0  0  0  0  0  0  0  0  0  0
  -14.3172   -5.4830   28.4394 C   0  0  2  0  0  0  0  0  0  0  0  0
  -14.1470   -4.3744   29.4748 C   0  0  0  0  0  0  0  0  0  0  0  0
  -15.1000   -3.6710   29.8173 O   0  0  0  0  0  0  0  0  0  0  0  0
  -14.0388   -6.8558   29.0442 C   0  0  0  0  0  0  0  0  0  0  0  0
  -12.5794   -7.0650   29.4174 C   0  0  0  0  0  0  0  0  0  0  0  0
  -12.2455   -8.6635   30.1982 S   0  0  2  0  0  0  0  0  0  0  0  0
  -12.9099   -9.7865   28.9437 C   0  0  0  0  0  0  0  0  0  0  0  0
  -13.5557   -8.7157   31.4508 C   0  0  0  0  0  0  0  0  0  0  0  0
  -13.0515   -8.0736   32.7353 C   0  0  1  0  0  0  0  0  0  0  0  0
  -12.6307   -6.7632   32.4396 O   0  0  0  0  0  0  0  0  0  0  0  0
  -14.0828   -7.9035   33.8349 C   0  0  1  0  0  0  0  0  0  0  0  0
  -14.0181   -8.9696   34.7558 O   0  0  0  0  0  0  0  0  0  0  0  0
  -13.6591   -6.6119   34.5043 C   0  0  1  0  0  0  0  0  0  0  0  0
  -13.0569   -6.9258   35.7358 O   0  0  0  0  0  0  0  0  0  0  0  0
  -12.6331   -5.9566   33.5896 C   0  0  2  0  0  0  0  0  0  0  0  0
  -13.0480   -4.1579   29.9857 O   0  0  0  0  0  0  0  0  0  0  0  0
  -16.7540   -2.9520   32.2607 N   0  0  0  0  0  0  0  0  0  0  0  0
  -16.7426   -4.3018   32.5522 C   0  0  0  0  0  0  0  0  0  0  0  0
  -15.5621   -4.9401   32.8825 N   0  0  0  0  0  0  0  0  0  0  0  0
  -14.3984   -4.2485   32.9197 C   0  0  0  0  0  0  0  0  0  0  0  0
  -14.3917   -2.8880   32.6378 C   0  0  0  0  0  0  0  0  0  0  0  0
  -15.5746   -2.2405   32.3024 C   0  0  0  0  0  0  0  0  0  0  0  0
  -15.5665   -0.9393   32.0231 N   0  0  0  0  0  0  0  0  0  0  0  0
  -13.1204   -2.4473   32.7529 N   0  0  0  0  0  0  0  0  0  0  0  0
  -12.3327   -3.4869   33.1153 C   0  0  0  0  0  0  0  0  0  0  0  0
  -13.1076   -4.6114   33.2240 N   0  0  0  0  0  0  0  0  0  0  0  0
  2  1  1  6  0  0  0
  2  3  1  0  0  0  0
  2  5  1  0  0  0  0
  3  4  1  0  0  0  0
  3 17  1  0  0  0  0
  5  6  1  0  0  0  0
  7  6  1  6  0  0  0
  7  8  1  0  0  0  0
  7  9  1  0  0  0  0
 10  9  1  6  0  0  0
 10 11  1  0  0  0  0
 10 12  1  0  0  0  0
 11 16  1  0  0  0  0
 12 13  1  1  0  0  0
 12 14  1  0  0  0  0
 14 15  1  1  0  0  0
 14 16  1  0  0  0  0
 16 27  1  6  0  0  0
 18 19  2  0  0  0  0
 18 23  1  0  0  0  0
 19 20  1  0  0  0  0
 20 21  2  0  0  0  0
 21 22  1  0  0  0  0
 21 27  1  0  0  0  0
 22 23  2  0  0  0  0
 22 25  1  0  0  0  0
 23 24  1  0  0  0  0
 25 26  2  0  0  0  0
 26 27  1  0  0  0  0
M  END
>  <CHROM.1>
118.70936070,57.14246476,177.64100953,55.43918657,-89.35105736,56.66596696
73.08883074,-13.82462950,-5.70765199,31.70460944,0.08283818,1.22703191,-1.45249443

>  <Name>
ligand

>  <RI>
0

>  <Rbt.Current_Directory>
/home/itssahil/PROJECTS/Mol_Feturizer/New_Systems/rnas/3GX6

>  <Rbt.Executable>
rbdock ($Id: //depot/dev/client3/rdock/2013.1/src/exe/rbdock.cxx#4 $)

>  <Rbt.Library>
libRbt.so (2013.1, Build901 2013/11/27)

>  <Rbt.Parameter_File>
/export/apps/rDock/src/rDock_2013.1_src/data/scripts/dock_solv.prm

>  <Rbt.Receptor>
prm/pocket_docking_4.prm

>  <SCORE>
-25.8687

>  <SCORE.INTER>
-14.2913

>  <SCORE.INTER.CONST>
1

>  <SCORE.INTER.POLAR>
0

>  <SCORE.INTER.ROT>
7

>  <SCORE.INTER.SOLV>
19.1782

>  <SCORE.INTER.VDW>
-24.1869

>  <SCORE.INTER.norm>
-0.529308

>  <SCORE.INTRA>
-11.5774

>  <SCORE.INTRA.DIHEDRAL>
-10.5322

>  <SCORE.INTRA.DIHEDRAL.0>
15.0182

>  <SCORE.INTRA.POLAR>
0

>  <SCORE.INTRA.POLAR.0>
0

>  <SCORE.INTRA.REPUL>
0

>  <SCORE.INTRA.REPUL.0>
0

>  <SCORE.INTRA.SOLV>
-0.547409

>  <SCORE.INTRA.SOLV.lig_0>
-47.9129

>  <SCORE.INTRA.VDW>
-6.03757

>  <SCORE.INTRA.VDW.0>
2.00851

>  <SCORE.INTRA.norm>
-0.428791

>  <SCORE.RESTR>
0

>  <SCORE.RESTR.CAVITY>
0

>  <SCORE.RESTR.norm>
0

>  <SCORE.SYSTEM>
0

>  <SCORE.SYSTEM.CONST>
0

>  <SCORE.SYSTEM.DIHEDRAL>
0

>  <SCORE.SYSTEM.SOLV>
0

>  <SCORE.SYSTEM.norm>
0

>  <SCORE.heavy>
27

>  <SCORE.norm>
-0.958099

>  <RMSD>
1.476

$$$$
ligand
 OpenBabel11021811483D
libRbt.so/2013.1/901 2013/11/27
 27 29  0  0  0  0  0  0  0  0999 V2000
  -14.2695   -4.5235   27.0980 N   0  0  0  0  0  0  0  0  0  0  0  0
  -13.9042   -5.4596   28.1578 C   0  0  2  0  0  0  0  0  0  0  0  0
  -12.8405   -6.4532   27.6981 C   0  0  0  0  0  0  0  0  0  0  0  0
  -11.8813   -6.7382   28.4186 O   0  0  0  0  0  0  0  0  0  0  0  0
  -15.1370   -6.1765   28.7000 C   0  0  0  0  0  0  0  0  0  0  0  0
  -14.9517   -6.7091   30.1125 C   0  0  0  0  0  0  0  0  0  0  0  0
  -13.9207   -8.1939   30.2053 S   0  0  2  0  0  0  0  0  0  0  0  0
  -14.7889   -9.2698   29.0368 C   0  0  0  0  0  0  0  0  0  0  0  0
  -14.4573   -8.8876   31.7925 C   0  0  0  0  0  0  0  0  0  0  0  0
  -13.5789   -8.3366   32.9066 C   0  0  1  0  0  0  0  0  0  0  0  0
  -13.1261   -7.0601   32.5231 O   0  0  0  0  0  0  0  0  0  0  0  0
  -14.2694   -8.1116   34.2387 C   0  0  1  0  0  0  0  0  0  0  0  0
  -14.0704   -9.2094   35.1012 O   0  0  0  0  0  0  0  0  0  0  0  0
  -13.5656   -6.8863   34.7859 C   0  0  1  0  0  0  0  0  0  0  0  0
  -12.6979   -7.2940   35.8148 O   0  0  0  0  0  0  0  0  0  0  0  0
  -12.7538   -6.2955   33.6411 C   0  0  2  0  0  0  0  0  0  0  0  0
  -12.9186   -6.9870   26.5915 O   0  0  0  0  0  0  0  0  0  0  0  0
  -16.5608   -3.0593   31.9650 N   0  0  0  0  0  0  0  0  0  0  0  0
  -16.5721   -4.4397   32.0044 C   0  0  0  0  0  0  0  0  0  0  0  0
  -15.4773   -5.1389   32.4762 N   0  0  0  0  0  0  0  0  0  0  0  0
  -14.3754   -4.4770   32.9024 C   0  0  0  0  0  0  0  0  0  0  0  0
  -14.3490   -3.0880   32.8782 C   0  0  0  0  0  0  0  0  0  0  0  0
  -15.4453   -2.3788   32.4026 C   0  0  0  0  0  0  0  0  0  0  0  0
  -15.4162   -1.0487   32.3706 N   0  0  0  0  0  0  0  0  0  0  0  0
  -13.1520   -2.6880   33.3585 N   0  0  0  0  0  0  0  0  0  0  0  0
  -12.4338   -3.7838   33.6992 C   0  0  0  0  0  0  0  0  0  0  0  0
  -13.1763   -4.9017   33.4240 N   0  0  0  0  0  0  0  0  0  0  0  0
  2  1  1  6  0  0  0
  2  3  1  0  0  0  0
  2  5  1  0  0  0  0
  3  4  1  0  0  0  0
  3 17  1  0  0  0  0
  5  6  1  0  0  0  0
  7  6  1  1  0  0  0
  7  8  1  0  0  0  0
  7  9  1  0  0  0  0
 10  9  1  6  0  0  0
 10 11  1  0  0  0  0
 10 12  1  0  0  0  0
 11 16  1  0  0  0  0
 12 13  1  1  0  0  0
 12 14  1  0  0  0  0
 14 15  1  1  0  0  0
 14 16  1  0  0  0  0
 16 27  1  6  0  0  0
 18 19  2  0  0  0  0
 18 23  1  0  0  0  0
 19 20  1  0  0  0  0
 20 21  2  0  0  0  0
 21 22  1  0  0  0  0
 21 27  1  0  0  0  0
 22 23  2  0  0  0  0
 22 25  1  0  0  0  0
 23 24  1  0  0  0  0
 25 26  2  0  0  0  0
 26 27  1  0  0  0  0
M  END
>  <CHROM.1>
136.27375722,-156.65786561,-75.04109116,-54.44294060,-90.38885211,28.80429027
42.68293267,-14.04100635,-6.03474653,31.54577976,1.37757926,1.35806204,-1.65082621

>  <Name>
ligand

>  <RI>
0

>  <Rbt.Current_Directory>
/home/itssahil/PROJECTS/Mol_Feturizer/New_Systems/rnas/3GX6

>  <Rbt.Executable>
rbdock ($Id: //depot/dev/client3/rdock/2013.1/src/exe/rbdock.cxx#4 $)

>  <Rbt.Library>
libRbt.so (2013.1, Build901 2013/11/27)

>  <Rbt.Parameter_File>
/export/apps/rDock/src/rDock_2013.1_src/data/scripts/dock_solv.prm

>  <Rbt.Receptor>
prm/pocket_docking_2.prm

>  <SCORE>
-17.4105

>  <SCORE.INTER>
-9.88122

>  <SCORE.INTER.CONST>
1

>  <SCORE.INTER.POLAR>
0

>  <SCORE.INTER.ROT>
7

>  <SCORE.INTER.SOLV>
20.0219

>  <SCORE.INTER.VDW>
-21.5281

>  <SCORE.INTER.norm>
-0.365971

>  <SCORE.INTRA>
-8.07478

>  <SCORE.INTRA.DIHEDRAL>
-4.58342

>  <SCORE.INTRA.DIHEDRAL.0>
15.0182

>  <SCORE.INTRA.POLAR>
0

>  <SCORE.INTRA.POLAR.0>
0

>  <SCORE.INTRA.REPUL>
0

>  <SCORE.INTRA.REPUL.0>
0

>  <SCORE.INTRA.SOLV>
-1.51208

>  <SCORE.INTRA.SOLV.lig_0>
-47.9129

>  <SCORE.INTRA.VDW>
-5.02703

>  <SCORE.INTRA.VDW.0>
2.00851

>  <SCORE.INTRA.norm>
-0.299066

>  <SCORE.RESTR>
0.545536

>  <SCORE.RESTR.CAVITY>
0.545536

>  <SCORE.RESTR.norm>
0.0202051

>  <SCORE.SYSTEM>
0

>  <SCORE.SYSTEM.CONST>
0

>  <SCORE.SYSTEM.DIHEDRAL>
0

>  <SCORE.SYSTEM.SOLV>
0

>  <SCORE.SYSTEM.norm>
0

>  <SCORE.heavy>
27

>  <SCORE.norm>
-0.644832

>  <RMSD>
1.487

$$$$
ligand
 OpenBabel11021811483D
libRbt.so/2013.1/901 2013/11/27
 27 29  0  0  0  0  0  0  0  0999 V2000
  -14.3179   -5.3128   26.9099 N   0  0  0  0  0  0  0  0  0  0  0  0
  -14.4331   -5.2461   28.3643 C   0  0  2  0  0  0  0  0  0  0  0  0
  -13.0691   -5.1243   29.0384 C   0  0  0  0  0  0  0  0  0  0  0  0
  -12.0623   -5.6266   28.5341 O   0  0  0  0  0  0  0  0  0  0  0  0
  -15.2152   -6.4398   28.9039 C   0  0  0  0  0  0  0  0  0  0  0  0
  -14.5471   -7.7761   28.6192 C   0  0  0  0  0  0  0  0  0  0  0  0
  -13.1800   -8.1645   29.7401 S   0  0  2  0  0  0  0  0  0  0  0  0
  -12.7013   -9.7966   29.1206 C   0  0  0  0  0  0  0  0  0  0  0  0
  -14.0855   -8.6086   31.2472 C   0  0  0  0  0  0  0  0  0  0  0  0
  -13.3561   -8.0452   32.4584 C   0  0  1  0  0  0  0  0  0  0  0  0
  -12.9889   -6.7160   32.1754 O   0  0  0  0  0  0  0  0  0  0  0  0
  -14.1727   -7.9515   33.7336 C   0  0  1  0  0  0  0  0  0  0  0  0
  -13.9489   -9.0730   34.5588 O   0  0  0  0  0  0  0  0  0  0  0  0
  -13.6296   -6.7018   34.3964 C   0  0  1  0  0  0  0  0  0  0  0  0
  -12.8178   -7.0886   35.4777 O   0  0  0  0  0  0  0  0  0  0  0  0
  -12.7812   -5.9835   33.3558 C   0  0  2  0  0  0  0  0  0  0  0  0
  -12.9496   -4.5235   30.1064 O   0  0  0  0  0  0  0  0  0  0  0  0
  -16.8105   -3.0077   31.7172 N   0  0  0  0  0  0  0  0  0  0  0  0
  -16.7166   -4.3854   31.7245 C   0  0  0  0  0  0  0  0  0  0  0  0
  -15.5755   -5.0102   32.1909 N   0  0  0  0  0  0  0  0  0  0  0  0
  -14.5309   -4.2767   32.6433 C   0  0  0  0  0  0  0  0  0  0  0  0
  -14.6105   -2.8895   32.6516 C   0  0  0  0  0  0  0  0  0  0  0  0
  -15.7538   -2.2548   32.1816 C   0  0  0  0  0  0  0  0  0  0  0  0
  -15.8262   -0.9259   32.1807 N   0  0  0  0  0  0  0  0  0  0  0  0
  -13.4515   -2.4110   33.1528 N   0  0  0  0  0  0  0  0  0  0  0  0
  -12.6545   -3.4568   33.4752 C   0  0  0  0  0  0  0  0  0  0  0  0
  -13.3071   -4.6211   33.1668 N   0  0  0  0  0  0  0  0  0  0  0  0
  2  1  1  6  0  0  0
  2  3  1  0  0  0  0
  2  5  1  0  0  0  0
  3  4  1  0  0  0  0
  3 17  1  0  0  0  0
  5  6  1  0  0  0  0
  7  6  1  6  0  0  0
  7  8  1  0  0  0  0
  7  9  1  0  0  0  0
 10  9  1  6  0  0  0
 10 11  1  0  0  0  0
 10 12  1  0  0  0  0
 11 16  1  0  0  0  0
 12 13  1  1  0  0  0
 12 14  1  0  0  0  0
 14 15  1  1  0  0  0
 14 16  1  0  0  0  0
 16 27  1  6  0  0  0
 18 19  2  0  0  0  0
 18 23  1  0  0  0  0
 19 20  1  0  0  0  0
 20 21  2  0  0  0  0
 21 22  1  0  0  0  0
 21 27  1  0  0  0  0
 22 23  2  0  0  0  0
 22 25  1  0  0  0  0
 23 24  1  0  0  0  0
 25 26  2  0  0  0  0
 26 27  1  0  0  0  0
M  END
>  <CHROM.1>
-30.72097114,62.00203540,78.99164853,178.50994623,-140.27038022,45.04356810
47.38206160,-13.97269021,-5.80575980,31.45065816,0.63737905,1.26567646,-1.69113307

>  <Name>
ligand

>  <RI>
0

>  <Rbt.Current_Directory>
/home/itssahil/PROJECTS/Mol_Feturizer/New_Systems/rnas/3GX6

>  <Rbt.Executable>
rbdock ($Id: //depot/dev/client3/rdock/2013.1/src/exe/rbdock.cxx#4 $)

>  <Rbt.Library>
libRbt.so (2013.1, Build901 2013/11/27)

>  <Rbt.Parameter_File>
/export/apps/rDock/src/rDock_2013.1_src/data/scripts/dock_solv.prm

>  <Rbt.Receptor>
prm/pocket_docking_3.prm

>  <SCORE>
-21.45

>  <SCORE.INTER>
-10.7708

>  <SCORE.INTER.CONST>
1

>  <SCORE.INTER.POLAR>
0

>  <SCORE.INTER.ROT>
7

>  <SCORE.INTER.SOLV>
17.7999

>  <SCORE.INTER.VDW>
-21.3805

>  <SCORE.INTER.norm>
-0.39892

>  <SCORE.INTRA>
-10.6791

>  <SCORE.INTRA.DIHEDRAL>
-5.75125

>  <SCORE.INTRA.DIHEDRAL.0>
15.0182

>  <SCORE.INTRA.POLAR>
0

>  <SCORE.INTRA.POLAR.0>
0

>  <SCORE.INTRA.REPUL>
0

>  <SCORE.INTRA.REPUL.0>
0

>  <SCORE.INTRA.SOLV>
-0.532177

>  <SCORE.INTRA.SOLV.lig_0>
-47.9129

>  <SCORE.INTRA.VDW>
-7.53741

>  <SCORE.INTRA.VDW.0>
2.00851

>  <SCORE.INTRA.norm>
-0.395523

>  <SCORE.RESTR>
0

>  <SCORE.RESTR.CAVITY>
0

>  <SCORE.RESTR.norm>
0

>  <SCORE.SYSTEM>
0

>  <SCORE.SYSTEM.CONST>
0

>  <SCORE.SYSTEM.DIHEDRAL>
0

>  <SCORE.SYSTEM.SOLV>
0

>  <SCORE.SYSTEM.norm>
0

>  <SCORE.heavy>
27

>  <SCORE.norm>
-0.794443

>  <RMSD>
1.534

$$$$
ligand
 OpenBabel11021811483D
libRbt.so/2013.1/901 2013/11/27
 27 29  0  0  0  0  0  0  0  0999 V2000
  -15.2636   -5.5155   26.0302 N   0  0  0  0  0  0  0  0  0  0  0  0
  -15.0138   -6.0675   27.3590 C   0  0  2  0  0  0  0  0  0  0  0  0
  -14.7817   -4.9719   28.3962 C   0  0  0  0  0  0  0  0  0  0  0  0
  -13.8840   -4.1389   28.2527 O   0  0  0  0  0  0  0  0  0  0  0  0
  -13.8538   -7.0581   27.3279 C   0  0  0  0  0  0  0  0  0  0  0  0
  -13.8548   -8.0241   28.5027 C   0  0  0  0  0  0  0  0  0  0  0  0
  -13.6680   -7.2184   30.1127 S   0  0  2  0  0  0  0  0  0  0  0  0
  -12.0871   -6.3698   29.8735 C   0  0  0  0  0  0  0  0  0  0  0  0
  -13.1646   -8.6223   31.1444 C   0  0  0  0  0  0  0  0  0  0  0  0
  -13.1893   -8.2070   32.6083 C   0  0  1  0  0  0  0  0  0  0  0  0
  -12.6580   -6.9073   32.7089 O   0  0  0  0  0  0  0  0  0  0  0  0
  -14.5648   -8.1062   33.2407 C   0  0  1  0  0  0  0  0  0  0  0  0
  -14.8888   -9.2908   33.9338 O   0  0  0  0  0  0  0  0  0  0  0  0
  -14.4088   -6.9584   34.2175 C   0  0  1  0  0  0  0  0  0  0  0  0
  -14.3435   -7.4875   35.5189 O   0  0  0  0  0  0  0  0  0  0  0  0
  -13.0927   -6.2697   33.8826 C   0  0  2  0  0  0  0  0  0  0  0  0
  -15.4871   -4.9028   29.4028 O   0  0  0  0  0  0  0  0  0  0  0  0
  -16.4542   -2.7508   31.8595 N   0  0  0  0  0  0  0  0  0  0  0  0
  -16.6105   -4.1193   31.9582 C   0  0  0  0  0  0  0  0  0  0  0  0
  -15.6193   -4.9017   32.5198 N   0  0  0  0  0  0  0  0  0  0  0  0
  -14.4777   -4.3347   32.9770 C   0  0  0  0  0  0  0  0  0  0  0  0
  -14.3063   -2.9583   32.8939 C   0  0  0  0  0  0  0  0  0  0  0  0
  -15.2977   -2.1660   32.3281 C   0  0  0  0  0  0  0  0  0  0  0  0
  -15.1293   -0.8488   32.2399 N   0  0  0  0  0  0  0  0  0  0  0  0
  -13.1000   -2.6585   33.4217 N   0  0  0  0  0  0  0  0  0  0  0  0
  -12.5174   -3.8033   33.8489 C   0  0  0  0  0  0  0  0  0  0  0  0
  -13.3569   -4.8525   33.5820 N   0  0  0  0  0  0  0  0  0  0  0  0
  2  1  1  6  0  0  0
  2  3  1  0  0  0  0
  2  5  1  0  0  0  0
  3  4  1  0  0  0  0
  3 17  1  0  0  0  0
  5  6  1  0  0  0  0
  7  6  1  6  0  0  0
  7  8  1  0  0  0  0
  7  9  1  0  0  0  0
 10  9  1  6  0  0  0
 10 11  1  0  0  0  0
 10 12  1  0  0  0  0
 11 16  1  0  0  0  0
 12 13  1  1  0  0  0
 12 14  1  0  0  0  0
 14 15  1  1  0  0  0
 14 16  1  0  0  0  0
 16 27  1  6  0  0  0
 18 19  2  0  0  0  0
 18 23  1  0  0  0  0
 19 20  1  0  0  0  0
 20 21  2  0  0  0  0
 21 22  1  0  0  0  0
 21 27  1  0  0  0  0
 22 23  2  0  0  0  0
 22 25  1  0  0  0  0
 23 24  1  0  0  0  0
 25 26  2  0  0  0  0
 26 27  1  0  0  0  0
M  END
>  <CHROM.1>
-57.28757804,-159.11772215,-62.42277614,-58.22026730,-170.07358933,-41.22788507
79.58825793,-14.21870341,-5.67896919,31.40312101,1.76975431,1.33339278,-1.85343811

>  <Name>
ligand

>  <RI>
0

>  <Rbt.Current_Directory>
/home/itssahil/PROJECTS/Mol_Feturizer/New_Systems/rnas/3GX6

>  <Rbt.Executable>
rbdock ($Id: //depot/dev/client3/rdock/2013.1/src/exe/rbdock.cxx#4 $)

>  <Rbt.Library>
libRbt.so (2013.1, Build901 2013/11/27)

>  <Rbt.Parameter_File>
/export/apps/rDock/src/rDock_2013.1_src/data/scripts/dock_solv.prm

>  <Rbt.Receptor>
prm/pocket_docking_2.prm

>  <SCORE>
-18.6955

>  <SCORE.INTER>
-8.84296

>  <SCORE.INTER.CONST>
1

>  <SCORE.INTER.POLAR>
0

>  <SCORE.INTER.ROT>
7

>  <SCORE.INTER.SOLV>
20.557

>  <SCORE.INTER.VDW>
-21.0143

>  <SCORE.INTER.norm>
-0.327517

>  <SCORE.INTRA>
-9.85759

>  <SCORE.INTRA.DIHEDRAL>
-7.92515

>  <SCORE.INTRA.DIHEDRAL.0>
15.0182

>  <SCORE.INTRA.POLAR>
0

>  <SCORE.INTRA.POLAR.0>
0

>  <SCORE.INTRA.REPUL>
0

>  <SCORE.INTRA.REPUL.0>
0

>  <SCORE.INTRA.SOLV>
-1.45487

>  <SCORE.INTRA.SOLV.lig_0>
-47.9129

>  <SCORE.INTRA.VDW>
-5.16759

>  <SCORE.INTRA.VDW.0>
2.00851

>  <SCORE.INTRA.norm>
-0.365096

>  <SCORE.RESTR>
0.00506357

>  <SCORE.RESTR.CAVITY>
0.00506357

>  <SCORE.RESTR.norm>
0.00018754

>  <SCORE.SYSTEM>
0

>  <SCORE.SYSTEM.CONST>
0

>  <SCORE.SYSTEM.DIHEDRAL>
0

>  <SCORE.SYSTEM.SOLV>
0

>  <SCORE.SYSTEM.norm>
0

>  <SCORE.heavy>
27

>  <SCORE.norm>
-0.692426

>  <RMSD>
1.543

$$$$
ligand
 OpenBabel11021811483D
libRbt.so/2013.1/901 2013/11/27
 27 29  0  0  0  0  0  0  0  0999 V2000
  -16.2488   -7.0016   27.6811 N   0  0  0  0  0  0  0  0  0  0  0  0
  -14.8107   -7.1335   27.4637 C   0  0  2  0  0  0  0  0  0  0  0  0
  -14.3866   -6.5770   26.1070 C   0  0  0  0  0  0  0  0  0  0  0  0
  -14.9242   -6.9598   25.0654 O   0  0  0  0  0  0  0  0  0  0  0  0
  -14.3648   -8.5827   27.6339 C   0  0  0  0  0  0  0  0  0  0  0  0
  -14.5386   -9.1039   29.0520 C   0  0  0  0  0  0  0  0  0  0  0  0
  -13.5116   -8.2525   30.2755 S   0  0  2  0  0  0  0  0  0  0  0  0
  -11.9616   -9.1704   30.0985 C   0  0  0  0  0  0  0  0  0  0  0  0
  -14.1629   -8.9500   31.8175 C   0  0  0  0  0  0  0  0  0  0  0  0
  -13.4237   -8.3391   32.9993 C   0  0  1  0  0  0  0  0  0  0  0  0
  -12.9224   -7.0836   32.6069 O   0  0  0  0  0  0  0  0  0  0  0  0
  -14.2695   -8.0458   34.2243 C   0  0  1  0  0  0  0  0  0  0  0  0
  -14.1810   -9.0961   35.1611 O   0  0  0  0  0  0  0  0  0  0  0  0
  -13.6321   -6.7918   34.7875 C   0  0  1  0  0  0  0  0  0  0  0  0
  -12.8971   -7.1427   35.9340 O   0  0  0  0  0  0  0  0  0  0  0  0
  -12.6851   -6.2604   33.7200 C   0  0  2  0  0  0  0  0  0  0  0  0
  -13.4919   -5.7352   26.0272 O   0  0  0  0  0  0  0  0  0  0  0  0
  -16.5988   -2.9809   32.4146 N   0  0  0  0  0  0  0  0  0  0  0  0
  -16.6730   -4.3351   32.6749 C   0  0  0  0  0  0  0  0  0  0  0  0
  -15.5377   -5.0515   33.0036 N   0  0  0  0  0  0  0  0  0  0  0  0
  -14.3347   -4.4331   33.0700 C   0  0  0  0  0  0  0  0  0  0  0  0
  -14.2419   -3.0696   32.8197 C   0  0  0  0  0  0  0  0  0  0  0  0
  -15.3789   -2.3438   32.4861 C   0  0  0  0  0  0  0  0  0  0  0  0
  -15.2883   -1.0396   32.2370 N   0  0  0  0  0  0  0  0  0  0  0  0
  -12.9478   -2.7100   32.9593 N   0  0  0  0  0  0  0  0  0  0  0  0
  -12.2293   -3.8035   33.3065 C   0  0  0  0  0  0  0  0  0  0  0  0
  -13.0723   -4.8808   33.3803 N   0  0  0  0  0  0  0  0  0  0  0  0
  2  1  1  6  0  0  0
  2  3  1  0  0  0  0
  2  5  1  0  0  0  0
  3  4  1  0  0  0  0
  3 17  1  0  0  0  0
  5  6  1  0  0  0  0
  7  6  1  6  0  0  0
  7  8  1  0  0  0  0
  7  9  1  0  0  0  0
 10  9  1  6  0  0  0
 10 11  1  0  0  0  0
 10 12  1  0  0  0  0
 11 16  1  0  0  0  0
 12 13  1  1  0  0  0
 12 14  1  0  0  0  0
 14 15  1  1  0  0  0
 14 16  1  0  0  0  0
 16 27  1  6  0  0  0
 18 19  2  0  0  0  0
 18 23  1  0  0  0  0
 19 20  1  0  0  0  0
 20 21  2  0  0  0  0
 21 22  1  0  0  0  0
 21 27  1  0  0  0  0
 22 23  2  0  0  0  0
 22 25  1  0  0  0  0
 23 24  1  0  0  0  0
 25 26  2  0  0  0  0
 26 27  1  0  0  0  0
M  END
>  <CHROM.1>
-53.89727688,-65.05499171,-64.18559683,-84.34913852,-179.45266539,24.91639108
63.72381021,-14.11960830,-6.28865804,31.35009408,1.76905993,1.28640973,-2.09200613

>  <Name>
ligand

>  <RI>
0

>  <Rbt.Current_Directory>
/home/itssahil/PROJECTS/Mol_Feturizer/New_Systems/rnas/3GX6

>  <Rbt.Executable>
rbdock ($Id: //depot/dev/client3/rdock/2013.1/src/exe/rbdock.cxx#4 $)

>  <Rbt.Library>
libRbt.so (2013.1, Build901 2013/11/27)

>  <Rbt.Parameter_File>
/export/apps/rDock/src/rDock_2013.1_src/data/scripts/dock_solv.prm

>  <Rbt.Receptor>
prm/pocket_docking_3.prm

>  <SCORE>
-21.6885

>  <SCORE.INTER>
-13.8404

>  <SCORE.INTER.CONST>
1

>  <SCORE.INTER.POLAR>
0

>  <SCORE.INTER.ROT>
7

>  <SCORE.INTER.SOLV>
17.0183

>  <SCORE.INTER.VDW>
-23.1664

>  <SCORE.INTER.norm>
-0.512608

>  <SCORE.INTRA>
-7.84811

>  <SCORE.INTRA.DIHEDRAL>
-7.39087

>  <SCORE.INTRA.DIHEDRAL.0>
15.0182

>  <SCORE.INTRA.POLAR>
0

>  <SCORE.INTRA.POLAR.0>
0

>  <SCORE.INTRA.REPUL>
0

>  <SCORE.INTRA.REPUL.0>
0

>  <SCORE.INTRA.SOLV>
-0.539401

>  <SCORE.INTRA.SOLV.lig_0>
-47.9129

>  <SCORE.INTRA.VDW>
-3.88298

>  <SCORE.INTRA.VDW.0>
2.00851

>  <SCORE.INTRA.norm>
-0.290671

>  <SCORE.RESTR>
0

>  <SCORE.RESTR.CAVITY>
0

>  <SCORE.RESTR.norm>
0

>  <SCORE.SYSTEM>
0

>  <SCORE.SYSTEM.CONST>
0

>  <SCORE.SYSTEM.DIHEDRAL>
0

>  <SCORE.SYSTEM.SOLV>
0

>  <SCORE.SYSTEM.norm>
0

>  <SCORE.heavy>
27

>  <SCORE.norm>
-0.803279

>  <RMSD>
1.550

$$$$
ligand
 OpenBabel11021811483D
libRbt.so/2013.1/901 2013/11/27
 27 29  0  0  0  0  0  0  0  0999 V2000
  -15.1612   -5.4807   25.9789 N   0  0  0  0  0  0  0  0  0  0  0  0
  -14.9661   -6.0336   27.3165 C   0  0  2  0  0  0  0  0  0  0  0  0
  -14.7346   -4.9402   28.3562 C   0  0  0  0  0  0  0  0  0  0  0  0
  -15.4590   -4.8419   29.3491 O   0  0  0  0  0  0  0  0  0  0  0  0
  -13.8334   -7.0558   27.3233 C   0  0  0  0  0  0  0  0  0  0  0  0
  -13.8670   -7.9841   28.5275 C   0  0  0  0  0  0  0  0  0  0  0  0
  -13.5896   -7.1445   30.1068 S   0  0  2  0  0  0  0  0  0  0  0  0
  -11.9916   -6.3578   29.7840 C   0  0  0  0  0  0  0  0  0  0  0  0
  -13.0936   -8.5381   31.1558 C   0  0  0  0  0  0  0  0  0  0  0  0
  -13.0616   -8.0888   32.6095 C   0  0  1  0  0  0  0  0  0  0  0  0
  -12.5738   -6.7691   32.6545 O   0  0  0  0  0  0  0  0  0  0  0  0
  -14.4070   -8.0217   33.3075 C   0  0  1  0  0  0  0  0  0  0  0  0
  -14.6530   -9.2000   34.0421 O   0  0  0  0  0  0  0  0  0  0  0  0
  -14.2452   -6.8460   34.2495 C   0  0  1  0  0  0  0  0  0  0  0  0
  -14.0967   -7.3410   35.5574 O   0  0  0  0  0  0  0  0  0  0  0  0
  -12.9733   -6.1193   33.8339 C   0  0  2  0  0  0  0  0  0  0  0  0
  -13.8186   -4.1292   28.2190 O   0  0  0  0  0  0  0  0  0  0  0  0
  -16.5885   -2.7607   31.9831 N   0  0  0  0  0  0  0  0  0  0  0  0
  -16.6944   -4.1295   32.1320 C   0  0  0  0  0  0  0  0  0  0  0  0
  -15.6389   -4.8660   32.6357 N   0  0  0  0  0  0  0  0  0  0  0  0
  -14.4833   -4.2529   32.9860 C   0  0  0  0  0  0  0  0  0  0  0  0
  -14.3614   -2.8754   32.8513 C   0  0  0  0  0  0  0  0  0  0  0  0
  -15.4177   -2.1292   32.3430 C   0  0  0  0  0  0  0  0  0  0  0  0
  -15.2974   -0.8110   32.2051 N   0  0  0  0  0  0  0  0  0  0  0  0
  -13.1277   -2.5254   33.2742 N   0  0  0  0  0  0  0  0  0  0  0  0
  -12.4787   -3.6397   33.6863 C   0  0  0  0  0  0  0  0  0  0  0  0
  -13.3035   -4.7200   33.5155 N   0  0  0  0  0  0  0  0  0  0  0  0
  2  1  1  6  0  0  0
  2  3  1  0  0  0  0
  2  5  1  0  0  0  0
  3  4  1  0  0  0  0
  3 17  1  0  0  0  0
  5  6  1  0  0  0  0
  7  6  1  6  0  0  0
  7  8  1  0  0  0  0
  7  9  1  0  0  0  0
 10  9  1  6  0  0  0
 10 11  1  0  0  0  0
 10 12  1  0  0  0  0
 11 16  1  0  0  0  0
 12 13  1  1  0  0  0
 12 14  1  0  0  0  0
 14 15  1  1  0  0  0
 14 16  1  0  0  0  0
 16 27  1  6  0  0  0
 18 19  2  0  0  0  0
 18 23  1  0  0  0  0
 19 20  1  0  0  0  0
 20 21  2  0  0  0  0
 21 22  1  0  0  0  0
 21 27  1  0  0  0  0
 22 23  2  0  0  0  0
 22 25  1  0  0  0  0
 23 24  1  0  0  0  0
 25 26  2  0  0  0  0
 26 27  1  0  0  0  0
M  END
>  <CHROM.1>
123.29712368,-161.19469465,-65.12123668,-56.28684607,-169.44866651,-37.39758986
81.29271775,-14.17059691,-5.60799186,31.39718967,1.70581739,1.29167360,-1.81226496

>  <Name>
ligand

>  <RI>
0

>  <Rbt.Current_Directory>
/home/itssahil/PROJECTS/Mol_Feturizer/New_Systems/rnas/3GX6

>  <Rbt.Executable>
rbdock ($Id: //depot/dev/client3/rdock/2013.1/src/exe/rbdock.cxx#4 $)

>  <Rbt.Library>
libRbt.so (2013.1, Build901 2013/11/27)

>  <Rbt.Parameter_File>
/export/apps/rDock/src/rDock_2013.1_src/data/scripts/dock_solv.prm

>  <Rbt.Receptor>
prm/pocket_docking_3.prm

>  <SCORE>
-18.847

>  <SCORE.INTER>
-9.52802

>  <SCORE.INTER.CONST>
1

>  <SCORE.INTER.POLAR>
0

>  <SCORE.INTER.ROT>
7

>  <SCORE.INTER.SOLV>
20.7169

>  <SCORE.INTER.VDW>
-21.5243

>  <SCORE.INTER.norm>
-0.35289

>  <SCORE.INTRA>
-9.31902

>  <SCORE.INTRA.DIHEDRAL>
-7.46924

>  <SCORE.INTRA.DIHEDRAL.0>
15.0182

>  <SCORE.INTRA.POLAR>
0

>  <SCORE.INTRA.POLAR.0>
0

>  <SCORE.INTRA.REPUL>
0

>  <SCORE.INTRA.REPUL.0>
0

>  <SCORE.INTRA.SOLV>
-1.46405

>  <SCORE.INTRA.SOLV.lig_0>
-47.9129

>  <SCORE.INTRA.VDW>
-4.85238

>  <SCORE.INTRA.VDW.0>
2.00851

>  <SCORE.INTRA.norm>
-0.345149

>  <SCORE.RESTR>
0

>  <SCORE.RESTR.CAVITY>
0

>  <SCORE.RESTR.norm>
0

>  <SCORE.SYSTEM>
0

>  <SCORE.SYSTEM.CONST>
0

>  <SCORE.SYSTEM.DIHEDRAL>
0

>  <SCORE.SYSTEM.SOLV>
0

>  <SCORE.SYSTEM.norm>
0

>  <SCORE.heavy>
27

>  <SCORE.norm>
-0.698039

>  <RMSD>
1.554

$$$$
ligand
 OpenBabel11021811483D
libRbt.so/2013.1/901 2013/11/27
 27 29  0  0  0  0  0  0  0  0999 V2000
  -16.6295   -5.6658   27.4321 N   0  0  0  0  0  0  0  0  0  0  0  0
  -15.2569   -6.0292   27.7737 C   0  0  2  0  0  0  0  0  0  0  0  0
  -14.2428   -5.3446   26.8611 C   0  0  0  0  0  0  0  0  0  0  0  0
  -13.0537   -5.6704   26.8729 O   0  0  0  0  0  0  0  0  0  0  0  0
  -15.0769   -7.5443   27.7667 C   0  0  0  0  0  0  0  0  0  0  0  0
  -13.9469   -8.0209   28.6661 C   0  0  0  0  0  0  0  0  0  0  0  0
  -13.9351   -7.2435   30.3007 S   0  0  2  0  0  0  0  0  0  0  0  0
  -12.6546   -5.9874   30.0573 C   0  0  0  0  0  0  0  0  0  0  0  0
  -13.0344   -8.4859   31.2669 C   0  0  0  0  0  0  0  0  0  0  0  0
  -12.9486   -8.0322   32.7171 C   0  0  1  0  0  0  0  0  0  0  0  0
  -12.4916   -6.7009   32.7382 O   0  0  0  0  0  0  0  0  0  0  0  0
  -14.2629   -7.9959   33.4741 C   0  0  1  0  0  0  0  0  0  0  0  0
  -14.4472   -9.1780   34.2208 O   0  0  0  0  0  0  0  0  0  0  0  0
  -14.0881   -6.8142   34.4062 C   0  0  1  0  0  0  0  0  0  0  0  0
  -13.8695   -7.3020   35.7070 O   0  0  0  0  0  0  0  0  0  0  0  0
  -12.8540   -6.0579   33.9333 C   0  0  2  0  0  0  0  0  0  0  0  0
  -14.5947   -4.4463   26.0963 O   0  0  0  0  0  0  0  0  0  0  0  0
  -16.4726   -2.8331   31.8641 N   0  0  0  0  0  0  0  0  0  0  0  0
  -16.5150   -4.2099   31.9624 C   0  0  0  0  0  0  0  0  0  0  0  0
  -15.4689   -4.9065   32.5373 N   0  0  0  0  0  0  0  0  0  0  0  0
  -14.3846   -4.2458   33.0081 C   0  0  0  0  0  0  0  0  0  0  0  0
  -14.3280   -2.8600   32.9255 C   0  0  0  0  0  0  0  0  0  0  0  0
  -15.3751   -2.1535   32.3464 C   0  0  0  0  0  0  0  0  0  0  0  0
  -15.3165   -0.8268   32.2587 N   0  0  0  0  0  0  0  0  0  0  0  0
  -13.1578   -2.4601   33.4680 N   0  0  0  0  0  0  0  0  0  0  0  0
  -12.4868   -3.5521   33.9039 C   0  0  0  0  0  0  0  0  0  0  0  0
  -13.2321   -4.6679   33.6278 N   0  0  0  0  0  0  0  0  0  0  0  0
  2  1  1  6  0  0  0
  2  3  1  0  0  0  0
  2  5  1  0  0  0  0
  3  4  1  0  0  0  0
  3 17  1  0  0  0  0
  5  6  1  0  0  0  0
  7  6  1  6  0  0  0
  7  8  1  0  0  0  0
  7  9  1  0  0  0  0
 10  9  1  6  0  0  0
 10 11  1  0  0  0  0
 10 12  1  0  0  0  0
 11 16  1  0  0  0  0
 12 13  1  1  0  0  0
 12 14  1  0  0  0  0
 14 15  1  1  0  0  0
 14 16  1  0  0  0  0
 16 27  1  6  0  0  0
 18 19  2  0  0  0  0
 18 23  1  0  0  0  0
 19 20  1  0  0  0  0
 20 21  2  0  0  0  0
 21 22  1  0  0  0  0
 21 27  1  0  0  0  0
 22 23  2  0  0  0  0
 22 25  1  0  0  0  0
 23 24  1  0  0  0  0
 25 26  2  0  0  0  0
 26 27  1  0  0  0  0
M  END
>  <CHROM.1>
-169.73182532,-154.35829364,45.35966603,-99.94405693,-178.32083504,-49.38997941
73.19442315,-14.18979267,-5.67383680,31.32566105,2.00784024,1.30569246,-2.05320409

>  <Name>
ligand

>  <RI>
0

>  <Rbt.Current_Directory>
/home/itssahil/PROJECTS/Mol_Feturizer/New_Systems/rnas/3GX6

>  <Rbt.Executable>
rbdock ($Id: //depot/dev/client3/rdock/2013.1/src/exe/rbdock.cxx#4 $)

>  <Rbt.Library>
libRbt.so (2013.1, Build901 2013/11/27)

>  <Rbt.Parameter_File>
/export/apps/rDock/src/rDock_2013.1_src/data/scripts/dock_solv.prm

>  <Rbt.Receptor>
prm/pocket_docking_2.prm

>  <SCORE>
-17.0976

>  <SCORE.INTER>
-9.21888

>  <SCORE.INTER.CONST>
1

>  <SCORE.INTER.POLAR>
0

>  <SCORE.INTER.ROT>
7

>  <SCORE.INTER.SOLV>
19.1811

>  <SCORE.INTER.VDW>
-20.8063

>  <SCORE.INTER.norm>
-0.34144

>  <SCORE.INTRA>
-7.92543

>  <SCORE.INTRA.DIHEDRAL>
-5.81096

>  <SCORE.INTRA.DIHEDRAL.0>
15.0182

>  <SCORE.INTRA.POLAR>
0

>  <SCORE.INTRA.POLAR.0>
0

>  <SCORE.INTRA.REPUL>
0

>  <SCORE.INTRA.REPUL.0>
0

>  <SCORE.INTRA.SOLV>
-1.11453

>  <SCORE.INTRA.SOLV.lig_0>
-47.9129

>  <SCORE.INTRA.VDW>
-4.46269

>  <SCORE.INTRA.VDW.0>
2.00851

>  <SCORE.INTRA.norm>
-0.293535

>  <SCORE.RESTR>
0.0467564

>  <SCORE.RESTR.CAVITY>
0.0467564

>  <SCORE.RESTR.norm>
0.00173172

>  <SCORE.SYSTEM>
0

>  <SCORE.SYSTEM.CONST>
0

>  <SCORE.SYSTEM.DIHEDRAL>
0

>  <SCORE.SYSTEM.SOLV>
0

>  <SCORE.SYSTEM.norm>
0

>  <SCORE.heavy>
27

>  <SCORE.norm>
-0.633243

>  <RMSD>
1.559

$$$$
ligand
 OpenBabel11021811483D
libRbt.so/2013.1/901 2013/11/27
 27 29  0  0  0  0  0  0  0  0999 V2000
  -13.6968   -3.8607   28.0898 N   0  0  0  0  0  0  0  0  0  0  0  0
  -13.6361   -5.0555   28.9275 C   0  0  2  0  0  0  0  0  0  0  0  0
  -12.6233   -6.0689   28.4011 C   0  0  0  0  0  0  0  0  0  0  0  0
  -11.6681   -6.4320   29.0911 O   0  0  0  0  0  0  0  0  0  0  0  0
  -15.0186   -5.6815   29.0843 C   0  0  0  0  0  0  0  0  0  0  0  0
  -15.1462   -6.5584   30.3204 C   0  0  0  0  0  0  0  0  0  0  0  0
  -14.1197   -8.0483   30.2699 S   0  0  2  0  0  0  0  0  0  0  0  0
  -15.0129   -9.0204   29.0314 C   0  0  0  0  0  0  0  0  0  0  0  0
  -14.6306   -8.8711   31.8030 C   0  0  0  0  0  0  0  0  0  0  0  0
  -13.7788   -8.3619   32.9568 C   0  0  1  0  0  0  0  0  0  0  0  0
  -13.2212   -7.1245   32.5831 O   0  0  0  0  0  0  0  0  0  0  0  0
  -14.5236   -8.0703   34.2461 C   0  0  1  0  0  0  0  0  0  0  0  0
  -14.4457   -9.1650   35.1317 O   0  0  0  0  0  0  0  0  0  0  0  0
  -13.7698   -6.8858   34.8160 C   0  0  1  0  0  0  0  0  0  0  0  0
  -12.9884   -7.3337   35.8961 O   0  0  0  0  0  0  0  0  0  0  0  0
  -12.8595   -6.3686   33.7104 C   0  0  2  0  0  0  0  0  0  0  0  0
  -12.7394   -6.5409   27.2700 O   0  0  0  0  0  0  0  0  0  0  0  0
  -16.4372   -2.8956   32.0036 N   0  0  0  0  0  0  0  0  0  0  0  0
  -16.5572   -4.2684   32.0921 C   0  0  0  0  0  0  0  0  0  0  0  0
  -15.5101   -5.0370   32.5646 N   0  0  0  0  0  0  0  0  0  0  0  0
  -14.3491   -4.4516   32.9430 C   0  0  0  0  0  0  0  0  0  0  0  0
  -14.2131   -3.0708   32.8691 C   0  0  0  0  0  0  0  0  0  0  0  0
  -15.2608   -2.2924   32.3925 C   0  0  0  0  0  0  0  0  0  0  0  0
  -15.1270   -0.9707   32.3128 N   0  0  0  0  0  0  0  0  0  0  0  0
  -12.9767   -2.7522   33.3088 N   0  0  0  0  0  0  0  0  0  0  0  0
  -12.3397   -3.8900   33.6725 C   0  0  0  0  0  0  0  0  0  0  0  0
  -13.1751   -4.9534   33.4532 N   0  0  0  0  0  0  0  0  0  0  0  0
  2  1  1  6  0  0  0
  2  3  1  0  0  0  0
  2  5  1  0  0  0  0
  3  4  1  0  0  0  0
  3 17  1  0  0  0  0
  5  6  1  0  0  0  0
  7  6  1  1  0  0  0
  7  8  1  0  0  0  0
  7  9  1  0  0  0  0
 10  9  1  6  0  0  0
 10 11  1  0  0  0  0
 10 12  1  0  0  0  0
 11 16  1  0  0  0  0
 12 13  1  1  0  0  0
 12 14  1  0  0  0  0
 14 15  1  1  0  0  0
 14 16  1  0  0  0  0
 16 27  1  6  0  0  0
 18 19  2  0  0  0  0
 18 23  1  0  0  0  0
 19 20  1  0  0  0  0
 20 21  2  0  0  0  0
 21 22  1  0  0  0  0
 21 27  1  0  0  0  0
 22 23  2  0  0  0  0
 22 25  1  0  0  0  0
 23 24  1  0  0  0  0
 25 26  2  0  0  0  0
 26 27  1  0  0  0  0
M  END
>  <CHROM.1>
120.35324514,-157.59694706,-66.17810078,-71.97609861,-87.39128110,20.45542987
47.34663537,-14.04536002,-5.89966272,31.72733178,1.11947516,1.43903903,-1.23288330

>  <Name>
ligand

>  <RI>
0

>  <Rbt.Current_Directory>
/home/itssahil/PROJECTS/Mol_Feturizer/New_Systems/rnas/3GX6

>  <Rbt.Executable>
rbdock ($Id: //depot/dev/client3/rdock/2013.1/src/exe/rbdock.cxx#4 $)

>  <Rbt.Library>
libRbt.so (2013.1, Build901 2013/11/27)

>  <Rbt.Parameter_File>
/export/apps/rDock/src/rDock_2013.1_src/data/scripts/dock_solv.prm

>  <Rbt.Receptor>
prm/pocket_docking_2.prm

>  <SCORE>
-17.7062

>  <SCORE.INTER>
-9.74002

>  <SCORE.INTER.CONST>
1

>  <SCORE.INTER.POLAR>
0

>  <SCORE.INTER.ROT>
7

>  <SCORE.INTER.SOLV>
21.5535

>  <SCORE.INTER.VDW>
-21.9445

>  <SCORE.INTER.norm>
-0.360742

>  <SCORE.INTRA>
-8.33022

>  <SCORE.INTRA.DIHEDRAL>
-5.09048

>  <SCORE.INTRA.DIHEDRAL.0>
15.0182

>  <SCORE.INTRA.POLAR>
0

>  <SCORE.INTRA.POLAR.0>
0

>  <SCORE.INTRA.REPUL>
0

>  <SCORE.INTRA.REPUL.0>
0

>  <SCORE.INTRA.SOLV>
-1.44119

>  <SCORE.INTRA.SOLV.lig_0>
-47.9129

>  <SCORE.INTRA.VDW>
-5.06438

>  <SCORE.INTRA.VDW.0>
2.00851

>  <SCORE.INTRA.norm>
-0.308527

>  <SCORE.RESTR>
0.364071

>  <SCORE.RESTR.CAVITY>
0.364071

>  <SCORE.RESTR.norm>
0.0134841

>  <SCORE.SYSTEM>
0

>  <SCORE.SYSTEM.CONST>
0

>  <SCORE.SYSTEM.DIHEDRAL>
0

>  <SCORE.SYSTEM.SOLV>
0

>  <SCORE.SYSTEM.norm>
0

>  <SCORE.heavy>
27

>  <SCORE.norm>
-0.655784

>  <RMSD>
1.572

$$$$
ligand
 OpenBabel11021811483D
libRbt.so/2013.1/901 2013/11/27
 27 29  0  0  0  0  0  0  0  0999 V2000
  -15.8309   -8.0150   26.7468 N   0  0  0  0  0  0  0  0  0  0  0  0
  -15.5163   -6.6531   27.1700 C   0  0  2  0  0  0  0  0  0  0  0  0
  -14.9244   -5.8258   26.0319 C   0  0  0  0  0  0  0  0  0  0  0  0
  -14.2868   -6.3594   25.1214 O   0  0  0  0  0  0  0  0  0  0  0  0
  -14.5978   -6.6598   28.3882 C   0  0  0  0  0  0  0  0  0  0  0  0
  -13.3125   -7.4430   28.1694 C   0  0  0  0  0  0  0  0  0  0  0  0
  -12.2028   -7.4428   29.5993 S   0  0  2  0  0  0  0  0  0  0  0  0
  -11.1267   -8.8365   29.1797 C   0  0  0  0  0  0  0  0  0  0  0  0
  -13.2695   -8.1861   30.8636 C   0  0  0  0  0  0  0  0  0  0  0  0
  -12.8802   -7.6470   32.2326 C   0  0  1  0  0  0  0  0  0  0  0  0
  -12.6527   -6.2628   32.1150 O   0  0  0  0  0  0  0  0  0  0  0  0
  -13.9382   -7.7688   33.3131 C   0  0  1  0  0  0  0  0  0  0  0  0
  -13.7287   -8.9230   34.0957 O   0  0  0  0  0  0  0  0  0  0  0  0
  -13.7165   -6.5255   34.1504 C   0  0  1  0  0  0  0  0  0  0  0  0
  -13.0894   -6.9038   35.3510 O   0  0  0  0  0  0  0  0  0  0  0  0
  -12.7870   -5.6182   33.3558 C   0  0  2  0  0  0  0  0  0  0  0  0
  -15.0690   -4.6035   26.0050 O   0  0  0  0  0  0  0  0  0  0  0  0
  -17.1624   -3.1019   31.8395 N   0  0  0  0  0  0  0  0  0  0  0  0
  -16.9379   -4.4634   31.8932 C   0  0  0  0  0  0  0  0  0  0  0  0
  -15.7192   -4.9591   32.3167 N   0  0  0  0  0  0  0  0  0  0  0  0
  -14.7265   -4.1131   32.6808 C   0  0  0  0  0  0  0  0  0  0  0  0
  -14.9370   -2.7403   32.6415 C   0  0  0  0  0  0  0  0  0  0  0  0
  -16.1588   -2.2350   32.2141 C   0  0  0  0  0  0  0  0  0  0  0  0
  -16.3570   -0.9199   32.1675 N   0  0  0  0  0  0  0  0  0  0  0  0
  -13.8036   -2.1353   33.0574 N   0  0  0  0  0  0  0  0  0  0  0  0
  -12.8947   -3.0878   33.3728 C   0  0  0  0  0  0  0  0  0  0  0  0
  -13.4493   -4.3198   33.1461 N   0  0  0  0  0  0  0  0  0  0  0  0
  2  1  1  6  0  0  0
  2  3  1  0  0  0  0
  2  5  1  0  0  0  0
  3  4  1  0  0  0  0
  3 17  1  0  0  0  0
  5  6  1  0  0  0  0
  7  6  1  6  0  0  0
  7  8  1  0  0  0  0
  7  9  1  0  0  0  0
 10  9  1  6  0  0  0
 10 11  1  0  0  0  0
 10 12  1  0  0  0  0
 11 16  1  0  0  0  0
 12 13  1  1  0  0  0
 12 14  1  0  0  0  0
 14 15  1  1  0  0  0
 14 16  1  0  0  0  0
 16 27  1  6  0  0  0
 18 19  2  0  0  0  0
 18 23  1  0  0  0  0
 19 20  1  0  0  0  0
 20 21  2  0  0  0  0
 21 22  1  0  0  0  0
 21 27  1  0  0  0  0
 22 23  2  0  0  0  0
 22 25  1  0  0  0  0
 23 24  1  0  0  0  0
 25 26  2  0  0  0  0
 26 27  1  0  0  0  0
M  END
>  <CHROM.1>
-28.40814432,55.86982588,179.27741450,162.73822459,-150.28730065,42.47370458
63.89248417,-14.12647802,-5.78074702,30.89847666,1.52247939,1.01698581,-1.89321869

>  <Name>
ligand

>  <RI>
0

>  <Rbt.Current_Directory>
/home/itssahil/PROJECTS/Mol_Feturizer/New_Systems/rnas/3GX6

>  <Rbt.Executable>
rbdock ($Id: //depot/dev/client3/rdock/2013.1/src/exe/rbdock.cxx#4 $)

>  <Rbt.Library>
libRbt.so (2013.1, Build901 2013/11/27)

>  <Rbt.Parameter_File>
/export/apps/rDock/src/rDock_2013.1_src/data/scripts/dock_solv.prm

>  <Rbt.Receptor>
prm/pocket_docking_4.prm

>  <SCORE>
-22.2988

>  <SCORE.INTER>
-13.714

>  <SCORE.INTER.CONST>
1

>  <SCORE.INTER.POLAR>
0

>  <SCORE.INTER.ROT>
7

>  <SCORE.INTER.SOLV>
17.7342

>  <SCORE.INTER.VDW>
-23.3208

>  <SCORE.INTER.norm>
-0.507928

>  <SCORE.INTRA>
-8.58471

>  <SCORE.INTRA.DIHEDRAL>
-7.43944

>  <SCORE.INTRA.DIHEDRAL.0>
15.0182

>  <SCORE.INTRA.POLAR>
0

>  <SCORE.INTRA.POLAR.0>
0

>  <SCORE.INTRA.REPUL>
0

>  <SCORE.INTRA.REPUL.0>
0

>  <SCORE.INTRA.SOLV>
-1.02689

>  <SCORE.INTRA.SOLV.lig_0>
-47.9129

>  <SCORE.INTRA.VDW>
-4.35154

>  <SCORE.INTRA.VDW.0>
2.00851

>  <SCORE.INTRA.norm>
-0.317952

>  <SCORE.RESTR>
0

>  <SCORE.RESTR.CAVITY>
0

>  <SCORE.RESTR.norm>
0

>  <SCORE.SYSTEM>
0

>  <SCORE.SYSTEM.CONST>
0

>  <SCORE.SYSTEM.DIHEDRAL>
0

>  <SCORE.SYSTEM.SOLV>
0

>  <SCORE.SYSTEM.norm>
0

>  <SCORE.heavy>
27

>  <SCORE.norm>
-0.82588

>  <RMSD>
1.579

$$$$
ligand
 OpenBabel11021811483D
libRbt.so/2013.1/901 2013/11/27
 27 29  0  0  0  0  0  0  0  0999 V2000
  -14.5201   -7.5912   26.2253 N   0  0  0  0  0  0  0  0  0  0  0  0
  -13.8263   -7.1547   27.4340 C   0  0  2  0  0  0  0  0  0  0  0  0
  -13.6243   -5.6419   27.4596 C   0  0  0  0  0  0  0  0  0  0  0  0
  -12.8612   -5.1149   28.2722 O   0  0  0  0  0  0  0  0  0  0  0  0
  -12.5025   -7.8950   27.5994 C   0  0  0  0  0  0  0  0  0  0  0  0
  -12.6486   -9.2450   28.2843 C   0  0  0  0  0  0  0  0  0  0  0  0
  -13.1123   -9.1335   30.0304 S   0  0  2  0  0  0  0  0  0  0  0  0
  -14.8763   -8.7573   29.8780 C   0  0  0  0  0  0  0  0  0  0  0  0
  -12.4385   -7.5063   30.4627 C   0  0  0  0  0  0  0  0  0  0  0  0
  -12.6812   -7.2363   31.9407 C   0  0  1  0  0  0  0  0  0  0  0  0
  -12.4421   -5.8711   32.1865 O   0  0  0  0  0  0  0  0  0  0  0  0
  -14.0992   -7.4685   32.4280 C   0  0  1  0  0  0  0  0  0  0  0  0
  -14.2320   -8.7508   32.9995 O   0  0  0  0  0  0  0  0  0  0  0  0
  -14.2735   -6.4043   33.4924 C   0  0  1  0  0  0  0  0  0  0  0  0
  -14.2180   -7.0235   34.7539 O   0  0  0  0  0  0  0  0  0  0  0  0
  -13.1039   -5.4400   33.3481 C   0  0  2  0  0  0  0  0  0  0  0  0
  -14.2267   -4.9160   26.6685 O   0  0  0  0  0  0  0  0  0  0  0  0
  -17.1194   -2.5075   31.6011 N   0  0  0  0  0  0  0  0  0  0  0  0
  -17.0263   -3.8846   31.6457 C   0  0  0  0  0  0  0  0  0  0  0  0
  -15.8889   -4.4971   32.1370 N   0  0  0  0  0  0  0  0  0  0  0  0
  -14.8474   -3.7521   32.5775 C   0  0  0  0  0  0  0  0  0  0  0  0
  -14.9264   -2.3652   32.5483 C   0  0  0  0  0  0  0  0  0  0  0  0
  -16.0658   -1.7428   32.0532 C   0  0  0  0  0  0  0  0  0  0  0  0
  -16.1375   -0.4144   32.0165 N   0  0  0  0  0  0  0  0  0  0  0  0
  -13.7709   -1.8739   33.0453 N   0  0  0  0  0  0  0  0  0  0  0  0
  -12.9768   -2.9110   33.4013 C   0  0  0  0  0  0  0  0  0  0  0  0
  -13.6277   -4.0829   33.1191 N   0  0  0  0  0  0  0  0  0  0  0  0
  2  1  1  6  0  0  0
  2  3  1  0  0  0  0
  2  5  1  0  0  0  0
  3  4  1  0  0  0  0
  3 17  1  0  0  0  0
  5  6  1  0  0  0  0
  7  6  1  6  0  0  0
  7  8  1  0  0  0  0
  7  9  1  0  0  0  0
 10  9  1  6  0  0  0
 10 11  1  0  0  0  0
 10 12  1  0  0  0  0
 11 16  1  0  0  0  0
 12 13  1  1  0  0  0
 12 14  1  0  0  0  0
 14 15  1  1  0  0  0
 14 16  1  0  0  0  0
 16 27  1  6  0  0  0
 18 19  2  0  0  0  0
 18 23  1  0  0  0  0
 19 20  1  0  0  0  0
 20 21  2  0  0  0  0
 21 22  1  0  0  0  0
 21 27  1  0  0  0  0
 22 23  2  0  0  0  0
 22 25  1  0  0  0  0
 23 24  1  0  0  0  0
 25 26  2  0  0  0  0
 26 27  1  0  0  0  0
M  END
>  <CHROM.1>
-167.13856070,-84.67319888,-68.50050744,77.02163699,-177.81297605,-166.47259911
87.99321970,-14.07404201,-5.77205196,30.94503535,0.67852819,1.23283046,-1.61470079

>  <Name>
ligand

>  <RI>
0

>  <Rbt.Current_Directory>
/home/itssahil/PROJECTS/Mol_Feturizer/New_Systems/rnas/3GX6

>  <Rbt.Executable>
rbdock ($Id: //depot/dev/client3/rdock/2013.1/src/exe/rbdock.cxx#4 $)

>  <Rbt.Library>
libRbt.so (2013.1, Build901 2013/11/27)

>  <Rbt.Parameter_File>
/export/apps/rDock/src/rDock_2013.1_src/data/scripts/dock_solv.prm

>  <Rbt.Receptor>
prm/pocket_docking_2.prm

>  <SCORE>
-16.1738

>  <SCORE.INTER>
-11.8506

>  <SCORE.INTER.CONST>
1

>  <SCORE.INTER.POLAR>
0

>  <SCORE.INTER.ROT>
7

>  <SCORE.INTER.SOLV>
15.5095

>  <SCORE.INTER.VDW>
-21.3369

>  <SCORE.INTER.norm>
-0.438912

>  <SCORE.INTRA>
-4.38643

>  <SCORE.INTRA.DIHEDRAL>
-6.85953

>  <SCORE.INTRA.DIHEDRAL.0>
15.0182

>  <SCORE.INTRA.POLAR>
0

>  <SCORE.INTRA.POLAR.0>
0

>  <SCORE.INTRA.REPUL>
0

>  <SCORE.INTRA.REPUL.0>
0

>  <SCORE.INTRA.SOLV>
0.0133302

>  <SCORE.INTRA.SOLV.lig_0>
-47.9129

>  <SCORE.INTRA.VDW>
-0.963332

>  <SCORE.INTRA.VDW.0>
2.00851

>  <SCORE.INTRA.norm>
-0.16246

>  <SCORE.RESTR>
0.0632544

>  <SCORE.RESTR.CAVITY>
0.0632544

>  <SCORE.RESTR.norm>
0.00234276

>  <SCORE.SYSTEM>
0

>  <SCORE.SYSTEM.CONST>
0

>  <SCORE.SYSTEM.DIHEDRAL>
0

>  <SCORE.SYSTEM.SOLV>
0

>  <SCORE.SYSTEM.norm>
0

>  <SCORE.heavy>
27

>  <SCORE.norm>
-0.59903

>  <RMSD>
1.613

$$$$
ligand
 OpenBabel11021811483D
libRbt.so/2013.1/901 2013/11/27
 27 29  0  0  0  0  0  0  0  0999 V2000
  -16.4857   -7.5586   26.5163 N   0  0  0  0  0  0  0  0  0  0  0  0
  -15.5868   -6.5795   27.1213 C   0  0  2  0  0  0  0  0  0  0  0  0
  -14.9134   -5.6997   26.0712 C   0  0  0  0  0  0  0  0  0  0  0  0
  -14.7730   -4.4879   26.2507 O   0  0  0  0  0  0  0  0  0  0  0  0
  -14.5575   -7.2645   28.0152 C   0  0  0  0  0  0  0  0  0  0  0  0
  -13.5041   -6.3124   28.5603 C   0  0  0  0  0  0  0  0  0  0  0  0
  -12.2240   -7.1254   29.5485 S   0  0  2  0  0  0  0  0  0  0  0  0
  -11.8042   -8.5128   28.4643 C   0  0  0  0  0  0  0  0  0  0  0  0
  -13.2336   -7.9520   30.8078 C   0  0  0  0  0  0  0  0  0  0  0  0
  -12.8710   -7.4077   32.1821 C   0  0  1  0  0  0  0  0  0  0  0  0
  -12.6738   -6.0184   32.0702 O   0  0  0  0  0  0  0  0  0  0  0  0
  -13.9373   -7.5564   33.2511 C   0  0  1  0  0  0  0  0  0  0  0  0
  -13.7098   -8.7076   34.0332 O   0  0  0  0  0  0  0  0  0  0  0  0
  -13.7526   -6.3106   34.0937 C   0  0  1  0  0  0  0  0  0  0  0  0
  -13.1297   -6.6776   35.2999 O   0  0  0  0  0  0  0  0  0  0  0  0
  -12.8357   -5.3803   33.3110 C   0  0  2  0  0  0  0  0  0  0  0  0
  -14.5007   -6.1858   25.0181 O   0  0  0  0  0  0  0  0  0  0  0  0
  -17.1898   -2.9528   31.6008 N   0  0  0  0  0  0  0  0  0  0  0  0
  -16.9257   -4.3079   31.6302 C   0  0  0  0  0  0  0  0  0  0  0  0
  -15.7196   -4.7791   32.1135 N   0  0  0  0  0  0  0  0  0  0  0  0
  -14.7779   -3.9148   32.5609 C   0  0  0  0  0  0  0  0  0  0  0  0
  -15.0292   -2.5484   32.5470 C   0  0  0  0  0  0  0  0  0  0  0  0
  -16.2386   -2.0676   32.0600 C   0  0  0  0  0  0  0  0  0  0  0  0
  -16.4754   -0.7582   32.0379 N   0  0  0  0  0  0  0  0  0  0  0  0
  -13.9427   -1.9222   33.0480 N   0  0  0  0  0  0  0  0  0  0  0  0
  -13.0247   -2.8559   33.3917 C   0  0  0  0  0  0  0  0  0  0  0  0
  -13.5252   -4.0967   33.0975 N   0  0  0  0  0  0  0  0  0  0  0  0
  2  1  1  6  0  0  0
  2  3  1  0  0  0  0
  2  5  1  0  0  0  0
  3  4  1  0  0  0  0
  3 17  1  0  0  0  0
  5  6  1  0  0  0  0
  7  6  1  6  0  0  0
  7  8  1  0  0  0  0
  7  9  1  0  0  0  0
 10  9  1  6  0  0  0
 10 11  1  0  0  0  0
 10 12  1  0  0  0  0
 11 16  1  0  0  0  0
 12 13  1  1  0  0  0
 12 14  1  0  0  0  0
 14 15  1  1  0  0  0
 14 16  1  0  0  0  0
 16 27  1  6  0  0  0
 18 19  2  0  0  0  0
 18 23  1  0  0  0  0
 19 20  1  0  0  0  0
 20 21  2  0  0  0  0
 21 22  1  0  0  0  0
 21 27  1  0  0  0  0
 22 23  2  0  0  0  0
 22 25  1  0  0  0  0
 23 24  1  0  0  0  0
 25 26  2  0  0  0  0
 26 27  1  0  0  0  0
M  END
>  <CHROM.1>
138.67890354,174.04696219,-176.82433626,47.54544955,-118.21136950,39.87738733
60.61206330,-14.20827804,-5.55972966,30.80747747,1.58359878,1.01765548,-1.93138018

>  <Name>
ligand

>  <RI>
0

>  <Rbt.Current_Directory>
/home/itssahil/PROJECTS/Mol_Feturizer/New_Systems/rnas/3GX6

>  <Rbt.Executable>
rbdock ($Id: //depot/dev/client3/rdock/2013.1/src/exe/rbdock.cxx#4 $)

>  <Rbt.Library>
libRbt.so (2013.1, Build901 2013/11/27)

>  <Rbt.Parameter_File>
/export/apps/rDock/src/rDock_2013.1_src/data/scripts/dock_solv.prm

>  <Rbt.Receptor>
prm/pocket_docking_2.prm

>  <SCORE>
-18.8318

>  <SCORE.INTER>
-11.9684

>  <SCORE.INTER.CONST>
1

>  <SCORE.INTER.POLAR>
0

>  <SCORE.INTER.ROT>
7

>  <SCORE.INTER.SOLV>
20.1165

>  <SCORE.INTER.VDW>
-22.9511

>  <SCORE.INTER.norm>
-0.443274

>  <SCORE.INTRA>
-7.03422

>  <SCORE.INTRA.DIHEDRAL>
-6.23432

>  <SCORE.INTRA.DIHEDRAL.0>
15.0182

>  <SCORE.INTRA.POLAR>
0

>  <SCORE.INTRA.POLAR.0>
0

>  <SCORE.INTRA.REPUL>
0

>  <SCORE.INTRA.REPUL.0>
0

>  <SCORE.INTRA.SOLV>
-1.73999

>  <SCORE.INTRA.SOLV.lig_0>
-47.9129

>  <SCORE.INTRA.VDW>
-3.04707

>  <SCORE.INTRA.VDW.0>
2.00851

>  <SCORE.INTRA.norm>
-0.260527

>  <SCORE.RESTR>
0.170789

>  <SCORE.RESTR.CAVITY>
0.170789

>  <SCORE.RESTR.norm>
0.00632551

>  <SCORE.SYSTEM>
0

>  <SCORE.SYSTEM.CONST>
0

>  <SCORE.SYSTEM.DIHEDRAL>
0

>  <SCORE.SYSTEM.SOLV>
0

>  <SCORE.SYSTEM.norm>
0

>  <SCORE.heavy>
27

>  <SCORE.norm>
-0.697475

>  <RMSD>
1.618

$$$$
ligand
 OpenBabel11021811483D
libRbt.so/2013.1/901 2013/11/27
 27 29  0  0  0  0  0  0  0  0999 V2000
  -10.3271   -7.4328   26.1548 N   0  0  0  0  0  0  0  0  0  0  0  0
  -11.4296   -7.5764   27.1017 C   0  0  2  0  0  0  0  0  0  0  0  0
  -12.7476   -7.0697   26.5219 C   0  0  0  0  0  0  0  0  0  0  0  0
  -13.0872   -5.8909   26.6472 O   0  0  0  0  0  0  0  0  0  0  0  0
  -11.1041   -6.8897   28.4248 C   0  0  0  0  0  0  0  0  0  0  0  0
  -12.1624   -7.1103   29.4944 C   0  0  0  0  0  0  0  0  0  0  0  0
  -12.1565   -8.7785   30.1968 S   0  0  2  0  0  0  0  0  0  0  0  0
  -12.9058   -9.7095   28.8373 C   0  0  0  0  0  0  0  0  0  0  0  0
  -13.5444   -8.6682   31.3588 C   0  0  0  0  0  0  0  0  0  0  0  0
  -13.0610   -8.0550   32.6652 C   0  0  1  0  0  0  0  0  0  0  0  0
  -12.6421   -6.7362   32.4069 O   0  0  0  0  0  0  0  0  0  0  0  0
  -14.1083   -7.9158   33.7541 C   0  0  1  0  0  0  0  0  0  0  0  0
  -14.0516   -9.0035   34.6499 O   0  0  0  0  0  0  0  0  0  0  0  0
  -13.6998   -6.6389   34.4601 C   0  0  1  0  0  0  0  0  0  0  0  0
  -13.1134   -6.9798   35.6921 O   0  0  0  0  0  0  0  0  0  0  0  0
  -12.6642   -5.9575   33.5758 C   0  0  2  0  0  0  0  0  0  0  0  0
  -13.5020   -7.8339   25.9199 O   0  0  0  0  0  0  0  0  0  0  0  0
  -16.7930   -2.9242   32.3399 N   0  0  0  0  0  0  0  0  0  0  0  0
  -16.7814   -4.2783   32.6109 C   0  0  0  0  0  0  0  0  0  0  0  0
  -15.5987   -4.9241   32.9179 N   0  0  0  0  0  0  0  0  0  0  0  0
  -14.4330   -4.2357   32.9521 C   0  0  0  0  0  0  0  0  0  0  0  0
  -14.4264   -2.8711   32.6906 C   0  0  0  0  0  0  0  0  0  0  0  0
  -15.6115   -2.2160   32.3787 C   0  0  0  0  0  0  0  0  0  0  0  0
  -15.6035   -0.9108   32.1189 N   0  0  0  0  0  0  0  0  0  0  0  0
  -13.1528   -2.4349   32.7976 N   0  0  0  0  0  0  0  0  0  0  0  0
  -12.3634   -3.4816   33.1353 C   0  0  0  0  0  0  0  0  0  0  0  0
  -13.1396   -4.6059   33.2360 N   0  0  0  0  0  0  0  0  0  0  0  0
  2  1  1  6  0  0  0
  2  3  1  0  0  0  0
  2  5  1  0  0  0  0
  3  4  1  0  0  0  0
  3 17  1  0  0  0  0
  5  6  1  0  0  0  0
  7  6  1  6  0  0  0
  7  8  1  0  0  0  0
  7  9  1  0  0  0  0
 10  9  1  6  0  0  0
 10 11  1  0  0  0  0
 10 12  1  0  0  0  0
 11 16  1  0  0  0  0
 12 13  1  1  0  0  0
 12 14  1  0  0  0  0
 14 15  1  1  0  0  0
 14 16  1  0  0  0  0
 16 27  1  6  0  0  0
 18 19  2  0  0  0  0
 18 23  1  0  0  0  0
 19 20  1  0  0  0  0
 20 21  2  0  0  0  0
 21 22  1  0  0  0  0
 21 27  1  0  0  0  0
 22 23  2  0  0  0  0
 22 25  1  0  0  0  0
 23 24  1  0  0  0  0
 25 26  2  0  0  0  0
 26 27  1  0  0  0  0
M  END
>  <CHROM.1>
-89.07819394,-174.85757348,73.55439738,-74.60089722,-83.78863533,64.00014626
74.68276985,-13.39908818,-6.18517882,31.20852477,0.50687811,1.17149449,-1.10785889

>  <Name>
ligand

>  <RI>
0

>  <Rbt.Current_Directory>
/home/itssahil/PROJECTS/Mol_Feturizer/New_Systems/rnas/3GX6

>  <Rbt.Executable>
rbdock ($Id: //depot/dev/client3/rdock/2013.1/src/exe/rbdock.cxx#4 $)

>  <Rbt.Library>
libRbt.so (2013.1, Build901 2013/11/27)

>  <Rbt.Parameter_File>
/export/apps/rDock/src/rDock_2013.1_src/data/scripts/dock_solv.prm

>  <Rbt.Receptor>
prm/pocket_docking_6.prm

>  <SCORE>
-27.0526

>  <SCORE.INTER>
-17.1367

>  <SCORE.INTER.CONST>
1

>  <SCORE.INTER.POLAR>
0

>  <SCORE.INTER.ROT>
7

>  <SCORE.INTER.SOLV>
18.3642

>  <SCORE.INTER.VDW>
-25.8125

>  <SCORE.INTER.norm>
-0.634693

>  <SCORE.INTRA>
-9.9159

>  <SCORE.INTRA.DIHEDRAL>
-10.225

>  <SCORE.INTRA.DIHEDRAL.0>
15.0182

>  <SCORE.INTRA.POLAR>
0

>  <SCORE.INTRA.POLAR.0>
0

>  <SCORE.INTRA.REPUL>
0

>  <SCORE.INTRA.REPUL.0>
0

>  <SCORE.INTRA.SOLV>
-1.34377

>  <SCORE.INTRA.SOLV.lig_0>
-47.9129

>  <SCORE.INTRA.VDW>
-4.13154

>  <SCORE.INTRA.VDW.0>
2.00851

>  <SCORE.INTRA.norm>
-0.367256

>  <SCORE.RESTR>
0

>  <SCORE.RESTR.CAVITY>
0

>  <SCORE.RESTR.norm>
0

>  <SCORE.SYSTEM>
0

>  <SCORE.SYSTEM.CONST>
0

>  <SCORE.SYSTEM.DIHEDRAL>
0

>  <SCORE.SYSTEM.SOLV>
0

>  <SCORE.SYSTEM.norm>
0

>  <SCORE.heavy>
27

>  <SCORE.norm>
-1.00195

>  <RMSD>
1.642

$$$$
ligand
 OpenBabel11021811483D
libRbt.so/2013.1/901 2013/11/27
 27 29  0  0  0  0  0  0  0  0999 V2000
  -15.0760   -6.9762   25.4179 N   0  0  0  0  0  0  0  0  0  0  0  0
  -14.7421   -6.4192   26.7260 C   0  0  2  0  0  0  0  0  0  0  0  0
  -15.2942   -5.0069   26.9011 C   0  0  0  0  0  0  0  0  0  0  0  0
  -15.2196   -4.1767   25.9925 O   0  0  0  0  0  0  0  0  0  0  0  0
  -13.2362   -6.4611   26.9675 C   0  0  0  0  0  0  0  0  0  0  0  0
  -12.8293   -7.4285   28.0683 C   0  0  0  0  0  0  0  0  0  0  0  0
  -13.5427   -7.0390   29.6855 S   0  0  2  0  0  0  0  0  0  0  0  0
  -12.8255   -5.4024   29.9749 C   0  0  0  0  0  0  0  0  0  0  0  0
  -12.5206   -8.0713   30.7709 C   0  0  0  0  0  0  0  0  0  0  0  0
  -12.8777   -7.7850   32.2224 C   0  0  1  0  0  0  0  0  0  0  0  0
  -12.4933   -6.4641   32.5207 O   0  0  0  0  0  0  0  0  0  0  0  0
  -14.3563   -7.8367   32.5589 C   0  0  1  0  0  0  0  0  0  0  0  0
  -14.7094   -9.0961   33.0861 O   0  0  0  0  0  0  0  0  0  0  0  0
  -14.5022   -6.7681   33.6231 C   0  0  1  0  0  0  0  0  0  0  0  0
  -14.6562   -7.4000   34.8700 O   0  0  0  0  0  0  0  0  0  0  0  0
  -13.2109   -5.9613   33.6186 C   0  0  2  0  0  0  0  0  0  0  0  0
  -15.8223   -4.6676   27.9602 O   0  0  0  0  0  0  0  0  0  0  0  0
  -16.6064   -2.5221   31.5168 N   0  0  0  0  0  0  0  0  0  0  0  0
  -16.6926   -3.9002   31.5372 C   0  0  0  0  0  0  0  0  0  0  0  0
  -15.7030   -4.6580   32.1344 N   0  0  0  0  0  0  0  0  0  0  0  0
  -14.6318   -4.0567   32.7043 C   0  0  0  0  0  0  0  0  0  0  0  0
  -14.5323   -2.6708   32.7010 C   0  0  0  0  0  0  0  0  0  0  0  0
  -15.5222   -1.9029   32.1000 C   0  0  0  0  0  0  0  0  0  0  0  0
  -15.4219   -0.5759   32.0886 N   0  0  0  0  0  0  0  0  0  0  0  0
  -13.3868   -2.3363   33.3332 N   0  0  0  0  0  0  0  0  0  0  0  0
  -12.7739   -3.4698   33.7479 C   0  0  0  0  0  0  0  0  0  0  0  0
  -13.5313   -4.5461   33.3674 N   0  0  0  0  0  0  0  0  0  0  0  0
  2  1  1  6  0  0  0
  2  3  1  0  0  0  0
  2  5  1  0  0  0  0
  3  4  1  0  0  0  0
  3 17  1  0  0  0  0
  5  6  1  0  0  0  0
  7  6  1  6  0  0  0
  7  8  1  0  0  0  0
  7  9  1  0  0  0  0
 10  9  1  6  0  0  0
 10 11  1  0  0  0  0
 10 12  1  0  0  0  0
 11 16  1  0  0  0  0
 12 13  1  1  0  0  0
 12 14  1  0  0  0  0
 14 15  1  1  0  0  0
 14 16  1  0  0  0  0
 16 27  1  6  0  0  0
 18 19  2  0  0  0  0
 18 23  1  0  0  0  0
 19 20  1  0  0  0  0
 20 21  2  0  0  0  0
 21 22  1  0  0  0  0
 21 27  1  0  0  0  0
 22 23  2  0  0  0  0
 22 25  1  0  0  0  0
 23 24  1  0  0  0  0
 25 26  2  0  0  0  0
 26 27  1  0  0  0  0
M  END
>  <CHROM.1>
-42.89564238,-112.29929873,-60.48968105,-61.68297128,174.55766218,-66.46051037
87.48029789,-14.27609312,-5.46023167,30.87600007,-1.66531847,-1.22641309
1.26621923

>  <Name>
ligand

>  <RI>
0

>  <Rbt.Current_Directory>
/home/itssahil/PROJECTS/Mol_Feturizer/New_Systems/rnas/3GX6

>  <Rbt.Executable>
rbdock ($Id: //depot/dev/client3/rdock/2013.1/src/exe/rbdock.cxx#4 $)

>  <Rbt.Library>
libRbt.so (2013.1, Build901 2013/11/27)

>  <Rbt.Parameter_File>
/export/apps/rDock/src/rDock_2013.1_src/data/scripts/dock_solv.prm

>  <Rbt.Receptor>
prm/pocket_docking_2.prm

>  <SCORE>
-18.2038

>  <SCORE.INTER>
-10.2126

>  <SCORE.INTER.CONST>
1

>  <SCORE.INTER.POLAR>
0

>  <SCORE.INTER.ROT>
7

>  <SCORE.INTER.SOLV>
19.0957

>  <SCORE.INTER.VDW>
-21.4403

>  <SCORE.INTER.norm>
-0.378243

>  <SCORE.INTRA>
-7.99124

>  <SCORE.INTRA.DIHEDRAL>
-6.05355

>  <SCORE.INTRA.DIHEDRAL.0>
15.0182

>  <SCORE.INTRA.POLAR>
0

>  <SCORE.INTRA.POLAR.0>
0

>  <SCORE.INTRA.REPUL>
0

>  <SCORE.INTRA.REPUL.0>
0

>  <SCORE.INTRA.SOLV>
-1.15833

>  <SCORE.INTRA.SOLV.lig_0>
-47.9129

>  <SCORE.INTRA.VDW>
-4.3853

>  <SCORE.INTRA.VDW.0>
2.00851

>  <SCORE.INTRA.norm>
-0.295972

>  <SCORE.RESTR>
0

>  <SCORE.RESTR.CAVITY>
0

>  <SCORE.RESTR.norm>
0

>  <SCORE.SYSTEM>
0

>  <SCORE.SYSTEM.CONST>
0

>  <SCORE.SYSTEM.DIHEDRAL>
0

>  <SCORE.SYSTEM.SOLV>
0

>  <SCORE.SYSTEM.norm>
0

>  <SCORE.heavy>
27

>  <SCORE.norm>
-0.674214

>  <RMSD>
1.651

$$$$
ligand
 OpenBabel11021811483D
libRbt.so/2013.1/901 2013/11/27
 27 29  0  0  0  0  0  0  0  0999 V2000
  -13.7722   -7.1570   25.3006 N   0  0  0  0  0  0  0  0  0  0  0  0
  -13.8882   -7.2954   26.7498 C   0  0  2  0  0  0  0  0  0  0  0  0
  -12.9866   -6.3107   27.4897 C   0  0  0  0  0  0  0  0  0  0  0  0
  -11.7598   -6.4324   27.4706 O   0  0  0  0  0  0  0  0  0  0  0  0
  -13.6151   -8.7326   27.1833 C   0  0  0  0  0  0  0  0  0  0  0  0
  -14.0705   -9.0304   28.6035 C   0  0  0  0  0  0  0  0  0  0  0  0
  -13.1454   -8.1305   29.8726 S   0  0  2  0  0  0  0  0  0  0  0  0
  -11.6114   -9.0910   29.9033 C   0  0  0  0  0  0  0  0  0  0  0  0
  -13.9638   -8.7206   31.3793 C   0  0  0  0  0  0  0  0  0  0  0  0
  -13.2910   -8.0997   32.5951 C   0  0  1  0  0  0  0  0  0  0  0  0
  -12.9362   -6.7752   32.2765 O   0  0  0  0  0  0  0  0  0  0  0  0
  -14.1573   -7.9744   33.8343 C   0  0  1  0  0  0  0  0  0  0  0  0
  -13.9460   -9.0604   34.7087 O   0  0  0  0  0  0  0  0  0  0  0  0
  -13.6615   -6.6913   34.4698 C   0  0  1  0  0  0  0  0  0  0  0  0
  -12.8851   -7.0229   35.5945 O   0  0  0  0  0  0  0  0  0  0  0  0
  -12.7864   -5.9961   33.4356 C   0  0  2  0  0  0  0  0  0  0  0  0
  -13.4708   -5.3750   28.1267 O   0  0  0  0  0  0  0  0  0  0  0  0
  -17.0306   -3.1195   32.2159 N   0  0  0  0  0  0  0  0  0  0  0  0
  -16.9478   -4.4879   32.3815 C   0  0  0  0  0  0  0  0  0  0  0  0
  -15.7436   -5.0862   32.7013 N   0  0  0  0  0  0  0  0  0  0  0  0
  -14.6264   -4.3358   32.8520 C   0  0  0  0  0  0  0  0  0  0  0  0
  -14.6922   -2.9566   32.6977 C   0  0  0  0  0  0  0  0  0  0  0  0
  -15.8990   -2.3489   32.3735 C   0  0  0  0  0  0  0  0  0  0  0  0
  -15.9599   -1.0287   32.2164 N   0  0  0  0  0  0  0  0  0  0  0  0
  -13.4553   -2.4568   32.9071 N   0  0  0  0  0  0  0  0  0  0  0  0
  -12.6196   -3.4793   33.2051 C   0  0  0  0  0  0  0  0  0  0  0  0
  -13.3280   -4.6515   33.1761 N   0  0  0  0  0  0  0  0  0  0  0  0
  2  1  1  6  0  0  0
  2  3  1  0  0  0  0
  2  5  1  0  0  0  0
  3  4  1  0  0  0  0
  3 17  1  0  0  0  0
  5  6  1  0  0  0  0
  7  6  1  6  0  0  0
  7  8  1  0  0  0  0
  7  9  1  0  0  0  0
 10  9  1  6  0  0  0
 10 11  1  0  0  0  0
 10 12  1  0  0  0  0
 11 16  1  0  0  0  0
 12 13  1  1  0  0  0
 12 14  1  0  0  0  0
 14 15  1  1  0  0  0
 14 16  1  0  0  0  0
 16 27  1  6  0  0  0
 18 19  2  0  0  0  0
 18 23  1  0  0  0  0
 19 20  1  0  0  0  0
 20 21  2  0  0  0  0
 21 22  1  0  0  0  0
 21 27  1  0  0  0  0
 22 23  2  0  0  0  0
 22 25  1  0  0  0  0
 23 24  1  0  0  0  0
 25 26  2  0  0  0  0
 26 27  1  0  0  0  0
M  END
>  <CHROM.1>
-69.53863837,-164.77024525,-66.28359068,-76.67614383,178.30276394,37.31728343
61.62191732,-13.85214327,-6.17186914,31.23282736,0.90078445,1.20995687,-1.50390388

>  <Name>
ligand

>  <RI>
0

>  <Rbt.Current_Directory>
/home/itssahil/PROJECTS/Mol_Feturizer/New_Systems/rnas/3GX6

>  <Rbt.Executable>
rbdock ($Id: //depot/dev/client3/rdock/2013.1/src/exe/rbdock.cxx#4 $)

>  <Rbt.Library>
libRbt.so (2013.1, Build901 2013/11/27)

>  <Rbt.Parameter_File>
/export/apps/rDock/src/rDock_2013.1_src/data/scripts/dock_solv.prm

>  <Rbt.Receptor>
prm/pocket_docking_3.prm

>  <SCORE>
-22.7482

>  <SCORE.INTER>
-12.8563

>  <SCORE.INTER.CONST>
1

>  <SCORE.INTER.POLAR>
0

>  <SCORE.INTER.ROT>
7

>  <SCORE.INTER.SOLV>
15.9864

>  <SCORE.INTER.VDW>
-22.1663

>  <SCORE.INTER.norm>
-0.476159

>  <SCORE.INTRA>
-9.89193

>  <SCORE.INTRA.DIHEDRAL>
-8.88093

>  <SCORE.INTRA.DIHEDRAL.0>
15.0182

>  <SCORE.INTRA.POLAR>
0

>  <SCORE.INTRA.POLAR.0>
0

>  <SCORE.INTRA.REPUL>
0

>  <SCORE.INTRA.REPUL.0>
0

>  <SCORE.INTRA.SOLV>
-1.59096

>  <SCORE.INTRA.SOLV.lig_0>
-47.9129

>  <SCORE.INTRA.VDW>
-4.65598

>  <SCORE.INTRA.VDW.0>
2.00851

>  <SCORE.INTRA.norm>
-0.366368

>  <SCORE.RESTR>
0

>  <SCORE.RESTR.CAVITY>
0

>  <SCORE.RESTR.norm>
0

>  <SCORE.SYSTEM>
0

>  <SCORE.SYSTEM.CONST>
0

>  <SCORE.SYSTEM.DIHEDRAL>
0

>  <SCORE.SYSTEM.SOLV>
0

>  <SCORE.SYSTEM.norm>
0

>  <SCORE.heavy>
27

>  <SCORE.norm>
-0.842526

>  <RMSD>
1.680

$$$$
ligand
 OpenBabel11021811483D
libRbt.so/2013.1/901 2013/11/27
 27 29  0  0  0  0  0  0  0  0999 V2000
  -14.2186   -4.7458   28.5678 N   0  0  0  0  0  0  0  0  0  0  0  0
  -14.4390   -5.5556   27.3725 C   0  0  2  0  0  0  0  0  0  0  0  0
  -15.9102   -5.5820   26.9662 C   0  0  0  0  0  0  0  0  0  0  0  0
  -16.3883   -6.5482   26.3677 O   0  0  0  0  0  0  0  0  0  0  0  0
  -13.8892   -6.9662   27.5614 C   0  0  0  0  0  0  0  0  0  0  0  0
  -12.4068   -6.9947   27.9001 C   0  0  0  0  0  0  0  0  0  0  0  0
  -12.0464   -6.6417   29.6384 S   0  0  2  0  0  0  0  0  0  0  0  0
  -10.2454   -6.4729   29.5723 C   0  0  0  0  0  0  0  0  0  0  0  0
  -12.2215   -8.2922   30.3688 C   0  0  0  0  0  0  0  0  0  0  0  0
  -13.0662   -8.1981   31.6314 C   0  0  1  0  0  0  0  0  0  0  0  0
  -12.7011   -7.0271   32.3221 O   0  0  0  0  0  0  0  0  0  0  0  0
  -14.5616   -8.0616   31.4141 C   0  0  1  0  0  0  0  0  0  0  0  0
  -15.2000   -9.3160   31.5009 O   0  0  0  0  0  0  0  0  0  0  0  0
  -14.9950   -7.1769   32.5653 C   0  0  1  0  0  0  0  0  0  0  0  0
  -15.6602   -7.9746   33.5135 O   0  0  0  0  0  0  0  0  0  0  0  0
  -13.7268   -6.6041   33.1835 C   0  0  2  0  0  0  0  0  0  0  0  0
  -16.6488   -4.6318   27.2256 O   0  0  0  0  0  0  0  0  0  0  0  0
  -16.1812   -2.3617   31.2463 N   0  0  0  0  0  0  0  0  0  0  0  0
  -16.4582   -3.6921   31.0013 C   0  0  0  0  0  0  0  0  0  0  0  0
  -15.7066   -4.6882   31.5956 N   0  0  0  0  0  0  0  0  0  0  0  0
  -14.6836   -4.3703   32.4240 C   0  0  0  0  0  0  0  0  0  0  0  0
  -14.3955   -3.0371   32.6891 C   0  0  0  0  0  0  0  0  0  0  0  0
  -15.1454   -2.0306   32.0929 C   0  0  0  0  0  0  0  0  0  0  0  0
  -14.8632   -0.7537   32.3395 N   0  0  0  0  0  0  0  0  0  0  0  0
  -13.3481   -3.0011   33.5408 N   0  0  0  0  0  0  0  0  0  0  0  0
  -12.9820   -4.2716   33.8313 C   0  0  0  0  0  0  0  0  0  0  0  0
  -13.7989   -5.1337   33.1485 N   0  0  0  0  0  0  0  0  0  0  0  0
  2  1  1  1  0  0  0
  2  3  1  0  0  0  0
  2  5  1  0  0  0  0
  3  4  1  0  0  0  0
  3 17  1  0  0  0  0
  5  6  1  0  0  0  0
  7  6  1  6  0  0  0
  7  8  1  0  0  0  0
  7  9  1  0  0  0  0
 10  9  1  6  0  0  0
 10 11  1  0  0  0  0
 10 12  1  0  0  0  0
 11 16  1  0  0  0  0
 12 13  1  1  0  0  0
 12 14  1  0  0  0  0
 14 15  1  1  0  0  0
 14 16  1  0  0  0  0
 16 27  1  6  0  0  0
 18 19  2  0  0  0  0
 18 23  1  0  0  0  0
 19 20  1  0  0  0  0
 20 21  2  0  0  0  0
 21 22  1  0  0  0  0
 21 27  1  0  0  0  0
 22 23  2  0  0  0  0
 22 25  1  0  0  0  0
 23 24  1  0  0  0  0
 25 26  2  0  0  0  0
 26 27  1  0  0  0  0
M  END
>  <CHROM.1>
-151.41060844,-57.53482239,79.72244718,-170.31410935,-133.29536401,-39.72986715
99.20261141,-14.18580263,-5.68568404,30.69937343,1.32465401,1.06358776,-1.99824411

>  <Name>
ligand

>  <RI>
0

>  <Rbt.Current_Directory>
/home/itssahil/PROJECTS/Mol_Feturizer/New_Systems/rnas/3GX6

>  <Rbt.Executable>
rbdock ($Id: //depot/dev/client3/rdock/2013.1/src/exe/rbdock.cxx#4 $)

>  <Rbt.Library>
libRbt.so (2013.1, Build901 2013/11/27)

>  <Rbt.Parameter_File>
/export/apps/rDock/src/rDock_2013.1_src/data/scripts/dock_solv.prm

>  <Rbt.Receptor>
prm/pocket_docking_2.prm

>  <SCORE>
-11.5711

>  <SCORE.INTER>
-7.26726

>  <SCORE.INTER.CONST>
1

>  <SCORE.INTER.POLAR>
0

>  <SCORE.INTER.ROT>
7

>  <SCORE.INTER.SOLV>
17.5197

>  <SCORE.INTER.VDW>
-18.9514

>  <SCORE.INTER.norm>
-0.269158

>  <SCORE.INTRA>
-5.77533

>  <SCORE.INTRA.DIHEDRAL>
-3.98331

>  <SCORE.INTRA.DIHEDRAL.0>
15.0182

>  <SCORE.INTRA.POLAR>
0

>  <SCORE.INTRA.POLAR.0>
0

>  <SCORE.INTRA.REPUL>
0

>  <SCORE.INTRA.REPUL.0>
0

>  <SCORE.INTRA.SOLV>
1.41352

>  <SCORE.INTRA.SOLV.lig_0>
-47.9129

>  <SCORE.INTRA.VDW>
-4.49043

>  <SCORE.INTRA.VDW.0>
2.00851

>  <SCORE.INTRA.norm>
-0.213901

>  <SCORE.RESTR>
1.47145

>  <SCORE.RESTR.CAVITY>
1.47145

>  <SCORE.RESTR.norm>
0.054498

>  <SCORE.SYSTEM>
0

>  <SCORE.SYSTEM.CONST>
0

>  <SCORE.SYSTEM.DIHEDRAL>
0

>  <SCORE.SYSTEM.SOLV>
0

>  <SCORE.SYSTEM.norm>
0

>  <SCORE.heavy>
27

>  <SCORE.norm>
-0.428561

>  <RMSD>
1.687

$$$$
ligand
 OpenBabel11021811483D
libRbt.so/2013.1/901 2013/11/27
 27 29  0  0  0  0  0  0  0  0999 V2000
  -14.9441   -6.3262   27.4049 N   0  0  0  0  0  0  0  0  0  0  0  0
  -13.8817   -6.2693   28.4055 C   0  0  2  0  0  0  0  0  0  0  0  0
  -13.7627   -4.8820   29.0311 C   0  0  0  0  0  0  0  0  0  0  0  0
  -14.4484   -4.5614   30.0044 O   0  0  0  0  0  0  0  0  0  0  0  0
  -12.5520   -6.7284   27.8146 C   0  0  0  0  0  0  0  0  0  0  0  0
  -11.4761   -6.9639   28.8634 C   0  0  0  0  0  0  0  0  0  0  0  0
  -11.6841   -8.5034   29.7924 S   0  0  2  0  0  0  0  0  0  0  0  0
  -12.3542   -9.5787   28.4997 C   0  0  0  0  0  0  0  0  0  0  0  0
  -13.1769   -8.1284   30.7513 C   0  0  0  0  0  0  0  0  0  0  0  0
  -12.7829   -7.4353   32.0477 C   0  0  1  0  0  0  0  0  0  0  0  0
  -12.4934   -6.0882   31.7593 O   0  0  0  0  0  0  0  0  0  0  0  0
  -13.8598   -7.3737   33.1146 C   0  0  1  0  0  0  0  0  0  0  0  0
  -13.7116   -8.4260   34.0416 O   0  0  0  0  0  0  0  0  0  0  0  0
  -13.5951   -6.0439   33.7910 C   0  0  1  0  0  0  0  0  0  0  0  0
  -13.0015   -6.2912   35.0417 O   0  0  0  0  0  0  0  0  0  0  0  0
  -12.6162   -5.2852   32.9052 C   0  0  2  0  0  0  0  0  0  0  0  0
  -12.9794   -4.0519   28.5696 O   0  0  0  0  0  0  0  0  0  0  0  0
  -17.0488   -2.4904   32.3432 N   0  0  0  0  0  0  0  0  0  0  0  0
  -16.9130   -3.7940   32.7780 C   0  0  0  0  0  0  0  0  0  0  0  0
  -15.6643   -4.3801   32.8646 N   0  0  0  0  0  0  0  0  0  0  0  0
  -14.5564   -3.6825   32.5186 C   0  0  0  0  0  0  0  0  0  0  0  0
  -14.6727   -2.3669   32.0871 C   0  0  0  0  0  0  0  0  0  0  0  0
  -15.9253   -1.7723   31.9951 C   0  0  0  0  0  0  0  0  0  0  0  0
  -16.0374   -0.5153   31.5727 N   0  0  0  0  0  0  0  0  0  0  0  0
  -13.4316   -1.9081   31.8174 N   0  0  0  0  0  0  0  0  0  0  0  0
  -12.5392   -2.8907   32.0834 C   0  0  0  0  0  0  0  0  0  0  0  0
  -13.2181   -3.9978   32.5195 N   0  0  0  0  0  0  0  0  0  0  0  0
  2  1  1  6  0  0  0
  2  3  1  0  0  0  0
  2  5  1  0  0  0  0
  3  4  1  0  0  0  0
  3 17  1  0  0  0  0
  5  6  1  0  0  0  0
  7  6  1  6  0  0  0
  7  8  1  0  0  0  0
  7  9  1  0  0  0  0
 10  9  1  6  0  0  0
 10 11  1  0  0  0  0
 10 12  1  0  0  0  0
 11 16  1  0  0  0  0
 12 13  1  1  0  0  0
 12 14  1  0  0  0  0
 14 15  1  1  0  0  0
 14 16  1  0  0  0  0
 16 27  1  6  0  0  0
 18 19  2  0  0  0  0
 18 23  1  0  0  0  0
 19 20  1  0  0  0  0
 20 21  2  0  0  0  0
 21 22  1  0  0  0  0
 21 27  1  0  0  0  0
 22 23  2  0  0  0  0
 22 25  1  0  0  0  0
 23 24  1  0  0  0  0
 25 26  2  0  0  0  0
 26 27  1  0  0  0  0
M  END
>  <CHROM.1>
86.66602719,-168.21019904,76.00432855,35.12377106,-87.34601371,78.14619357
91.73791573,-13.68938825,-5.43826790,31.18968794,0.25668901,1.11810287,-1.38282669

>  <Name>
ligand

>  <RI>
0

>  <Rbt.Current_Directory>
/home/itssahil/PROJECTS/Mol_Feturizer/New_Systems/rnas/3GX6

>  <Rbt.Executable>
rbdock ($Id: //depot/dev/client3/rdock/2013.1/src/exe/rbdock.cxx#4 $)

>  <Rbt.Library>
libRbt.so (2013.1, Build901 2013/11/27)

>  <Rbt.Parameter_File>
/export/apps/rDock/src/rDock_2013.1_src/data/scripts/dock_solv.prm

>  <Rbt.Receptor>
prm/pocket_docking_3.prm

>  <SCORE>
-25.1337

>  <SCORE.INTER>
-16.9983

>  <SCORE.INTER.CONST>
1

>  <SCORE.INTER.POLAR>
0

>  <SCORE.INTER.ROT>
7

>  <SCORE.INTER.SOLV>
15.9258

>  <SCORE.INTER.VDW>
-24.9075

>  <SCORE.INTER.norm>
-0.629568

>  <SCORE.INTRA>
-8.1354

>  <SCORE.INTRA.DIHEDRAL>
-7.56388

>  <SCORE.INTRA.DIHEDRAL.0>
15.0182

>  <SCORE.INTRA.POLAR>
0

>  <SCORE.INTRA.POLAR.0>
0

>  <SCORE.INTRA.REPUL>
0

>  <SCORE.INTRA.REPUL.0>
0

>  <SCORE.INTRA.SOLV>
-0.734369

>  <SCORE.INTRA.SOLV.lig_0>
-47.9129

>  <SCORE.INTRA.VDW>
-3.98627

>  <SCORE.INTRA.VDW.0>
2.00851

>  <SCORE.INTRA.norm>
-0.301311

>  <SCORE.RESTR>
0

>  <SCORE.RESTR.CAVITY>
0

>  <SCORE.RESTR.norm>
0

>  <SCORE.SYSTEM>
0

>  <SCORE.SYSTEM.CONST>
0

>  <SCORE.SYSTEM.DIHEDRAL>
0

>  <SCORE.SYSTEM.SOLV>
0

>  <SCORE.SYSTEM.norm>
0

>  <SCORE.heavy>
27

>  <SCORE.norm>
-0.930879

>  <RMSD>
1.687

$$$$
ligand
 OpenBabel11021811483D
libRbt.so/2013.1/901 2013/11/27
 27 29  0  0  0  0  0  0  0  0999 V2000
  -13.8271   -7.3994   25.3074 N   0  0  0  0  0  0  0  0  0  0  0  0
  -13.8883   -7.4257   26.7663 C   0  0  2  0  0  0  0  0  0  0  0  0
  -12.8328   -6.5211   27.3967 C   0  0  0  0  0  0  0  0  0  0  0  0
  -13.1530   -5.5904   28.1395 O   0  0  0  0  0  0  0  0  0  0  0  0
  -13.7803   -8.8546   27.2902 C   0  0  0  0  0  0  0  0  0  0  0  0
  -14.3003   -9.0165   28.7102 C   0  0  0  0  0  0  0  0  0  0  0  0
  -13.3104   -8.1525   29.9551 S   0  0  2  0  0  0  0  0  0  0  0  0
  -11.8154   -9.1730   29.9517 C   0  0  0  0  0  0  0  0  0  0  0  0
  -14.1156   -8.7078   31.4821 C   0  0  0  0  0  0  0  0  0  0  0  0
  -13.3860   -8.1177   32.6804 C   0  0  1  0  0  0  0  0  0  0  0  0
  -12.9752   -6.8125   32.3500 O   0  0  0  0  0  0  0  0  0  0  0  0
  -14.2167   -7.9487   33.9387 C   0  0  1  0  0  0  0  0  0  0  0  0
  -14.0380   -9.0420   34.8113 O   0  0  0  0  0  0  0  0  0  0  0  0
  -13.6453   -6.6898   34.5590 C   0  0  1  0  0  0  0  0  0  0  0  0
  -12.8602   -7.0564   35.6667 O   0  0  0  0  0  0  0  0  0  0  0  0
  -12.7616   -6.0394   33.5031 C   0  0  2  0  0  0  0  0  0  0  0  0
  -11.6364   -6.7019   27.1698 O   0  0  0  0  0  0  0  0  0  0  0  0
  -16.8102   -2.9955   32.0474 N   0  0  0  0  0  0  0  0  0  0  0  0
  -16.7779   -4.3710   32.1657 C   0  0  0  0  0  0  0  0  0  0  0  0
  -15.6212   -5.0160   32.5611 N   0  0  0  0  0  0  0  0  0  0  0  0
  -14.5013   -4.3051   32.8336 C   0  0  0  0  0  0  0  0  0  0  0  0
  -14.5173   -2.9197   32.7284 C   0  0  0  0  0  0  0  0  0  0  0  0
  -15.6760   -2.2650   32.3287 C   0  0  0  0  0  0  0  0  0  0  0  0
  -15.6885   -0.9388   32.2188 N   0  0  0  0  0  0  0  0  0  0  0  0
  -13.2897   -2.4649   33.0595 N   0  0  0  0  0  0  0  0  0  0  0  0
  -12.5096   -3.5220   33.3859 C   0  0  0  0  0  0  0  0  0  0  0  0
  -13.2437   -4.6708   33.2522 N   0  0  0  0  0  0  0  0  0  0  0  0
  2  1  1  6  0  0  0
  2  3  1  0  0  0  0
  2  5  1  0  0  0  0
  3  4  1  0  0  0  0
  3 17  1  0  0  0  0
  5  6  1  0  0  0  0
  7  6  1  6  0  0  0
  7  8  1  0  0  0  0
  7  9  1  0  0  0  0
 10  9  1  6  0  0  0
 10 11  1  0  0  0  0
 10 12  1  0  0  0  0
 11 16  1  0  0  0  0
 12 13  1  1  0  0  0
 12 14  1  0  0  0  0
 14 15  1  1  0  0  0
 14 16  1  0  0  0  0
 16 27  1  6  0  0  0
 18 19  2  0  0  0  0
 18 23  1  0  0  0  0
 19 20  1  0  0  0  0
 20 21  2  0  0  0  0
 21 22  1  0  0  0  0
 21 27  1  0  0  0  0
 22 23  2  0  0  0  0
 22 25  1  0  0  0  0
 23 24  1  0  0  0  0
 25 26  2  0  0  0  0
 26 27  1  0  0  0  0
M  END
>  <CHROM.1>
120.76681251,-160.31001478,-66.68884725,-70.69060298,178.03648907,36.98201748
54.97979363,-13.82478492,-6.20677110,31.25583599,0.92147442,1.26543927,-1.51413777

>  <Name>
ligand

>  <RI>
0

>  <Rbt.Current_Directory>
/home/itssahil/PROJECTS/Mol_Feturizer/New_Systems/rnas/3GX6

>  <Rbt.Executable>
rbdock ($Id: //depot/dev/client3/rdock/2013.1/src/exe/rbdock.cxx#4 $)

>  <Rbt.Library>
libRbt.so (2013.1, Build901 2013/11/27)

>  <Rbt.Parameter_File>
/export/apps/rDock/src/rDock_2013.1_src/data/scripts/dock_solv.prm

>  <Rbt.Receptor>
prm/pocket_docking_3.prm

>  <SCORE>
-22.5901

>  <SCORE.INTER>
-12.7312

>  <SCORE.INTER.CONST>
1

>  <SCORE.INTER.POLAR>
0

>  <SCORE.INTER.ROT>
7

>  <SCORE.INTER.SOLV>
15.987

>  <SCORE.INTER.VDW>
-22.0831

>  <SCORE.INTER.norm>
-0.471525

>  <SCORE.INTRA>
-9.85889

>  <SCORE.INTRA.DIHEDRAL>
-8.50497

>  <SCORE.INTRA.DIHEDRAL.0>
15.0182

>  <SCORE.INTRA.POLAR>
0

>  <SCORE.INTRA.POLAR.0>
0

>  <SCORE.INTRA.REPUL>
0

>  <SCORE.INTRA.REPUL.0>
0

>  <SCORE.INTRA.SOLV>
-1.57687

>  <SCORE.INTRA.SOLV.lig_0>
-47.9129

>  <SCORE.INTRA.VDW>
-4.81797

>  <SCORE.INTRA.VDW.0>
2.00851

>  <SCORE.INTRA.norm>
-0.365144

>  <SCORE.RESTR>
0

>  <SCORE.RESTR.CAVITY>
0

>  <SCORE.RESTR.norm>
0

>  <SCORE.SYSTEM>
0

>  <SCORE.SYSTEM.CONST>
0

>  <SCORE.SYSTEM.DIHEDRAL>
0

>  <SCORE.SYSTEM.SOLV>
0

>  <SCORE.SYSTEM.norm>
0

>  <SCORE.heavy>
27

>  <SCORE.norm>
-0.83667

>  <RMSD>
1.705

$$$$
ligand
 OpenBabel11021811483D
libRbt.so/2013.1/901 2013/11/27
 27 29  0  0  0  0  0  0  0  0999 V2000
  -16.0964   -5.1197   29.3954 N   0  0  0  0  0  0  0  0  0  0  0  0
  -14.7403   -5.5153   29.0247 C   0  0  2  0  0  0  0  0  0  0  0  0
  -14.0668   -4.4740   28.1347 C   0  0  0  0  0  0  0  0  0  0  0  0
  -12.9975   -3.9535   28.4605 O   0  0  0  0  0  0  0  0  0  0  0  0
  -14.7348   -6.8933   28.3697 C   0  0  0  0  0  0  0  0  0  0  0  0
  -13.3428   -7.3750   27.9913 C   0  0  0  0  0  0  0  0  0  0  0  0
  -12.1494   -7.3046   29.3504 S   0  0  2  0  0  0  0  0  0  0  0  0
  -11.0638   -8.6831   28.9056 C   0  0  0  0  0  0  0  0  0  0  0  0
  -13.1178   -8.0361   30.6978 C   0  0  0  0  0  0  0  0  0  0  0  0
  -12.7318   -7.3748   32.0132 C   0  0  1  0  0  0  0  0  0  0  0  0
  -12.5134   -6.0051   31.7728 O   0  0  0  0  0  0  0  0  0  0  0  0
  -13.7889   -7.4069   33.1010 C   0  0  1  0  0  0  0  0  0  0  0  0
  -13.5718   -8.4855   33.9831 O   0  0  0  0  0  0  0  0  0  0  0  0
  -13.5752   -6.0927   33.8243 C   0  0  1  0  0  0  0  0  0  0  0  0
  -12.9454   -6.3586   35.0533 O   0  0  0  0  0  0  0  0  0  0  0  0
  -12.6518   -5.2536   32.9514 C   0  0  2  0  0  0  0  0  0  0  0  0
  -14.5842   -4.1293   27.0721 O   0  0  0  0  0  0  0  0  0  0  0  0
  -17.2358   -2.7205   32.3641 N   0  0  0  0  0  0  0  0  0  0  0  0
  -17.0307   -4.0411   32.7120 C   0  0  0  0  0  0  0  0  0  0  0  0
  -15.7499   -4.5491   32.8202 N   0  0  0  0  0  0  0  0  0  0  0  0
  -14.6779   -3.7569   32.5811 C   0  0  0  0  0  0  0  0  0  0  0  0
  -14.8647   -2.4235   32.2382 C   0  0  0  0  0  0  0  0  0  0  0  0
  -16.1496   -1.9069   32.1250 C   0  0  0  0  0  0  0  0  0  0  0  0
  -16.3285   -0.6321   31.7873 N   0  0  0  0  0  0  0  0  0  0  0  0
  -13.6470   -1.8659   32.0649 N   0  0  0  0  0  0  0  0  0  0  0  0
  -12.7022   -2.8051   32.3057 C   0  0  0  0  0  0  0  0  0  0  0  0
  -13.3226   -3.9833   32.6276 N   0  0  0  0  0  0  0  0  0  0  0  0
  2  1  1  6  0  0  0
  2  3  1  0  0  0  0
  2  5  1  0  0  0  0
  3  4  1  0  0  0  0
  3 17  1  0  0  0  0
  5  6  1  0  0  0  0
  7  6  1  6  0  0  0
  7  8  1  0  0  0  0
  7  9  1  0  0  0  0
 10  9  1  6  0  0  0
 10 11  1  0  0  0  0
 10 12  1  0  0  0  0
 11 16  1  0  0  0  0
 12 13  1  1  0  0  0
 12 14  1  0  0  0  0
 14 15  1  1  0  0  0
 14 16  1  0  0  0  0
 16 27  1  6  0  0  0
 18 19  2  0  0  0  0
 18 23  1  0  0  0  0
 19 20  1  0  0  0  0
 20 21  2  0  0  0  0
 21 22  1  0  0  0  0
 21 27  1  0  0  0  0
 22 23  2  0  0  0  0
 22 25  1  0  0  0  0
 23 24  1  0  0  0  0
 25 26  2  0  0  0  0
 26 27  1  0  0  0  0
M  END
>  <CHROM.1>
122.86626313,-178.59997524,52.15174127,149.87602282,-146.23538108,37.92148401
87.29306395,-13.95306266,-5.25104628,31.13022252,2.71281718,-1.04357131,1.58764279

>  <Name>
ligand

>  <RI>
0

>  <Rbt.Current_Directory>
/home/itssahil/PROJECTS/Mol_Feturizer/New_Systems/rnas/3GX6

>  <Rbt.Executable>
rbdock ($Id: //depot/dev/client3/rdock/2013.1/src/exe/rbdock.cxx#4 $)

>  <Rbt.Library>
libRbt.so (2013.1, Build901 2013/11/27)

>  <Rbt.Parameter_File>
/export/apps/rDock/src/rDock_2013.1_src/data/scripts/dock_solv.prm

>  <Rbt.Receptor>
prm/pocket_docking_3.prm

>  <SCORE>
-23.1019

>  <SCORE.INTER>
-15.2463

>  <SCORE.INTER.CONST>
1

>  <SCORE.INTER.POLAR>
0

>  <SCORE.INTER.ROT>
7

>  <SCORE.INTER.SOLV>
15.5529

>  <SCORE.INTER.VDW>
-23.6151

>  <SCORE.INTER.norm>
-0.564677

>  <SCORE.INTRA>
-7.85561

>  <SCORE.INTRA.DIHEDRAL>
-5.3031

>  <SCORE.INTRA.DIHEDRAL.0>
15.0182

>  <SCORE.INTRA.POLAR>
0

>  <SCORE.INTRA.POLAR.0>
0

>  <SCORE.INTRA.REPUL>
0

>  <SCORE.INTRA.REPUL.0>
0

>  <SCORE.INTRA.SOLV>
-0.469198

>  <SCORE.INTRA.SOLV.lig_0>
-47.9129

>  <SCORE.INTRA.VDW>
-4.96946

>  <SCORE.INTRA.VDW.0>
2.00851

>  <SCORE.INTRA.norm>
-0.290949

>  <SCORE.RESTR>
0

>  <SCORE.RESTR.CAVITY>
0

>  <SCORE.RESTR.norm>
0

>  <SCORE.SYSTEM>
0

>  <SCORE.SYSTEM.CONST>
0

>  <SCORE.SYSTEM.DIHEDRAL>
0

>  <SCORE.SYSTEM.SOLV>
0

>  <SCORE.SYSTEM.norm>
0

>  <SCORE.heavy>
27

>  <SCORE.norm>
-0.855626

>  <RMSD>
1.719

$$$$
ligand
 OpenBabel11021811483D
libRbt.so/2013.1/901 2013/11/27
 27 29  0  0  0  0  0  0  0  0999 V2000
  -16.4780   -4.5370   28.1024 N   0  0  0  0  0  0  0  0  0  0  0  0
  -15.2374   -4.6199   27.3363 C   0  0  2  0  0  0  0  0  0  0  0  0
  -15.1902   -5.8708   26.4628 C   0  0  0  0  0  0  0  0  0  0  0  0
  -14.4102   -5.9543   25.5115 O   0  0  0  0  0  0  0  0  0  0  0  0
  -14.0229   -4.5383   28.2562 C   0  0  0  0  0  0  0  0  0  0  0  0
  -13.9427   -5.6857   29.2513 C   0  0  0  0  0  0  0  0  0  0  0  0
  -12.2510   -6.1864   29.6561 S   0  0  2  0  0  0  0  0  0  0  0  0
  -11.6869   -6.7737   28.0395 C   0  0  0  0  0  0  0  0  0  0  0  0
  -12.5521   -7.7534   30.5177 C   0  0  0  0  0  0  0  0  0  0  0  0
  -12.8649   -7.4728   31.9805 C   0  0  1  0  0  0  0  0  0  0  0  0
  -12.5527   -6.1268   32.2497 O   0  0  0  0  0  0  0  0  0  0  0  0
  -14.3216   -7.6134   32.3807 C   0  0  1  0  0  0  0  0  0  0  0  0
  -14.5715   -8.8861   32.9343 O   0  0  0  0  0  0  0  0  0  0  0  0
  -14.4898   -6.5434   33.4404 C   0  0  1  0  0  0  0  0  0  0  0  0
  -14.5504   -7.1689   34.6985 O   0  0  0  0  0  0  0  0  0  0  0  0
  -13.2535   -5.6571   33.3728 C   0  0  2  0  0  0  0  0  0  0  0  0
  -15.9378   -6.8222   26.6902 O   0  0  0  0  0  0  0  0  0  0  0  0
  -17.0737   -2.4517   31.6679 N   0  0  0  0  0  0  0  0  0  0  0  0
  -17.0906   -3.8303   31.7474 C   0  0  0  0  0  0  0  0  0  0  0  0
  -15.9910   -4.5210   32.2208 N   0  0  0  0  0  0  0  0  0  0  0  0
  -14.8792   -3.8526   32.6091 C   0  0  0  0  0  0  0  0  0  0  0  0
  -14.8470   -2.4650   32.5444 C   0  0  0  0  0  0  0  0  0  0  0  0
  -15.9480   -1.7644   32.0669 C   0  0  0  0  0  0  0  0  0  0  0  0
  -15.9135   -0.4359   31.9960 N   0  0  0  0  0  0  0  0  0  0  0  0
  -13.6402   -2.0572   32.9927 N   0  0  0  0  0  0  0  0  0  0  0  0
  -12.9213   -3.1463   33.3529 C   0  0  0  0  0  0  0  0  0  0  0  0
  -13.6733   -4.2680   33.1226 N   0  0  0  0  0  0  0  0  0  0  0  0
  2  1  1  1  0  0  0
  2  3  1  0  0  0  0
  2  5  1  0  0  0  0
  3  4  1  0  0  0  0
  3 17  1  0  0  0  0
  5  6  1  0  0  0  0
  7  6  1  6  0  0  0
  7  8  1  0  0  0  0
  7  9  1  0  0  0  0
 10  9  1  6  0  0  0
 10 11  1  0  0  0  0
 10 12  1  0  0  0  0
 11 16  1  0  0  0  0
 12 13  1  1  0  0  0
 12 14  1  0  0  0  0
 14 15  1  1  0  0  0
 14 16  1  0  0  0  0
 16 27  1  6  0  0  0
 18 19  2  0  0  0  0
 18 23  1  0  0  0  0
 19 20  1  0  0  0  0
 20 21  2  0  0  0  0
 21 22  1  0  0  0  0
 21 27  1  0  0  0  0
 22 23  2  0  0  0  0
 22 25  1  0  0  0  0
 23 24  1  0  0  0  0
 25 26  2  0  0  0  0
 26 27  1  0  0  0  0
M  END
>  <CHROM.1>
161.46742434,62.43038929,146.94238993,-63.84957289,-84.35628225,-11.87128065
93.58346377,-14.32871757,-5.21127949,30.82727055,1.41530275,1.07079239,-1.78573540

>  <Name>
ligand

>  <RI>
0

>  <Rbt.Current_Directory>
/home/itssahil/PROJECTS/Mol_Feturizer/New_Systems/rnas/3GX6

>  <Rbt.Executable>
rbdock ($Id: //depot/dev/client3/rdock/2013.1/src/exe/rbdock.cxx#4 $)

>  <Rbt.Library>
libRbt.so (2013.1, Build901 2013/11/27)

>  <Rbt.Parameter_File>
/export/apps/rDock/src/rDock_2013.1_src/data/scripts/dock_solv.prm

>  <Rbt.Receptor>
prm/pocket_docking_2.prm

>  <SCORE>
-20.502

>  <SCORE.INTER>
-15.2152

>  <SCORE.INTER.CONST>
1

>  <SCORE.INTER.POLAR>
0

>  <SCORE.INTER.ROT>
7

>  <SCORE.INTER.SOLV>
19.0051

>  <SCORE.INTER.VDW>
-24.7452

>  <SCORE.INTER.norm>
-0.563527

>  <SCORE.INTRA>
-5.50228

>  <SCORE.INTRA.DIHEDRAL>
-3.09994

>  <SCORE.INTRA.DIHEDRAL.0>
15.0182

>  <SCORE.INTRA.POLAR>
0

>  <SCORE.INTRA.POLAR.0>
0

>  <SCORE.INTRA.REPUL>
0

>  <SCORE.INTRA.REPUL.0>
0

>  <SCORE.INTRA.SOLV>
-0.807849

>  <SCORE.INTRA.SOLV.lig_0>
-47.9129

>  <SCORE.INTRA.VDW>
-3.54839

>  <SCORE.INTRA.VDW.0>
2.00851

>  <SCORE.INTRA.norm>
-0.203788

>  <SCORE.RESTR>
0.215503

>  <SCORE.RESTR.CAVITY>
0.215503

>  <SCORE.RESTR.norm>
0.00798159

>  <SCORE.SYSTEM>
0

>  <SCORE.SYSTEM.CONST>
0

>  <SCORE.SYSTEM.DIHEDRAL>
0

>  <SCORE.SYSTEM.SOLV>
0

>  <SCORE.SYSTEM.norm>
0

>  <SCORE.heavy>
27

>  <SCORE.norm>
-0.759333

>  <RMSD>
1.740

$$$$
ligand
 OpenBabel11021811483D
libRbt.so/2013.1/901 2013/11/27
 27 29  0  0  0  0  0  0  0  0999 V2000
  -13.9180   -5.1618   27.5358 N   0  0  0  0  0  0  0  0  0  0  0  0
  -13.2943   -5.2565   28.8530 C   0  0  2  0  0  0  0  0  0  0  0  0
  -12.0147   -6.0880   28.8184 C   0  0  0  0  0  0  0  0  0  0  0  0
  -11.4527   -6.3480   27.7522 O   0  0  0  0  0  0  0  0  0  0  0  0
  -14.2801   -5.7964   29.8848 C   0  0  0  0  0  0  0  0  0  0  0  0
  -14.8399   -7.1640   29.5252 C   0  0  0  0  0  0  0  0  0  0  0  0
  -13.8284   -8.5460   30.1111 S   0  0  2  0  0  0  0  0  0  0  0  0
  -14.5194   -9.8988   29.1269 C   0  0  0  0  0  0  0  0  0  0  0  0
  -14.5824   -8.8633   31.7295 C   0  0  0  0  0  0  0  0  0  0  0  0
  -13.6976   -8.2794   32.8215 C   0  0  1  0  0  0  0  0  0  0  0  0
  -13.2242   -7.0274   32.3855 O   0  0  0  0  0  0  0  0  0  0  0  0
  -14.3869   -7.9875   34.1412 C   0  0  1  0  0  0  0  0  0  0  0  0
  -14.2067   -9.0508   35.0498 O   0  0  0  0  0  0  0  0  0  0  0  0
  -13.6651   -6.7513   34.6378 C   0  0  1  0  0  0  0  0  0  0  0  0
  -12.8058   -7.1285   35.6852 O   0  0  0  0  0  0  0  0  0  0  0  0
  -12.8421   -6.2221   33.4711 C   0  0  2  0  0  0  0  0  0  0  0  0
  -11.5206   -6.5209   29.8597 O   0  0  0  0  0  0  0  0  0  0  0  0
  -16.7905   -2.9201   32.3389 N   0  0  0  0  0  0  0  0  0  0  0  0
  -16.8526   -4.2847   32.5412 C   0  0  0  0  0  0  0  0  0  0  0  0
  -15.7093   -5.0057   32.8299 N   0  0  0  0  0  0  0  0  0  0  0  0
  -14.5105   -4.3815   32.9134 C   0  0  0  0  0  0  0  0  0  0  0  0
  -14.4298   -3.0078   32.7214 C   0  0  0  0  0  0  0  0  0  0  0  0
  -15.5749   -2.2771   32.4282 C   0  0  0  0  0  0  0  0  0  0  0  0
  -15.4960   -0.9628   32.2349 N   0  0  0  0  0  0  0  0  0  0  0  0
  -13.1373   -2.6444   32.8661 N   0  0  0  0  0  0  0  0  0  0  0  0
  -12.4079   -3.7463   33.1602 C   0  0  0  0  0  0  0  0  0  0  0  0
  -13.2423   -4.8323   33.1942 N   0  0  0  0  0  0  0  0  0  0  0  0
  2  1  1  6  0  0  0
  2  3  1  0  0  0  0
  2  5  1  0  0  0  0
  3  4  1  0  0  0  0
  3 17  1  0  0  0  0
  5  6  1  0  0  0  0
  7  6  1  6  0  0  0
  7  8  1  0  0  0  0
  7  9  1  0  0  0  0
 10  9  1  6  0  0  0
 10 11  1  0  0  0  0
 10 12  1  0  0  0  0
 11 16  1  0  0  0  0
 12 13  1  1  0  0  0
 12 14  1  0  0  0  0
 14 15  1  1  0  0  0
 14 16  1  0  0  0  0
 16 27  1  6  0  0  0
 18 19  2  0  0  0  0
 18 23  1  0  0  0  0
 19 20  1  0  0  0  0
 20 21  2  0  0  0  0
 21 22  1  0  0  0  0
 21 27  1  0  0  0  0
 22 23  2  0  0  0  0
 22 25  1  0  0  0  0
 23 24  1  0  0  0  0
 25 26  2  0  0  0  0
 26 27  1  0  0  0  0
M  END
>  <CHROM.1>
15.87013756,58.08494129,87.80189133,-164.77030379,-102.54686488,40.97698472
56.96949248,-13.92741446,-6.00051261,31.70251972,-0.00372043,1.32011267,-0.90724253

>  <Name>
ligand

>  <RI>
0

>  <Rbt.Current_Directory>
/home/itssahil/PROJECTS/Mol_Feturizer/New_Systems/rnas/3GX6

>  <Rbt.Executable>
rbdock ($Id: //depot/dev/client3/rdock/2013.1/src/exe/rbdock.cxx#4 $)

>  <Rbt.Library>
libRbt.so (2013.1, Build901 2013/11/27)

>  <Rbt.Parameter_File>
/export/apps/rDock/src/rDock_2013.1_src/data/scripts/dock_solv.prm

>  <Rbt.Receptor>
prm/pocket_docking_4.prm

>  <SCORE>
-22.1913

>  <SCORE.INTER>
-13.1904

>  <SCORE.INTER.CONST>
1

>  <SCORE.INTER.POLAR>
0

>  <SCORE.INTER.ROT>
7

>  <SCORE.INTER.SOLV>
17.7232

>  <SCORE.INTER.VDW>
-22.968

>  <SCORE.INTER.norm>
-0.488532

>  <SCORE.INTRA>
-9.00089

>  <SCORE.INTRA.DIHEDRAL>
-4.10932

>  <SCORE.INTRA.DIHEDRAL.0>
15.0182

>  <SCORE.INTRA.POLAR>
0

>  <SCORE.INTRA.POLAR.0>
0

>  <SCORE.INTRA.REPUL>
0

>  <SCORE.INTRA.REPUL.0>
0

>  <SCORE.INTRA.SOLV>
-0.45619

>  <SCORE.INTRA.SOLV.lig_0>
-47.9129

>  <SCORE.INTRA.VDW>
-6.71814

>  <SCORE.INTRA.VDW.0>
2.00851

>  <SCORE.INTRA.norm>
-0.333366

>  <SCORE.RESTR>
0

>  <SCORE.RESTR.CAVITY>
0

>  <SCORE.RESTR.norm>
0

>  <SCORE.SYSTEM>
0

>  <SCORE.SYSTEM.CONST>
0

>  <SCORE.SYSTEM.DIHEDRAL>
0

>  <SCORE.SYSTEM.SOLV>
0

>  <SCORE.SYSTEM.norm>
0

>  <SCORE.heavy>
27

>  <SCORE.norm>
-0.821898

>  <RMSD>
1.752

$$$$
ligand
 OpenBabel11021811483D
libRbt.so/2013.1/901 2013/11/27
 27 29  0  0  0  0  0  0  0  0999 V2000
  -16.4959   -4.7534   28.7451 N   0  0  0  0  0  0  0  0  0  0  0  0
  -15.4459   -4.6057   27.7408 C   0  0  2  0  0  0  0  0  0  0  0  0
  -15.5777   -5.6371   26.6234 C   0  0  0  0  0  0  0  0  0  0  0  0
  -14.7964   -5.6462   25.6695 O   0  0  0  0  0  0  0  0  0  0  0  0
  -14.0641   -4.6586   28.3857 C   0  0  0  0  0  0  0  0  0  0  0  0
  -13.8468   -5.8953   29.2438 C   0  0  0  0  0  0  0  0  0  0  0  0
  -12.1356   -6.1143   29.7918 S   0  0  2  0  0  0  0  0  0  0  0  0
  -11.3603   -6.6418   28.2436 C   0  0  0  0  0  0  0  0  0  0  0  0
  -12.2577   -7.6893   30.6823 C   0  0  0  0  0  0  0  0  0  0  0  0
  -12.8643   -7.4460   32.0567 C   0  0  1  0  0  0  0  0  0  0  0  0
  -12.5660   -6.1263   32.4451 O   0  0  0  0  0  0  0  0  0  0  0  0
  -14.3771   -7.5329   32.1331 C   0  0  1  0  0  0  0  0  0  0  0  0
  -14.7873   -8.8113   32.5645 O   0  0  0  0  0  0  0  0  0  0  0  0
  -14.7268   -6.4942   33.1794 C   0  0  1  0  0  0  0  0  0  0  0  0
  -15.0779   -7.1599   34.3673 O   0  0  0  0  0  0  0  0  0  0  0  0
  -13.4719   -5.6643   33.4141 C   0  0  2  0  0  0  0  0  0  0  0  0
  -16.4745   -6.4801   26.6516 O   0  0  0  0  0  0  0  0  0  0  0  0
  -17.0141   -2.1817   31.6535 N   0  0  0  0  0  0  0  0  0  0  0  0
  -17.1443   -3.5528   31.7534 C   0  0  0  0  0  0  0  0  0  0  0  0
  -16.1057   -4.3244   32.2394 N   0  0  0  0  0  0  0  0  0  0  0  0
  -14.9430   -3.7439   32.6201 C   0  0  0  0  0  0  0  0  0  0  0  0
  -14.7968   -2.3648   32.5348 C   0  0  0  0  0  0  0  0  0  0  0  0
  -15.8360   -1.5833   32.0446 C   0  0  0  0  0  0  0  0  0  0  0  0
  -15.6923   -0.2633   31.9540 N   0  0  0  0  0  0  0  0  0  0  0  0
  -13.5610   -2.0509   32.9796 N   0  0  0  0  0  0  0  0  0  0  0  0
  -12.9343   -3.1899   33.3575 C   0  0  0  0  0  0  0  0  0  0  0  0
  -13.7758   -4.2493   33.1423 N   0  0  0  0  0  0  0  0  0  0  0  0
  2  1  1  1  0  0  0
  2  3  1  0  0  0  0
  2  5  1  0  0  0  0
  3  4  1  0  0  0  0
  3 17  1  0  0  0  0
  5  6  1  0  0  0  0
  7  6  1  6  0  0  0
  7  8  1  0  0  0  0
  7  9  1  0  0  0  0
 10  9  1  6  0  0  0
 10 11  1  0  0  0  0
 10 12  1  0  0  0  0
 11 16  1  0  0  0  0
 12 13  1  1  0  0  0
 12 14  1  0  0  0  0
 14 15  1  1  0  0  0
 14 16  1  0  0  0  0
 16 27  1  6  0  0  0
 18 19  2  0  0  0  0
 18 23  1  0  0  0  0
 19 20  1  0  0  0  0
 20 21  2  0  0  0  0
 21 22  1  0  0  0  0
 21 27  1  0  0  0  0
 22 23  2  0  0  0  0
 22 25  1  0  0  0  0
 23 24  1  0  0  0  0
 25 26  2  0  0  0  0
 26 27  1  0  0  0  0
M  END
>  <CHROM.1>
178.31495221,53.60862220,170.43710733,-73.35271723,-78.43076210,-27.09171467
106.36682513,-14.39337942,-5.13181309,30.86776485,1.38312218,1.03677083,-1.86430904

>  <Name>
ligand

>  <RI>
0

>  <Rbt.Current_Directory>
/home/itssahil/PROJECTS/Mol_Feturizer/New_Systems/rnas/3GX6

>  <Rbt.Executable>
rbdock ($Id: //depot/dev/client3/rdock/2013.1/src/exe/rbdock.cxx#4 $)

>  <Rbt.Library>
libRbt.so (2013.1, Build901 2013/11/27)

>  <Rbt.Parameter_File>
/export/apps/rDock/src/rDock_2013.1_src/data/scripts/dock_solv.prm

>  <Rbt.Receptor>
prm/pocket_docking_3.prm

>  <SCORE>
-22.9463

>  <SCORE.INTER>
-15.0595

>  <SCORE.INTER.CONST>
1

>  <SCORE.INTER.POLAR>
0

>  <SCORE.INTER.ROT>
7

>  <SCORE.INTER.SOLV>
18.1042

>  <SCORE.INTER.VDW>
-24.341

>  <SCORE.INTER.norm>
-0.557758

>  <SCORE.INTRA>
-7.88691

>  <SCORE.INTRA.DIHEDRAL>
-7.9208

>  <SCORE.INTRA.DIHEDRAL.0>
15.0182

>  <SCORE.INTRA.POLAR>
0

>  <SCORE.INTRA.POLAR.0>
0

>  <SCORE.INTRA.REPUL>
0

>  <SCORE.INTRA.REPUL.0>
0

>  <SCORE.INTRA.SOLV>
-0.117696

>  <SCORE.INTRA.SOLV.lig_0>
-47.9129

>  <SCORE.INTRA.VDW>
-3.86766

>  <SCORE.INTRA.VDW.0>
2.00851

>  <SCORE.INTRA.norm>
-0.292108

>  <SCORE.RESTR>
0.000112176

>  <SCORE.RESTR.CAVITY>
0.000112176

>  <SCORE.RESTR.norm>
4.15466e-06

>  <SCORE.SYSTEM>
0

>  <SCORE.SYSTEM.CONST>
0

>  <SCORE.SYSTEM.DIHEDRAL>
0

>  <SCORE.SYSTEM.SOLV>
0

>  <SCORE.SYSTEM.norm>
0

>  <SCORE.heavy>
27

>  <SCORE.norm>
-0.849862

>  <RMSD>
1.817

$$$$
ligand
 OpenBabel11021811483D
libRbt.so/2013.1/901 2013/11/27
 27 29  0  0  0  0  0  0  0  0999 V2000
  -13.6638   -7.3253   25.4169 N   0  0  0  0  0  0  0  0  0  0  0  0
  -14.4867   -6.7854   26.4959 C   0  0  2  0  0  0  0  0  0  0  0  0
  -13.7809   -5.6539   27.2386 C   0  0  0  0  0  0  0  0  0  0  0  0
  -12.5513   -5.6167   27.3224 O   0  0  0  0  0  0  0  0  0  0  0  0
  -14.9236   -7.8905   27.4528 C   0  0  0  0  0  0  0  0  0  0  0  0
  -13.7623   -8.6995   28.0093 C   0  0  0  0  0  0  0  0  0  0  0  0
  -12.7795   -7.8144   29.2451 S   0  0  2  0  0  0  0  0  0  0  0  0
  -11.5118   -9.0550   29.6061 C   0  0  0  0  0  0  0  0  0  0  0  0
  -13.8462   -7.9621   30.7041 C   0  0  0  0  0  0  0  0  0  0  0  0
  -13.1857   -7.2646   31.8846 C   0  0  1  0  0  0  0  0  0  0  0  0
  -12.9132   -5.9335   31.5164 O   0  0  0  0  0  0  0  0  0  0  0  0
  -14.0328   -7.1474   33.1378 C   0  0  1  0  0  0  0  0  0  0  0  0
  -13.7427   -8.1904   34.0415 O   0  0  0  0  0  0  0  0  0  0  0  0
  -13.5982   -5.8182   33.7212 C   0  0  1  0  0  0  0  0  0  0  0  0
  -12.7820   -6.0684   34.8388 O   0  0  0  0  0  0  0  0  0  0  0  0
  -12.7849   -5.1094   32.6466 C   0  0  2  0  0  0  0  0  0  0  0  0
  -14.4302   -4.7557   27.7747 O   0  0  0  0  0  0  0  0  0  0  0  0
  -17.2596   -2.3456   32.3088 N   0  0  0  0  0  0  0  0  0  0  0  0
  -17.1028   -3.6746   32.6494 C   0  0  0  0  0  0  0  0  0  0  0  0
  -15.8455   -4.2475   32.6873 N   0  0  0  0  0  0  0  0  0  0  0  0
  -14.7497   -3.5113   32.3854 C   0  0  0  0  0  0  0  0  0  0  0  0
  -14.8872   -2.1703   32.0488 C   0  0  0  0  0  0  0  0  0  0  0  0
  -16.1485   -1.5887   32.0061 C   0  0  0  0  0  0  0  0  0  0  0  0
  -16.2808   -0.3067   31.6744 N   0  0  0  0  0  0  0  0  0  0  0  0
  -13.6544   -1.6759   31.8052 N   0  0  0  0  0  0  0  0  0  0  0  0
  -12.7467   -2.6619   31.9960 C   0  0  0  0  0  0  0  0  0  0  0  0
  -13.4072   -3.8067   32.3564 N   0  0  0  0  0  0  0  0  0  0  0  0
  2  1  1  6  0  0  0
  2  3  1  0  0  0  0
  2  5  1  0  0  0  0
  3  4  1  0  0  0  0
  3 17  1  0  0  0  0
  5  6  1  0  0  0  0
  7  6  1  6  0  0  0
  7  8  1  0  0  0  0
  7  9  1  0  0  0  0
 10  9  1  6  0  0  0
 10 11  1  0  0  0  0
 10 12  1  0  0  0  0
 11 16  1  0  0  0  0
 12 13  1  1  0  0  0
 12 14  1  0  0  0  0
 14 15  1  1  0  0  0
 14 16  1  0  0  0  0
 16 27  1  6  0  0  0
 18 19  2  0  0  0  0
 18 23  1  0  0  0  0
 19 20  1  0  0  0  0
 20 21  2  0  0  0  0
 21 22  1  0  0  0  0
 21 27  1  0  0  0  0
 22 23  2  0  0  0  0
 22 25  1  0  0  0  0
 23 24  1  0  0  0  0
 25 26  2  0  0  0  0
 26 27  1  0  0  0  0
M  END
>  <CHROM.1>
-29.25218966,54.51010571,73.27483315,-178.31525939,-179.96349850,55.63064464
79.45291578,-13.99846534,-5.49650632,30.75357792,0.91401811,1.14197559,-1.74085393

>  <Name>
ligand

>  <RI>
0

>  <Rbt.Current_Directory>
/home/itssahil/PROJECTS/Mol_Feturizer/New_Systems/rnas/3GX6

>  <Rbt.Executable>
rbdock ($Id: //depot/dev/client3/rdock/2013.1/src/exe/rbdock.cxx#4 $)

>  <Rbt.Library>
libRbt.so (2013.1, Build901 2013/11/27)

>  <Rbt.Parameter_File>
/export/apps/rDock/src/rDock_2013.1_src/data/scripts/dock_solv.prm

>  <Rbt.Receptor>
prm/pocket_docking_4.prm

>  <SCORE>
-22.5033

>  <SCORE.INTER>
-12.2347

>  <SCORE.INTER.CONST>
1

>  <SCORE.INTER.POLAR>
0

>  <SCORE.INTER.ROT>
7

>  <SCORE.INTER.SOLV>
16.5352

>  <SCORE.INTER.VDW>
-21.9349

>  <SCORE.INTER.norm>
-0.453138

>  <SCORE.INTRA>
-10.2685

>  <SCORE.INTRA.DIHEDRAL>
-10.5276

>  <SCORE.INTRA.DIHEDRAL.0>
15.0182

>  <SCORE.INTRA.POLAR>
0

>  <SCORE.INTRA.POLAR.0>
0

>  <SCORE.INTRA.REPUL>
0

>  <SCORE.INTRA.REPUL.0>
0

>  <SCORE.INTRA.SOLV>
-0.47532

>  <SCORE.INTRA.SOLV.lig_0>
-47.9129

>  <SCORE.INTRA.VDW>
-4.76708

>  <SCORE.INTRA.VDW.0>
2.00851

>  <SCORE.INTRA.norm>
-0.380316

>  <SCORE.RESTR>
0

>  <SCORE.RESTR.CAVITY>
0

>  <SCORE.RESTR.norm>
0

>  <SCORE.SYSTEM>
0

>  <SCORE.SYSTEM.CONST>
0

>  <SCORE.SYSTEM.DIHEDRAL>
0

>  <SCORE.SYSTEM.SOLV>
0

>  <SCORE.SYSTEM.norm>
0

>  <SCORE.heavy>
27

>  <SCORE.norm>
-0.833454

>  <RMSD>
1.837

$$$$
ligand
 OpenBabel11021811483D
libRbt.so/2013.1/901 2013/11/27
 27 29  0  0  0  0  0  0  0  0999 V2000
  -14.5597   -4.6493   26.6582 N   0  0  0  0  0  0  0  0  0  0  0  0
  -14.9374   -5.2676   27.9263 C   0  0  2  0  0  0  0  0  0  0  0  0
  -14.9016   -4.2684   29.0797 C   0  0  0  0  0  0  0  0  0  0  0  0
  -15.8543   -4.1554   29.8542 O   0  0  0  0  0  0  0  0  0  0  0  0
  -14.0666   -6.4857   28.2190 C   0  0  0  0  0  0  0  0  0  0  0  0
  -12.6102   -6.1358   28.4824 C   0  0  0  0  0  0  0  0  0  0  0  0
  -11.6888   -7.4361   29.3406 S   0  0  2  0  0  0  0  0  0  0  0  0
  -11.8632   -8.7963   28.1590 C   0  0  0  0  0  0  0  0  0  0  0  0
  -12.8827   -7.9196   30.6170 C   0  0  0  0  0  0  0  0  0  0  0  0
  -12.5479   -7.2040   31.9178 C   0  0  1  0  0  0  0  0  0  0  0  0
  -12.4043   -5.8308   31.6435 O   0  0  0  0  0  0  0  0  0  0  0  0
  -13.6126   -7.2677   32.9969 C   0  0  1  0  0  0  0  0  0  0  0  0
  -13.3441   -8.3094   33.9088 O   0  0  0  0  0  0  0  0  0  0  0  0
  -13.4804   -5.9254   33.6873 C   0  0  1  0  0  0  0  0  0  0  0  0
  -12.8493   -6.1236   34.9283 O   0  0  0  0  0  0  0  0  0  0  0  0
  -12.5967   -5.0583   32.8008 C   0  0  2  0  0  0  0  0  0  0  0  0
  -13.9177   -3.5497   29.2555 O   0  0  0  0  0  0  0  0  0  0  0  0
  -17.3015   -2.7255   32.3543 N   0  0  0  0  0  0  0  0  0  0  0  0
  -17.0245   -4.0110   32.7760 C   0  0  0  0  0  0  0  0  0  0  0  0
  -15.7212   -4.4676   32.8316 N   0  0  0  0  0  0  0  0  0  0  0  0
  -14.6976   -3.6590   32.4678 C   0  0  0  0  0  0  0  0  0  0  0  0
  -14.9563   -2.3597   32.0490 C   0  0  0  0  0  0  0  0  0  0  0  0
  -16.2645   -1.8951   31.9881 C   0  0  0  0  0  0  0  0  0  0  0  0
  -16.5128   -0.6536   31.5779 N   0  0  0  0  0  0  0  0  0  0  0  0
  -13.7744   -1.7756   31.7566 N   0  0  0  0  0  0  0  0  0  0  0  0
  -12.7813   -2.6639   31.9961 C   0  0  0  0  0  0  0  0  0  0  0  0
  -13.3345   -3.8366   32.4379 N   0  0  0  0  0  0  0  0  0  0  0  0
  2  1  1  6  0  0  0
  2  3  1  0  0  0  0
  2  5  1  0  0  0  0
  3  4  1  0  0  0  0
  3 17  1  0  0  0  0
  5  6  1  0  0  0  0
  7  6  1  6  0  0  0
  7  8  1  0  0  0  0
  7  9  1  0  0  0  0
 10  9  1  6  0  0  0
 10 11  1  0  0  0  0
 10 12  1  0  0  0  0
 11 16  1  0  0  0  0
 12 13  1  1  0  0  0
 12 14  1  0  0  0  0
 14 15  1  1  0  0  0
 14 16  1  0  0  0  0
 16 27  1  6  0  0  0
 18 19  2  0  0  0  0
 18 23  1  0  0  0  0
 19 20  1  0  0  0  0
 20 21  2  0  0  0  0
 21 22  1  0  0  0  0
 21 27  1  0  0  0  0
 22 23  2  0  0  0  0
 22 25  1  0  0  0  0
 23 24  1  0  0  0  0
 25 26  2  0  0  0  0
 26 27  1  0  0  0  0
M  END
>  <CHROM.1>
130.29806453,66.93089451,161.17765006,59.87076476,-97.22290768,50.58522252
92.42485421,-13.94151450,-5.08840898,31.07470861,0.38829674,0.98850636,-1.58828788

>  <Name>
ligand

>  <RI>
0

>  <Rbt.Current_Directory>
/home/itssahil/PROJECTS/Mol_Feturizer/New_Systems/rnas/3GX6

>  <Rbt.Executable>
rbdock ($Id: //depot/dev/client3/rdock/2013.1/src/exe/rbdock.cxx#4 $)

>  <Rbt.Library>
libRbt.so (2013.1, Build901 2013/11/27)

>  <Rbt.Parameter_File>
/export/apps/rDock/src/rDock_2013.1_src/data/scripts/dock_solv.prm

>  <Rbt.Receptor>
prm/pocket_docking_4.prm

>  <SCORE>
-23.2219

>  <SCORE.INTER>
-13.3511

>  <SCORE.INTER.CONST>
1

>  <SCORE.INTER.POLAR>
0

>  <SCORE.INTER.ROT>
7

>  <SCORE.INTER.SOLV>
21.4027

>  <SCORE.INTER.VDW>
-24.3016

>  <SCORE.INTER.norm>
-0.494486

>  <SCORE.INTRA>
-9.88201

>  <SCORE.INTRA.DIHEDRAL>
-7.9156

>  <SCORE.INTRA.DIHEDRAL.0>
15.0182

>  <SCORE.INTRA.POLAR>
0

>  <SCORE.INTRA.POLAR.0>
0

>  <SCORE.INTRA.REPUL>
0

>  <SCORE.INTRA.REPUL.0>
0

>  <SCORE.INTRA.SOLV>
-1.02904

>  <SCORE.INTRA.SOLV.lig_0>
-47.9129

>  <SCORE.INTRA.VDW>
-5.40969

>  <SCORE.INTRA.VDW.0>
2.00851

>  <SCORE.INTRA.norm>
-0.366

>  <SCORE.RESTR>
0.0112663

>  <SCORE.RESTR.CAVITY>
0.0112663

>  <SCORE.RESTR.norm>
0.000417269

>  <SCORE.SYSTEM>
0

>  <SCORE.SYSTEM.CONST>
0

>  <SCORE.SYSTEM.DIHEDRAL>
0

>  <SCORE.SYSTEM.SOLV>
0

>  <SCORE.SYSTEM.norm>
0

>  <SCORE.heavy>
27

>  <SCORE.norm>
-0.86007

>  <RMSD>
1.877

$$$$
ligand
 OpenBabel11021811483D
libRbt.so/2013.1/901 2013/11/27
 27 29  0  0  0  0  0  0  0  0999 V2000
  -17.5147   -6.4853   30.2538 N   0  0  0  0  0  0  0  0  0  0  0  0
  -16.2138   -6.2487   29.6335 C   0  0  2  0  0  0  0  0  0  0  0  0
  -16.3204   -5.3276   28.4210 C   0  0  0  0  0  0  0  0  0  0  0  0
  -15.5429   -4.3828   28.2687 O   0  0  0  0  0  0  0  0  0  0  0  0
  -15.5350   -7.5666   29.2723 C   0  0  0  0  0  0  0  0  0  0  0  0
  -14.1894   -7.3833   28.5877 C   0  0  0  0  0  0  0  0  0  0  0  0
  -12.9861   -6.4588   29.5745 S   0  0  2  0  0  0  0  0  0  0  0  0
  -11.6306   -6.3102   28.3841 C   0  0  0  0  0  0  0  0  0  0  0  0
  -12.3589   -7.7646   30.6653 C   0  0  0  0  0  0  0  0  0  0  0  0
  -12.8292   -7.5019   32.0888 C   0  0  1  0  0  0  0  0  0  0  0  0
  -12.5166   -6.1698   32.4196 O   0  0  0  0  0  0  0  0  0  0  0  0
  -14.3250   -7.6105   32.3183 C   0  0  1  0  0  0  0  0  0  0  0  0
  -14.6676   -8.8857   32.8134 O   0  0  0  0  0  0  0  0  0  0  0  0
  -14.5863   -6.5555   33.3741 C   0  0  1  0  0  0  0  0  0  0  0  0
  -14.8052   -7.2015   34.6039 O   0  0  0  0  0  0  0  0  0  0  0  0
  -13.3289   -5.7016   33.4655 C   0  0  2  0  0  0  0  0  0  0  0  0
  -17.1925   -5.5090   27.5712 O   0  0  0  0  0  0  0  0  0  0  0  0
  -17.0085   -2.3384   31.7555 N   0  0  0  0  0  0  0  0  0  0  0  0
  -17.0920   -3.7130   31.8571 C   0  0  0  0  0  0  0  0  0  0  0  0
  -16.0218   -4.4498   32.3283 N   0  0  0  0  0  0  0  0  0  0  0  0
  -14.8736   -3.8310   32.6927 C   0  0  0  0  0  0  0  0  0  0  0  0
  -14.7742   -2.4479   32.6055 C   0  0  0  0  0  0  0  0  0  0  0  0
  -15.8454   -1.7013   32.1301 C   0  0  0  0  0  0  0  0  0  0  0  0
  -15.7466   -0.3773   32.0377 N   0  0  0  0  0  0  0  0  0  0  0  0
  -13.5433   -2.0933   33.0329 N   0  0  0  0  0  0  0  0  0  0  0  0
  -12.8742   -3.2108   33.4017 C   0  0  0  0  0  0  0  0  0  0  0  0
  -13.6831   -4.2975   33.1983 N   0  0  0  0  0  0  0  0  0  0  0  0
  2  1  1  6  0  0  0
  2  3  1  0  0  0  0
  2  5  1  0  0  0  0
  3  4  1  0  0  0  0
  3 17  1  0  0  0  0
  5  6  1  0  0  0  0
  7  6  1  6  0  0  0
  7  8  1  0  0  0  0
  7  9  1  0  0  0  0
 10  9  1  6  0  0  0
 10 11  1  0  0  0  0
 10 12  1  0  0  0  0
 11 16  1  0  0  0  0
 12 13  1  1  0  0  0
 12 14  1  0  0  0  0
 14 15  1  1  0  0  0
 14 16  1  0  0  0  0
 16 27  1  6  0  0  0
 18 19  2  0  0  0  0
 18 23  1  0  0  0  0
 19 20  1  0  0  0  0
 20 21  2  0  0  0  0
 21 22  1  0  0  0  0
 21 27  1  0  0  0  0
 22 23  2  0  0  0  0
 22 25  1  0  0  0  0
 23 24  1  0  0  0  0
 25 26  2  0  0  0  0
 26 27  1  0  0  0  0
M  END
>  <CHROM.1>
133.37376285,178.47039223,58.83454519,-174.43125496,-110.84680405,-50.68274275
101.20220887,-14.64579125,-5.37001314,31.23944752,1.13988149,0.94293700,-2.30171964

>  <Name>
ligand

>  <RI>
0

>  <Rbt.Current_Directory>
/home/itssahil/PROJECTS/Mol_Feturizer/New_Systems/rnas/3GX6

>  <Rbt.Executable>
rbdock ($Id: //depot/dev/client3/rdock/2013.1/src/exe/rbdock.cxx#4 $)

>  <Rbt.Library>
libRbt.so (2013.1, Build901 2013/11/27)

>  <Rbt.Parameter_File>
/export/apps/rDock/src/rDock_2013.1_src/data/scripts/dock_solv.prm

>  <Rbt.Receptor>
prm/pocket_docking_4.prm

>  <SCORE>
-20.2871

>  <SCORE.INTER>
-10.5396

>  <SCORE.INTER.CONST>
1

>  <SCORE.INTER.POLAR>
0

>  <SCORE.INTER.ROT>
7

>  <SCORE.INTER.SOLV>
15.348

>  <SCORE.INTER.VDW>
-20.4091

>  <SCORE.INTER.norm>
-0.390356

>  <SCORE.INTRA>
-9.74744

>  <SCORE.INTRA.DIHEDRAL>
-7.48625

>  <SCORE.INTRA.DIHEDRAL.0>
15.0182

>  <SCORE.INTRA.POLAR>
0

>  <SCORE.INTRA.POLAR.0>
0

>  <SCORE.INTRA.REPUL>
0

>  <SCORE.INTRA.REPUL.0>
0

>  <SCORE.INTRA.SOLV>
0.331685

>  <SCORE.INTRA.SOLV.lig_0>
-47.9129

>  <SCORE.INTRA.VDW>
-6.17016

>  <SCORE.INTRA.VDW.0>
2.00851

>  <SCORE.INTRA.norm>
-0.361016

>  <SCORE.RESTR>
0

>  <SCORE.RESTR.CAVITY>
0

>  <SCORE.RESTR.norm>
0

>  <SCORE.SYSTEM>
0

>  <SCORE.SYSTEM.CONST>
0

>  <SCORE.SYSTEM.DIHEDRAL>
0

>  <SCORE.SYSTEM.SOLV>
0

>  <SCORE.SYSTEM.norm>
0

>  <SCORE.heavy>
27

>  <SCORE.norm>
-0.751372

>  <RMSD>
1.984

$$$$
ligand
 OpenBabel11021811483D
libRbt.so/2013.1/901 2013/11/27
 27 29  0  0  0  0  0  0  0  0999 V2000
  -15.7396   -6.8306   27.7914 N   0  0  0  0  0  0  0  0  0  0  0  0
  -14.7682   -5.8523   28.2733 C   0  0  2  0  0  0  0  0  0  0  0  0
  -15.4066   -4.4867   28.5131 C   0  0  0  0  0  0  0  0  0  0  0  0
  -14.9956   -3.7390   29.4033 O   0  0  0  0  0  0  0  0  0  0  0  0
  -13.5797   -5.7508   27.3219 C   0  0  0  0  0  0  0  0  0  0  0  0
  -12.6798   -6.9765   27.3492 C   0  0  0  0  0  0  0  0  0  0  0  0
  -11.6618   -7.1041   28.8403 S   0  0  2  0  0  0  0  0  0  0  0  0
  -10.8021   -8.6641   28.5183 C   0  0  0  0  0  0  0  0  0  0  0  0
  -12.8992   -7.6258   30.0590 C   0  0  0  0  0  0  0  0  0  0  0  0
  -12.5537   -7.0291   31.4158 C   0  0  1  0  0  0  0  0  0  0  0  0
  -12.4259   -5.6352   31.2670 O   0  0  0  0  0  0  0  0  0  0  0  0
  -13.6036   -7.2022   32.4974 C   0  0  1  0  0  0  0  0  0  0  0  0
  -13.3140   -8.3203   33.3065 O   0  0  0  0  0  0  0  0  0  0  0  0
  -13.4743   -5.9275   33.3064 C   0  0  1  0  0  0  0  0  0  0  0  0
  -12.8252   -6.2323   34.5162 O   0  0  0  0  0  0  0  0  0  0  0  0
  -12.6100   -4.9740   32.4925 C   0  0  2  0  0  0  0  0  0  0  0  0
  -16.3520   -4.1071   27.8219 O   0  0  0  0  0  0  0  0  0  0  0  0
  -17.3360   -2.6447   32.3705 N   0  0  0  0  0  0  0  0  0  0  0  0
  -17.0414   -3.9586   32.6767 C   0  0  0  0  0  0  0  0  0  0  0  0
  -15.7350   -4.4093   32.6584 N   0  0  0  0  0  0  0  0  0  0  0  0
  -14.7258   -3.5665   32.3344 C   0  0  0  0  0  0  0  0  0  0  0  0
  -15.0021   -2.2389   32.0317 C   0  0  0  0  0  0  0  0  0  0  0  0
  -16.3135   -1.7798   32.0456 C   0  0  0  0  0  0  0  0  0  0  0  0
  -16.5789   -0.5105   31.7464 N   0  0  0  0  0  0  0  0  0  0  0  0
  -13.8315   -1.6245   31.7561 N   0  0  0  0  0  0  0  0  0  0  0  0
  -12.8280   -2.5227   31.8937 C   0  0  0  0  0  0  0  0  0  0  0  0
  -13.3633   -3.7316   32.2523 N   0  0  0  0  0  0  0  0  0  0  0  0
  2  1  1  6  0  0  0
  2  3  1  0  0  0  0
  2  5  1  0  0  0  0
  3  4  1  0  0  0  0
  3 17  1  0  0  0  0
  5  6  1  0  0  0  0
  7  6  1  6  0  0  0
  7  8  1  0  0  0  0
  7  9  1  0  0  0  0
 10  9  1  6  0  0  0
 10 11  1  0  0  0  0
 10 12  1  0  0  0  0
 11 16  1  0  0  0  0
 12 13  1  1  0  0  0
 12 14  1  0  0  0  0
 14 15  1  1  0  0  0
 14 16  1  0  0  0  0
 16 27  1  6  0  0  0
 18 19  2  0  0  0  0
 18 23  1  0  0  0  0
 19 20  1  0  0  0  0
 20 21  2  0  0  0  0
 21 22  1  0  0  0  0
 21 27  1  0  0  0  0
 22 23  2  0  0  0  0
 22 25  1  0  0  0  0
 23 24  1  0  0  0  0
 25 26  2  0  0  0  0
 26 27  1  0  0  0  0
M  END
>  <CHROM.1>
147.96291492,-70.82082115,-73.36225789,178.50587690,-146.39784928,54.33604399
93.46680182,-14.01256047,-5.11028124,30.78329399,0.64602255,0.89296593,-1.80148065

>  <Name>
ligand

>  <RI>
0

>  <Rbt.Current_Directory>
/home/itssahil/PROJECTS/Mol_Feturizer/New_Systems/rnas/3GX6

>  <Rbt.Executable>
rbdock ($Id: //depot/dev/client3/rdock/2013.1/src/exe/rbdock.cxx#4 $)

>  <Rbt.Library>
libRbt.so (2013.1, Build901 2013/11/27)

>  <Rbt.Parameter_File>
/export/apps/rDock/src/rDock_2013.1_src/data/scripts/dock_solv.prm

>  <Rbt.Receptor>
prm/pocket_docking_3.prm

>  <SCORE>
-24.1379

>  <SCORE.INTER>
-14.669

>  <SCORE.INTER.CONST>
1

>  <SCORE.INTER.POLAR>
0

>  <SCORE.INTER.ROT>
7

>  <SCORE.INTER.SOLV>
16.8417

>  <SCORE.INTER.VDW>
-23.6599

>  <SCORE.INTER.norm>
-0.543297

>  <SCORE.INTRA>
-9.46891

>  <SCORE.INTRA.DIHEDRAL>
-7.02687

>  <SCORE.INTRA.DIHEDRAL.0>
15.0182

>  <SCORE.INTRA.POLAR>
0

>  <SCORE.INTRA.POLAR.0>
0

>  <SCORE.INTRA.REPUL>
0

>  <SCORE.INTRA.REPUL.0>
0

>  <SCORE.INTRA.SOLV>
-0.0149362

>  <SCORE.INTRA.SOLV.lig_0>
-47.9129

>  <SCORE.INTRA.VDW>
-5.948

>  <SCORE.INTRA.VDW.0>
2.00851

>  <SCORE.INTRA.norm>
-0.3507

>  <SCORE.RESTR>
0

>  <SCORE.RESTR.CAVITY>
0

>  <SCORE.RESTR.norm>
0

>  <SCORE.SYSTEM>
0

>  <SCORE.SYSTEM.CONST>
0

>  <SCORE.SYSTEM.DIHEDRAL>
0

>  <SCORE.SYSTEM.SOLV>
0

>  <SCORE.SYSTEM.norm>
0

>  <SCORE.heavy>
27

>  <SCORE.norm>
-0.893997

>  <RMSD>
1.994

$$$$
ligand
 OpenBabel11021811483D
libRbt.so/2013.1/901 2013/11/27
 27 29  0  0  0  0  0  0  0  0999 V2000
  -16.6910   -9.3993   26.5473 N   0  0  0  0  0  0  0  0  0  0  0  0
  -15.9773   -8.4098   27.3500 C   0  0  2  0  0  0  0  0  0  0  0  0
  -15.8144   -7.0856   26.6085 C   0  0  0  0  0  0  0  0  0  0  0  0
  -15.0646   -6.9891   25.6344 O   0  0  0  0  0  0  0  0  0  0  0  0
  -14.6306   -8.9552   27.8158 C   0  0  0  0  0  0  0  0  0  0  0  0
  -14.7536  -10.0394   28.8753 C   0  0  0  0  0  0  0  0  0  0  0  0
  -14.9272   -9.4002   30.5598 S   0  0  2  0  0  0  0  0  0  0  0  0
  -16.4906   -8.5002   30.4097 C   0  0  0  0  0  0  0  0  0  0  0  0
  -13.7301   -8.0383   30.5368 C   0  0  0  0  0  0  0  0  0  0  0  0
  -13.3852   -7.6457   31.9662 C   0  0  1  0  0  0  0  0  0  0  0  0
  -12.9353   -6.3118   31.9627 O   0  0  0  0  0  0  0  0  0  0  0  0
  -14.5413   -7.6553   32.9486 C   0  0  1  0  0  0  0  0  0  0  0  0
  -14.5847   -8.8697   33.6640 O   0  0  0  0  0  0  0  0  0  0  0  0
  -14.2042   -6.5123   33.8846 C   0  0  1  0  0  0  0  0  0  0  0  0
  -13.7532   -7.0526   35.1021 O   0  0  0  0  0  0  0  0  0  0  0  0
  -13.0777   -5.7239   33.2304 C   0  0  2  0  0  0  0  0  0  0  0  0
  -16.4281   -6.0830   26.9746 O   0  0  0  0  0  0  0  0  0  0  0  0
  -16.8712   -2.4563   31.5851 N   0  0  0  0  0  0  0  0  0  0  0  0
  -16.8696   -3.8371   31.5679 C   0  0  0  0  0  0  0  0  0  0  0  0
  -15.7806   -4.5451   32.0403 N   0  0  0  0  0  0  0  0  0  0  0  0
  -14.6973   -3.8913   32.5228 C   0  0  0  0  0  0  0  0  0  0  0  0
  -14.6845   -2.5023   32.5560 C   0  0  0  0  0  0  0  0  0  0  0  0
  -15.7748   -1.7842   32.0802 C   0  0  0  0  0  0  0  0  0  0  0  0
  -15.7583   -0.4536   32.1033 N   0  0  0  0  0  0  0  0  0  0  0  0
  -13.5048   -2.1115   33.0844 N   0  0  0  0  0  0  0  0  0  0  0  0
  -12.7849   -3.2138   33.3995 C   0  0  0  0  0  0  0  0  0  0  0  0
  -13.5083   -4.3261   33.0590 N   0  0  0  0  0  0  0  0  0  0  0  0
  2  1  1  6  0  0  0
  2  3  1  0  0  0  0
  2  5  1  0  0  0  0
  3  4  1  0  0  0  0
  3 17  1  0  0  0  0
  5  6  1  0  0  0  0
  7  6  1  6  0  0  0
  7  8  1  0  0  0  0
  7  9  1  0  0  0  0
 10  9  1  6  0  0  0
 10 11  1  0  0  0  0
 10 12  1  0  0  0  0
 11 16  1  0  0  0  0
 12 13  1  1  0  0  0
 12 14  1  0  0  0  0
 14 15  1  1  0  0  0
 14 16  1  0  0  0  0
 16 27  1  6  0  0  0
 18 19  2  0  0  0  0
 18 23  1  0  0  0  0
 19 20  1  0  0  0  0
 20 21  2  0  0  0  0
 21 22  1  0  0  0  0
 21 27  1  0  0  0  0
 22 23  2  0  0  0  0
 22 25  1  0  0  0  0
 23 24  1  0  0  0  0
 25 26  2  0  0  0  0
 26 27  1  0  0  0  0
M  END
>  <CHROM.1>
-69.62317451,-70.87523788,-84.05818589,62.47872999,-161.89489552,-156.03554909
64.66722150,-14.86000429,-6.23886315,30.98261783,1.91808293,1.18891051,-2.70808278

>  <Name>
ligand

>  <RI>
0

>  <Rbt.Current_Directory>
/home/itssahil/PROJECTS/Mol_Feturizer/New_Systems/rnas/3GX6

>  <Rbt.Executable>
rbdock ($Id: //depot/dev/client3/rdock/2013.1/src/exe/rbdock.cxx#4 $)

>  <Rbt.Library>
libRbt.so (2013.1, Build901 2013/11/27)

>  <Rbt.Parameter_File>
/export/apps/rDock/src/rDock_2013.1_src/data/scripts/dock_solv.prm

>  <Rbt.Receptor>
prm/pocket_docking_4.prm

>  <SCORE>
-17.5382

>  <SCORE.INTER>
-11.7629

>  <SCORE.INTER.CONST>
1

>  <SCORE.INTER.POLAR>
0

>  <SCORE.INTER.ROT>
7

>  <SCORE.INTER.SOLV>
18.4622

>  <SCORE.INTER.VDW>
-22.2627

>  <SCORE.INTER.norm>
-0.435662

>  <SCORE.INTRA>
-5.77538

>  <SCORE.INTRA.DIHEDRAL>
-5.5079

>  <SCORE.INTRA.DIHEDRAL.0>
15.0182

>  <SCORE.INTRA.POLAR>
0

>  <SCORE.INTRA.POLAR.0>
0

>  <SCORE.INTRA.REPUL>
0

>  <SCORE.INTRA.REPUL.0>
0

>  <SCORE.INTRA.SOLV>
-0.0962731

>  <SCORE.INTRA.SOLV.lig_0>
-47.9129

>  <SCORE.INTRA.VDW>
-2.9733

>  <SCORE.INTRA.VDW.0>
2.00851

>  <SCORE.INTRA.norm>
-0.213903

>  <SCORE.RESTR>
0

>  <SCORE.RESTR.CAVITY>
0

>  <SCORE.RESTR.norm>
0

>  <SCORE.SYSTEM>
0

>  <SCORE.SYSTEM.CONST>
0

>  <SCORE.SYSTEM.DIHEDRAL>
0

>  <SCORE.SYSTEM.SOLV>
0

>  <SCORE.SYSTEM.norm>
0

>  <SCORE.heavy>
27

>  <SCORE.norm>
-0.649565

>  <RMSD>
1.997

$$$$
ligand
 OpenBabel11021811483D
libRbt.so/2013.1/901 2013/11/27
 27 29  0  0  0  0  0  0  0  0999 V2000
   -9.8839   -7.3181   26.5067 N   0  0  0  0  0  0  0  0  0  0  0  0
  -11.2237   -7.7621   26.8818 C   0  0  2  0  0  0  0  0  0  0  0  0
  -12.0930   -6.6039   27.3644 C   0  0  0  0  0  0  0  0  0  0  0  0
  -13.3023   -6.5728   27.1256 O   0  0  0  0  0  0  0  0  0  0  0  0
  -11.1567   -8.8772   27.9211 C   0  0  0  0  0  0  0  0  0  0  0  0
  -12.5252   -9.3773   28.3572 C   0  0  0  0  0  0  0  0  0  0  0  0
  -12.8367   -9.2029   30.1317 S   0  0  2  0  0  0  0  0  0  0  0  0
  -14.6401   -9.3554   30.1648 C   0  0  0  0  0  0  0  0  0  0  0  0
  -12.6278   -7.4142   30.3443 C   0  0  0  0  0  0  0  0  0  0  0  0
  -12.6208   -7.0801   31.8291 C   0  0  1  0  0  0  0  0  0  0  0  0
  -12.4591   -5.6887   31.9691 O   0  0  0  0  0  0  0  0  0  0  0  0
  -13.9017   -7.3922   32.5799 C   0  0  1  0  0  0  0  0  0  0  0  0
  -13.8182   -8.6464   33.2193 O   0  0  0  0  0  0  0  0  0  0  0  0
  -13.9709   -6.2858   33.6128 C   0  0  1  0  0  0  0  0  0  0  0  0
  -13.6347   -6.8262   34.8669 O   0  0  0  0  0  0  0  0  0  0  0  0
  -12.9340   -5.2443   33.2141 C   0  0  2  0  0  0  0  0  0  0  0  0
  -11.5990   -5.6723   27.9997 O   0  0  0  0  0  0  0  0  0  0  0  0
  -17.3285   -2.7291   31.7523 N   0  0  0  0  0  0  0  0  0  0  0  0
  -17.0950   -4.0899   31.7803 C   0  0  0  0  0  0  0  0  0  0  0  0
  -15.8724   -4.5854   32.1925 N   0  0  0  0  0  0  0  0  0  0  0  0
  -14.8845   -3.7397   32.5705 C   0  0  0  0  0  0  0  0  0  0  0  0
  -15.1040   -2.3678   32.5570 C   0  0  0  0  0  0  0  0  0  0  0  0
  -16.3299   -1.8628   32.1412 C   0  0  0  0  0  0  0  0  0  0  0  0
  -16.5368   -0.5483   32.1192 N   0  0  0  0  0  0  0  0  0  0  0  0
  -13.9738   -1.7633   32.9821 N   0  0  0  0  0  0  0  0  0  0  0  0
  -13.0582   -2.7155   33.2782 C   0  0  0  0  0  0  0  0  0  0  0  0
  -13.6051   -3.9466   33.0297 N   0  0  0  0  0  0  0  0  0  0  0  0
  2  1  1  1  0  0  0
  2  3  1  0  0  0  0
  2  5  1  0  0  0  0
  3  4  1  0  0  0  0
  3 17  1  0  0  0  0
  5  6  1  0  0  0  0
  7  6  1  6  0  0  0
  7  8  1  0  0  0  0
  7  9  1  0  0  0  0
 10  9  1  6  0  0  0
 10 11  1  0  0  0  0
 10 12  1  0  0  0  0
 11 16  1  0  0  0  0
 12 13  1  1  0  0  0
 12 14  1  0  0  0  0
 14 15  1  1  0  0  0
 14 16  1  0  0  0  0
 16 27  1  6  0  0  0
 18 19  2  0  0  0  0
 18 23  1  0  0  0  0
 19 20  1  0  0  0  0
 20 21  2  0  0  0  0
 21 22  1  0  0  0  0
 21 27  1  0  0  0  0
 22 23  2  0  0  0  0
 22 25  1  0  0  0  0
 23 24  1  0  0  0  0
 25 26  2  0  0  0  0
 26 27  1  0  0  0  0
M  END
>  <CHROM.1>
144.85119323,179.70728308,-120.76973802,162.13720034,-170.58075421,-179.94186482
80.39765610,-13.58896609,-5.94101927,30.98498132,-0.08813832,1.11321169,-0.77662310

>  <Name>
ligand

>  <RI>
0

>  <Rbt.Current_Directory>
/home/itssahil/PROJECTS/Mol_Feturizer/New_Systems/rnas/3GX6

>  <Rbt.Executable>
rbdock ($Id: //depot/dev/client3/rdock/2013.1/src/exe/rbdock.cxx#4 $)

>  <Rbt.Library>
libRbt.so (2013.1, Build901 2013/11/27)

>  <Rbt.Parameter_File>
/export/apps/rDock/src/rDock_2013.1_src/data/scripts/dock_solv.prm

>  <Rbt.Receptor>
prm/pocket_docking_4.prm

>  <SCORE>
-20.0519

>  <SCORE.INTER>
-12.3139

>  <SCORE.INTER.CONST>
1

>  <SCORE.INTER.POLAR>
0

>  <SCORE.INTER.ROT>
7

>  <SCORE.INTER.SOLV>
20.1037

>  <SCORE.INTER.VDW>
-23.1772

>  <SCORE.INTER.norm>
-0.456071

>  <SCORE.INTRA>
-7.75407

>  <SCORE.INTRA.DIHEDRAL>
-5.15449

>  <SCORE.INTRA.DIHEDRAL.0>
15.0182

>  <SCORE.INTRA.POLAR>
0

>  <SCORE.INTRA.POLAR.0>
0

>  <SCORE.INTRA.REPUL>
0

>  <SCORE.INTRA.REPUL.0>
0

>  <SCORE.INTRA.SOLV>
-1.46804

>  <SCORE.INTRA.SOLV.lig_0>
-47.9129

>  <SCORE.INTRA.VDW>
-4.44281

>  <SCORE.INTRA.VDW.0>
2.00851

>  <SCORE.INTRA.norm>
-0.287188

>  <SCORE.RESTR>
0.0160823

>  <SCORE.RESTR.CAVITY>
0.0160823

>  <SCORE.RESTR.norm>
0.00059564

>  <SCORE.SYSTEM>
0

>  <SCORE.SYSTEM.CONST>
0

>  <SCORE.SYSTEM.DIHEDRAL>
0

>  <SCORE.SYSTEM.SOLV>
0

>  <SCORE.SYSTEM.norm>
0

>  <SCORE.heavy>
27

>  <SCORE.norm>
-0.742664

>  <RMSD>
2.045

$$$$
ligand
 OpenBabel11021811483D
libRbt.so/2013.1/901 2013/11/27
 27 29  0  0  0  0  0  0  0  0999 V2000
  -15.8131   -7.4586   26.6545 N   0  0  0  0  0  0  0  0  0  0  0  0
  -14.6468   -7.7381   27.4879 C   0  0  2  0  0  0  0  0  0  0  0  0
  -14.6249   -9.1865   27.9691 C   0  0  0  0  0  0  0  0  0  0  0  0
  -15.0845   -9.4990   29.0698 O   0  0  0  0  0  0  0  0  0  0  0  0
  -14.5674   -6.7624   28.6582 C   0  0  0  0  0  0  0  0  0  0  0  0
  -13.1868   -6.1509   28.8401 C   0  0  0  0  0  0  0  0  0  0  0  0
  -12.0256   -7.2169   29.7297 S   0  0  2  0  0  0  0  0  0  0  0  0
  -11.7815   -8.5287   28.5066 C   0  0  0  0  0  0  0  0  0  0  0  0
  -13.1384   -8.0319   30.9070 C   0  0  0  0  0  0  0  0  0  0  0  0
  -12.8676   -7.5012   32.3074 C   0  0  1  0  0  0  0  0  0  0  0  0
  -12.6146   -6.1194   32.2160 O   0  0  0  0  0  0  0  0  0  0  0  0
  -14.0198   -7.6135   33.2881 C   0  0  1  0  0  0  0  0  0  0  0  0
  -13.8946   -8.7723   34.0820 O   0  0  0  0  0  0  0  0  0  0  0  0
  -13.8600   -6.3753   34.1466 C   0  0  1  0  0  0  0  0  0  0  0  0
  -13.3477   -6.7641   35.3973 O   0  0  0  0  0  0  0  0  0  0  0  0
  -12.8526   -5.4767   33.4421 C   0  0  2  0  0  0  0  0  0  0  0  0
  -14.1407  -10.0731   27.2655 O   0  0  0  0  0  0  0  0  0  0  0  0
  -17.0829   -2.9064   31.6328 N   0  0  0  0  0  0  0  0  0  0  0  0
  -16.8853   -4.2707   31.7142 C   0  0  0  0  0  0  0  0  0  0  0  0
  -15.7036   -4.7815   32.2173 N   0  0  0  0  0  0  0  0  0  0  0  0
  -14.7209   -3.9478   32.6333 C   0  0  0  0  0  0  0  0  0  0  0  0
  -14.9052   -2.5722   32.5670 C   0  0  0  0  0  0  0  0  0  0  0  0
  -16.0896   -2.0519   32.0598 C   0  0  0  0  0  0  0  0  0  0  0  0
  -16.2622   -0.7342   31.9876 N   0  0  0  0  0  0  0  0  0  0  0  0
  -13.7894   -1.9812   33.0459 N   0  0  0  0  0  0  0  0  0  0  0  0
  -12.9181   -2.9449   33.4266 C   0  0  0  0  0  0  0  0  0  0  0  0
  -13.4785   -4.1701   33.1787 N   0  0  0  0  0  0  0  0  0  0  0  0
  2  1  1  1  0  0  0
  2  3  1  0  0  0  0
  2  5  1  0  0  0  0
  3  4  1  0  0  0  0
  3 17  1  0  0  0  0
  5  6  1  0  0  0  0
  7  6  1  6  0  0  0
  7  8  1  0  0  0  0
  7  9  1  0  0  0  0
 10  9  1  6  0  0  0
 10 11  1  0  0  0  0
 10 12  1  0  0  0  0
 11 16  1  0  0  0  0
 12 13  1  1  0  0  0
 12 14  1  0  0  0  0
 14 15  1  1  0  0  0
 14 16  1  0  0  0  0
 16 27  1  6  0  0  0
 18 19  2  0  0  0  0
 18 23  1  0  0  0  0
 19 20  1  0  0  0  0
 20 21  2  0  0  0  0
 21 22  1  0  0  0  0
 21 27  1  0  0  0  0
 22 23  2  0  0  0  0
 22 25  1  0  0  0  0
 23 24  1  0  0  0  0
 25 26  2  0  0  0  0
 26 27  1  0  0  0  0
M  END
>  <CHROM.1>
-94.88042735,-132.08260085,-81.34331938,68.94982501,-108.76662736,38.81332700
65.72370311,-14.09727298,-6.07981397,31.17986717,1.30266873,1.01791049,-2.20012427

>  <Name>
ligand

>  <RI>
0

>  <Rbt.Current_Directory>
/home/itssahil/PROJECTS/Mol_Feturizer/New_Systems/rnas/3GX6

>  <Rbt.Executable>
rbdock ($Id: //depot/dev/client3/rdock/2013.1/src/exe/rbdock.cxx#4 $)

>  <Rbt.Library>
libRbt.so (2013.1, Build901 2013/11/27)

>  <Rbt.Parameter_File>
/export/apps/rDock/src/rDock_2013.1_src/data/scripts/dock_solv.prm

>  <Rbt.Receptor>
prm/pocket_docking_2.prm

>  <SCORE>
-14.1048

>  <SCORE.INTER>
-11.0781

>  <SCORE.INTER.CONST>
1

>  <SCORE.INTER.POLAR>
0

>  <SCORE.INTER.ROT>
7

>  <SCORE.INTER.SOLV>
17.3403

>  <SCORE.INTER.VDW>
-21.4321

>  <SCORE.INTER.norm>
-0.410299

>  <SCORE.INTRA>
-3.21184

>  <SCORE.INTRA.DIHEDRAL>
0.397452

>  <SCORE.INTRA.DIHEDRAL.0>
15.0182

>  <SCORE.INTRA.POLAR>
0

>  <SCORE.INTRA.POLAR.0>
0

>  <SCORE.INTRA.REPUL>
0

>  <SCORE.INTRA.REPUL.0>
0

>  <SCORE.INTRA.SOLV>
-1.30894

>  <SCORE.INTRA.SOLV.lig_0>
-47.9129

>  <SCORE.INTRA.VDW>
-2.75609

>  <SCORE.INTRA.VDW.0>
2.00851

>  <SCORE.INTRA.norm>
-0.118957

>  <SCORE.RESTR>
0.185155

>  <SCORE.RESTR.CAVITY>
0.185155

>  <SCORE.RESTR.norm>
0.00685761

>  <SCORE.SYSTEM>
0

>  <SCORE.SYSTEM.CONST>
0

>  <SCORE.SYSTEM.DIHEDRAL>
0

>  <SCORE.SYSTEM.SOLV>
0

>  <SCORE.SYSTEM.norm>
0

>  <SCORE.heavy>
27

>  <SCORE.norm>
-0.522398

>  <RMSD>
2.093

$$$$
ligand
 OpenBabel11021811483D
libRbt.so/2013.1/901 2013/11/27
 27 29  0  0  0  0  0  0  0  0999 V2000
  -14.7152   -6.8291   26.8062 N   0  0  0  0  0  0  0  0  0  0  0  0
  -13.4825   -6.6426   26.0455 C   0  0  2  0  0  0  0  0  0  0  0  0
  -13.6169   -7.1472   24.6112 C   0  0  0  0  0  0  0  0  0  0  0  0
  -14.4703   -7.9839   24.3077 O   0  0  0  0  0  0  0  0  0  0  0  0
  -12.3003   -7.2951   26.7558 C   0  0  0  0  0  0  0  0  0  0  0  0
  -11.8783   -6.5630   28.0202 C   0  0  0  0  0  0  0  0  0  0  0  0
  -13.0961   -6.6488   29.3566 S   0  0  2  0  0  0  0  0  0  0  0  0
  -13.0084   -4.9553   29.9897 C   0  0  0  0  0  0  0  0  0  0  0  0
  -12.1580   -7.5492   30.6206 C   0  0  0  0  0  0  0  0  0  0  0  0
  -12.8420   -7.3835   31.9700 C   0  0  1  0  0  0  0  0  0  0  0  0
  -12.5995   -6.0759   32.4317 O   0  0  0  0  0  0  0  0  0  0  0  0
  -14.3539   -7.5102   31.9616 C   0  0  1  0  0  0  0  0  0  0  0  0
  -14.7520   -8.8165   32.3136 O   0  0  0  0  0  0  0  0  0  0  0  0
  -14.7852   -6.5289   33.0325 C   0  0  1  0  0  0  0  0  0  0  0  0
  -15.1803   -7.2563   34.1694 O   0  0  0  0  0  0  0  0  0  0  0  0
  -13.5668   -5.6805   33.3703 C   0  0  2  0  0  0  0  0  0  0  0  0
  -12.8683   -6.7296   23.7275 O   0  0  0  0  0  0  0  0  0  0  0  0
  -17.1131   -2.2068   31.6006 N   0  0  0  0  0  0  0  0  0  0  0  0
  -17.2135   -3.5836   31.6362 C   0  0  0  0  0  0  0  0  0  0  0  0
  -16.1785   -4.3516   32.1356 N   0  0  0  0  0  0  0  0  0  0  0  0
  -15.0486   -3.7616   32.5928 C   0  0  0  0  0  0  0  0  0  0  0  0
  -14.9332   -2.3771   32.5729 C   0  0  0  0  0  0  0  0  0  0  0  0
  -15.9687   -1.5991   32.0698 C   0  0  0  0  0  0  0  0  0  0  0  0
  -15.8541   -0.2735   32.0419 N   0  0  0  0  0  0  0  0  0  0  0  0
  -13.7264   -2.0546   33.0861 N   0  0  0  0  0  0  0  0  0  0  0  0
  -13.0890   -3.1943   33.4432 C   0  0  0  0  0  0  0  0  0  0  0  0
  -13.8935   -4.2623   33.1454 N   0  0  0  0  0  0  0  0  0  0  0  0
  2  1  1  1  0  0  0
  2  3  1  0  0  0  0
  2  5  1  0  0  0  0
  3  4  1  0  0  0  0
  3 17  1  0  0  0  0
  5  6  1  0  0  0  0
  7  6  1  6  0  0  0
  7  8  1  0  0  0  0
  7  9  1  0  0  0  0
 10  9  1  6  0  0  0
 10 11  1  0  0  0  0
 10 12  1  0  0  0  0
 11 16  1  0  0  0  0
 12 13  1  1  0  0  0
 12 14  1  0  0  0  0
 14 15  1  1  0  0  0
 14 16  1  0  0  0  0
 16 27  1  6  0  0  0
 18 19  2  0  0  0  0
 18 23  1  0  0  0  0
 19 20  1  0  0  0  0
 20 21  2  0  0  0  0
 21 22  1  0  0  0  0
 21 27  1  0  0  0  0
 22 23  2  0  0  0  0
 22 25  1  0  0  0  0
 23 24  1  0  0  0  0
 25 26  2  0  0  0  0
 26 27  1  0  0  0  0
M  END
>  <CHROM.1>
-22.27617812,-71.03234943,67.78484451,-139.24710140,163.64957568,-73.93895893
106.85213351,-14.09545596,-5.52564295,30.39853301,0.97946030,1.18026299,-1.49118657

>  <Name>
ligand

>  <RI>
0

>  <Rbt.Current_Directory>
/home/itssahil/PROJECTS/Mol_Feturizer/New_Systems/rnas/3GX6

>  <Rbt.Executable>
rbdock ($Id: //depot/dev/client3/rdock/2013.1/src/exe/rbdock.cxx#4 $)

>  <Rbt.Library>
libRbt.so (2013.1, Build901 2013/11/27)

>  <Rbt.Parameter_File>
/export/apps/rDock/src/rDock_2013.1_src/data/scripts/dock_solv.prm

>  <Rbt.Receptor>
prm/pocket_docking_7.prm

>  <SCORE>
-17.09

>  <SCORE.INTER>
-11.8131

>  <SCORE.INTER.CONST>
1

>  <SCORE.INTER.POLAR>
0

>  <SCORE.INTER.ROT>
7

>  <SCORE.INTER.SOLV>
15.9484

>  <SCORE.INTER.VDW>
-21.4582

>  <SCORE.INTER.norm>
-0.43752

>  <SCORE.INTRA>
-5.27693

>  <SCORE.INTRA.DIHEDRAL>
-6.28344

>  <SCORE.INTRA.DIHEDRAL.0>
15.0182

>  <SCORE.INTRA.POLAR>
0

>  <SCORE.INTRA.POLAR.0>
0

>  <SCORE.INTRA.REPUL>
0

>  <SCORE.INTRA.REPUL.0>
0

>  <SCORE.INTRA.SOLV>
0.849687

>  <SCORE.INTRA.SOLV.lig_0>
-47.9129

>  <SCORE.INTRA.VDW>
-2.56005

>  <SCORE.INTRA.VDW.0>
2.00851

>  <SCORE.INTRA.norm>
-0.195442

>  <SCORE.RESTR>
0

>  <SCORE.RESTR.CAVITY>
0

>  <SCORE.RESTR.norm>
0

>  <SCORE.SYSTEM>
0

>  <SCORE.SYSTEM.CONST>
0

>  <SCORE.SYSTEM.DIHEDRAL>
0

>  <SCORE.SYSTEM.SOLV>
0

>  <SCORE.SYSTEM.norm>
0

>  <SCORE.heavy>
27

>  <SCORE.norm>
-0.632962

>  <RMSD>
2.196

$$$$
ligand
 OpenBabel11021811483D
libRbt.so/2013.1/901 2013/11/27
 27 29  0  0  0  0  0  0  0  0999 V2000
  -16.2156   -3.9453   28.6861 N   0  0  0  0  0  0  0  0  0  0  0  0
  -15.0533   -4.4252   27.9435 C   0  0  2  0  0  0  0  0  0  0  0  0
  -15.4420   -5.4399   26.8714 C   0  0  0  0  0  0  0  0  0  0  0  0
  -16.3476   -6.2543   27.0637 O   0  0  0  0  0  0  0  0  0  0  0  0
  -13.9989   -4.9924   28.8893 C   0  0  0  0  0  0  0  0  0  0  0  0
  -12.8135   -5.6137   28.1670 C   0  0  0  0  0  0  0  0  0  0  0  0
  -11.6285   -6.4250   29.2687 S   0  0  2  0  0  0  0  0  0  0  0  0
  -10.7323   -7.4582   28.0831 C   0  0  0  0  0  0  0  0  0  0  0  0
  -12.6922   -7.6520   30.0757 C   0  0  0  0  0  0  0  0  0  0  0  0
  -12.7733   -7.3480   31.5648 C   0  0  1  0  0  0  0  0  0  0  0  0
  -13.1398   -5.9979   31.7217 O   0  0  0  0  0  0  0  0  0  0  0  0
  -13.8254   -8.1207   32.3380 C   0  0  1  0  0  0  0  0  0  0  0  0
  -13.2632   -9.2563   32.9569 O   0  0  0  0  0  0  0  0  0  0  0  0
  -14.2770   -7.1262   33.3882 C   0  0  1  0  0  0  0  0  0  0  0  0
  -13.7319   -7.5089   34.6268 O   0  0  0  0  0  0  0  0  0  0  0  0
  -13.7148   -5.7704   32.9829 C   0  0  2  0  0  0  0  0  0  0  0  0
  -14.8517   -5.4672   25.7914 O   0  0  0  0  0  0  0  0  0  0  0  0
  -15.2121   -0.9660   31.4174 N   0  0  0  0  0  0  0  0  0  0  0  0
  -13.9469   -1.5182   31.3805 C   0  0  0  0  0  0  0  0  0  0  0  0
  -13.7270   -2.8037   31.8381 N   0  0  0  0  0  0  0  0  0  0  0  0
  -14.7516   -3.5374   32.3337 C   0  0  0  0  0  0  0  0  0  0  0  0
  -16.0330   -3.0016   32.3707 C   0  0  0  0  0  0  0  0  0  0  0  0
  -16.2607   -1.7088   31.9148 C   0  0  0  0  0  0  0  0  0  0  0  0
  -17.4864   -1.1923   31.9593 N   0  0  0  0  0  0  0  0  0  0  0  0
  -16.8567   -3.9334   32.8969 N   0  0  0  0  0  0  0  0  0  0  0  0
  -16.1334   -5.0436   33.1747 C   0  0  0  0  0  0  0  0  0  0  0  0
  -14.8267   -4.8168   32.8318 N   0  0  0  0  0  0  0  0  0  0  0  0
  2  1  1  1  0  0  0
  2  3  1  0  0  0  0
  2  5  1  0  0  0  0
  3  4  1  0  0  0  0
  3 17  1  0  0  0  0
  5  6  1  0  0  0  0
  7  6  1  6  0  0  0
  7  8  1  0  0  0  0
  7  9  1  0  0  0  0
 10  9  1  6  0  0  0
 10 11  1  0  0  0  0
 10 12  1  0  0  0  0
 11 16  1  0  0  0  0
 12 13  1  1  0  0  0
 12 14  1  0  0  0  0
 14 15  1  1  0  0  0
 14 16  1  0  0  0  0
 16 27  1  6  0  0  0
 18 19  2  0  0  0  0
 18 23  1  0  0  0  0
 19 20  1  0  0  0  0
 20 21  2  0  0  0  0
 21 22  1  0  0  0  0
 21 27  1  0  0  0  0
 22 23  2  0  0  0  0
 22 25  1  0  0  0  0
 23 24  1  0  0  0  0
 25 26  2  0  0  0  0
 26 27  1  0  0  0  0
M  END
>  <CHROM.1>
-36.40254279,175.20580018,-174.68707670,162.30528294,-116.14212911,52.04098780
-59.09647837,-14.26658023,-5.23445978,30.71872121,2.75103249,-0.99187241
1.68286681

>  <Name>
ligand

>  <RI>
0

>  <Rbt.Current_Directory>
/home/itssahil/PROJECTS/Mol_Feturizer/New_Systems/rnas/3GX6

>  <Rbt.Executable>
rbdock ($Id: //depot/dev/client3/rdock/2013.1/src/exe/rbdock.cxx#4 $)

>  <Rbt.Library>
libRbt.so (2013.1, Build901 2013/11/27)

>  <Rbt.Parameter_File>
/export/apps/rDock/src/rDock_2013.1_src/data/scripts/dock_solv.prm

>  <Rbt.Receptor>
prm/pocket_docking_4.prm

>  <SCORE>
-23.9624

>  <SCORE.INTER>
-14.8613

>  <SCORE.INTER.CONST>
1

>  <SCORE.INTER.POLAR>
0

>  <SCORE.INTER.ROT>
7

>  <SCORE.INTER.SOLV>
21.2567

>  <SCORE.INTER.VDW>
-25.2598

>  <SCORE.INTER.norm>
-0.55042

>  <SCORE.INTRA>
-9.10101

>  <SCORE.INTRA.DIHEDRAL>
-7.24322

>  <SCORE.INTRA.DIHEDRAL.0>
15.0182

>  <SCORE.INTRA.POLAR>
0

>  <SCORE.INTRA.POLAR.0>
0

>  <SCORE.INTRA.REPUL>
0

>  <SCORE.INTRA.REPUL.0>
0

>  <SCORE.INTRA.SOLV>
-1.47794

>  <SCORE.INTRA.SOLV.lig_0>
-47.9129

>  <SCORE.INTRA.VDW>
-4.74043

>  <SCORE.INTRA.VDW.0>
2.00851

>  <SCORE.INTRA.norm>
-0.337074

>  <SCORE.RESTR>
0

>  <SCORE.RESTR.CAVITY>
0

>  <SCORE.RESTR.norm>
0

>  <SCORE.SYSTEM>
0

>  <SCORE.SYSTEM.CONST>
0

>  <SCORE.SYSTEM.DIHEDRAL>
0

>  <SCORE.SYSTEM.SOLV>
0

>  <SCORE.SYSTEM.norm>
0

>  <SCORE.heavy>
27

>  <SCORE.norm>
-0.887495

>  <RMSD>
2.296

$$$$
ligand
 OpenBabel11021811483D
libRbt.so/2013.1/901 2013/11/27
 27 29  0  0  0  0  0  0  0  0999 V2000
   -9.9338   -8.7738   25.5507 N   0  0  0  0  0  0  0  0  0  0  0  0
  -11.3257   -8.8101   25.9913 C   0  0  2  0  0  0  0  0  0  0  0  0
  -12.0514   -7.5006   25.6934 C   0  0  0  0  0  0  0  0  0  0  0  0
  -12.5059   -7.2653   24.5716 O   0  0  0  0  0  0  0  0  0  0  0  0
  -11.4195   -9.1734   27.4702 C   0  0  0  0  0  0  0  0  0  0  0  0
  -12.8465   -9.3972   27.9462 C   0  0  0  0  0  0  0  0  0  0  0  0
  -13.0495   -9.2614   29.7397 S   0  0  2  0  0  0  0  0  0  0  0  0
  -14.8462   -9.4306   29.8803 C   0  0  0  0  0  0  0  0  0  0  0  0
  -12.8417   -7.4755   29.9759 C   0  0  0  0  0  0  0  0  0  0  0  0
  -12.6651   -7.1799   31.4584 C   0  0  1  0  0  0  0  0  0  0  0  0
  -12.4376   -5.7990   31.6105 O   0  0  0  0  0  0  0  0  0  0  0  0
  -13.8701   -7.4662   32.3346 C   0  0  1  0  0  0  0  0  0  0  0  0
  -13.7664   -8.7385   32.9340 O   0  0  0  0  0  0  0  0  0  0  0  0
  -13.7881   -6.3847   33.3928 C   0  0  1  0  0  0  0  0  0  0  0  0
  -13.3416   -6.9685   34.5918 O   0  0  0  0  0  0  0  0  0  0  0  0
  -12.7610   -5.3703   32.9084 C   0  0  2  0  0  0  0  0  0  0  0  0
  -12.1924   -6.6489   26.5711 O   0  0  0  0  0  0  0  0  0  0  0  0
  -16.6922   -2.4962   30.8933 N   0  0  0  0  0  0  0  0  0  0  0  0
  -16.4336   -3.8391   30.7016 C   0  0  0  0  0  0  0  0  0  0  0  0
  -15.3475   -4.4400   31.3094 N   0  0  0  0  0  0  0  0  0  0  0  0
  -14.5188   -3.7159   32.0986 C   0  0  0  0  0  0  0  0  0  0  0  0
  -14.7680   -2.3655   32.3099 C   0  0  0  0  0  0  0  0  0  0  0  0
  -15.8567   -1.7544   31.6999 C   0  0  0  0  0  0  0  0  0  0  0  0
  -16.0897   -0.4587   31.8948 N   0  0  0  0  0  0  0  0  0  0  0  0
  -13.8072   -1.8905   33.1315 N   0  0  0  0  0  0  0  0  0  0  0  0
  -12.9731   -2.9065   33.4554 C   0  0  0  0  0  0  0  0  0  0  0  0
  -13.3988   -4.0457   32.8248 N   0  0  0  0  0  0  0  0  0  0  0  0
  2  1  1  1  0  0  0
  2  3  1  0  0  0  0
  2  5  1  0  0  0  0
  3  4  1  0  0  0  0
  3 17  1  0  0  0  0
  5  6  1  0  0  0  0
  7  6  1  6  0  0  0
  7  8  1  0  0  0  0
  7  9  1  0  0  0  0
 10  9  1  6  0  0  0
 10 11  1  0  0  0  0
 10 12  1  0  0  0  0
 11 16  1  0  0  0  0
 12 13  1  1  0  0  0
 12 14  1  0  0  0  0
 14 15  1  1  0  0  0
 14 16  1  0  0  0  0
 16 27  1  6  0  0  0
 18 19  2  0  0  0  0
 18 23  1  0  0  0  0
 19 20  1  0  0  0  0
 20 21  2  0  0  0  0
 21 22  1  0  0  0  0
 21 27  1  0  0  0  0
 22 23  2  0  0  0  0
 22 25  1  0  0  0  0
 23 24  1  0  0  0  0
 25 26  2  0  0  0  0
 26 27  1  0  0  0  0
M  END
>  <CHROM.1>
81.27196717,-172.80178302,-160.02316950,175.04817558,-167.33134946,177.03071535
56.38097936,-13.48197818,-6.15823307,30.40725739,0.35359121,1.20768983,-1.15440821

>  <Name>
ligand

>  <RI>
0

>  <Rbt.Current_Directory>
/home/itssahil/PROJECTS/Mol_Feturizer/New_Systems/rnas/3GX6

>  <Rbt.Executable>
rbdock ($Id: //depot/dev/client3/rdock/2013.1/src/exe/rbdock.cxx#4 $)

>  <Rbt.Library>
libRbt.so (2013.1, Build901 2013/11/27)

>  <Rbt.Parameter_File>
/export/apps/rDock/src/rDock_2013.1_src/data/scripts/dock_solv.prm

>  <Rbt.Receptor>
prm/pocket_docking_5.prm

>  <SCORE>
-20.9396

>  <SCORE.INTER>
-11.0827

>  <SCORE.INTER.CONST>
1

>  <SCORE.INTER.POLAR>
0

>  <SCORE.INTER.ROT>
7

>  <SCORE.INTER.SOLV>
16.8866

>  <SCORE.INTER.VDW>
-21.284

>  <SCORE.INTER.norm>
-0.410469

>  <SCORE.INTRA>
-9.85694

>  <SCORE.INTRA.DIHEDRAL>
-9.02365

>  <SCORE.INTRA.DIHEDRAL.0>
15.0182

>  <SCORE.INTRA.POLAR>
0

>  <SCORE.INTRA.POLAR.0>
0

>  <SCORE.INTRA.REPUL>
0

>  <SCORE.INTRA.REPUL.0>
0

>  <SCORE.INTRA.SOLV>
-1.53009

>  <SCORE.INTRA.SOLV.lig_0>
-47.9129

>  <SCORE.INTRA.VDW>
-4.58007

>  <SCORE.INTRA.VDW.0>
2.00851

>  <SCORE.INTRA.norm>
-0.365072

>  <SCORE.RESTR>
0

>  <SCORE.RESTR.CAVITY>
0

>  <SCORE.RESTR.norm>
0

>  <SCORE.SYSTEM>
0

>  <SCORE.SYSTEM.CONST>
0

>  <SCORE.SYSTEM.DIHEDRAL>
0

>  <SCORE.SYSTEM.SOLV>
0

>  <SCORE.SYSTEM.norm>
0

>  <SCORE.heavy>
27

>  <SCORE.norm>
-0.775541

>  <RMSD>
2.304

$$$$
ligand
 OpenBabel11021811483D
libRbt.so/2013.1/901 2013/11/27
 27 29  0  0  0  0  0  0  0  0999 V2000
  -13.3468   -8.1981   25.3833 N   0  0  0  0  0  0  0  0  0  0  0  0
  -12.3620   -7.2643   25.9229 C   0  0  2  0  0  0  0  0  0  0  0  0
  -11.0410   -7.9558   26.2496 C   0  0  0  0  0  0  0  0  0  0  0  0
  -10.0737   -7.3160   26.6683 O   0  0  0  0  0  0  0  0  0  0  0  0
  -12.9187   -6.5273   27.1373 C   0  0  0  0  0  0  0  0  0  0  0  0
  -13.3921   -7.4588   28.2425 C   0  0  0  0  0  0  0  0  0  0  0  0
  -12.2836   -7.5209   29.6721 S   0  0  2  0  0  0  0  0  0  0  0  0
  -11.2775   -8.9637   29.2447 C   0  0  0  0  0  0  0  0  0  0  0  0
  -13.3855   -8.2175   30.9327 C   0  0  0  0  0  0  0  0  0  0  0  0
  -12.9860   -7.6855   32.3015 C   0  0  1  0  0  0  0  0  0  0  0  0
  -12.7033   -6.3120   32.1775 O   0  0  0  0  0  0  0  0  0  0  0  0
  -14.0564   -7.7589   33.3742 C   0  0  1  0  0  0  0  0  0  0  0  0
  -13.8985   -8.9155   34.1654 O   0  0  0  0  0  0  0  0  0  0  0  0
  -13.7925   -6.5201   34.2059 C   0  0  1  0  0  0  0  0  0  0  0  0
  -13.1901   -6.9151   35.4137 O   0  0  0  0  0  0  0  0  0  0  0  0
  -12.8219   -5.6549   33.4133 C   0  0  2  0  0  0  0  0  0  0  0  0
  -10.9151   -9.1707   26.0953 O   0  0  0  0  0  0  0  0  0  0  0  0
  -17.1041   -2.9781   31.9057 N   0  0  0  0  0  0  0  0  0  0  0  0
  -16.9368   -4.3470   31.9782 C   0  0  0  0  0  0  0  0  0  0  0  0
  -15.7354   -4.8876   32.3962 N   0  0  0  0  0  0  0  0  0  0  0  0
  -14.7035   -4.0791   32.7360 C   0  0  0  0  0  0  0  0  0  0  0  0
  -14.8561   -2.6994   32.6775 C   0  0  0  0  0  0  0  0  0  0  0  0
  -16.0604   -2.1491   32.2557 C   0  0  0  0  0  0  0  0  0  0  0  0
  -16.2032   -0.8276   32.1906 N   0  0  0  0  0  0  0  0  0  0  0  0
  -13.6934   -2.1369   33.0715 N   0  0  0  0  0  0  0  0  0  0  0  0
  -12.8221   -3.1223   33.3918 C   0  0  0  0  0  0  0  0  0  0  0  0
  -13.4310   -4.3329   33.1906 N   0  0  0  0  0  0  0  0  0  0  0  0
  2  1  1  1  0  0  0
  2  3  1  0  0  0  0
  2  5  1  0  0  0  0
  3  4  1  0  0  0  0
  3 17  1  0  0  0  0
  5  6  1  0  0  0  0
  7  6  1  6  0  0  0
  7  8  1  0  0  0  0
  7  9  1  0  0  0  0
 10  9  1  6  0  0  0
 10 11  1  0  0  0  0
 10 12  1  0  0  0  0
 11 16  1  0  0  0  0
 12 13  1  1  0  0  0
 12 14  1  0  0  0  0
 14 15  1  1  0  0  0
 14 16  1  0  0  0  0
 16 27  1  6  0  0  0
 18 19  2  0  0  0  0
 18 23  1  0  0  0  0
 19 20  1  0  0  0  0
 20 21  2  0  0  0  0
 21 22  1  0  0  0  0
 21 27  1  0  0  0  0
 22 23  2  0  0  0  0
 22 25  1  0  0  0  0
 23 24  1  0  0  0  0
 25 26  2  0  0  0  0
 26 27  1  0  0  0  0
M  END
>  <CHROM.1>
177.25007484,56.42428641,105.78501256,-94.48373636,-149.25628003,42.31438144
65.12709712,-13.43306896,-6.09480016,30.88194133,0.65084665,1.06305497,-1.31832761

>  <Name>
ligand

>  <RI>
0

>  <Rbt.Current_Directory>
/home/itssahil/PROJECTS/Mol_Feturizer/New_Systems/rnas/3GX6

>  <Rbt.Executable>
rbdock ($Id: //depot/dev/client3/rdock/2013.1/src/exe/rbdock.cxx#4 $)

>  <Rbt.Library>
libRbt.so (2013.1, Build901 2013/11/27)

>  <Rbt.Parameter_File>
/export/apps/rDock/src/rDock_2013.1_src/data/scripts/dock_solv.prm

>  <Rbt.Receptor>
prm/pocket_docking_4.prm

>  <SCORE>
-18.8418

>  <SCORE.INTER>
-13.3173

>  <SCORE.INTER.CONST>
1

>  <SCORE.INTER.POLAR>
0

>  <SCORE.INTER.ROT>
7

>  <SCORE.INTER.SOLV>
15.3836

>  <SCORE.INTER.VDW>
-22.2727

>  <SCORE.INTER.norm>
-0.493232

>  <SCORE.INTRA>
-5.52454

>  <SCORE.INTRA.DIHEDRAL>
-1.00706

>  <SCORE.INTRA.DIHEDRAL.0>
15.0182

>  <SCORE.INTRA.POLAR>
0

>  <SCORE.INTRA.POLAR.0>
0

>  <SCORE.INTRA.REPUL>
0

>  <SCORE.INTRA.REPUL.0>
0

>  <SCORE.INTRA.SOLV>
-0.655068

>  <SCORE.INTRA.SOLV.lig_0>
-47.9129

>  <SCORE.INTRA.VDW>
-4.69347

>  <SCORE.INTRA.VDW.0>
2.00851

>  <SCORE.INTRA.norm>
-0.204612

>  <SCORE.RESTR>
0

>  <SCORE.RESTR.CAVITY>
0

>  <SCORE.RESTR.norm>
0

>  <SCORE.SYSTEM>
0

>  <SCORE.SYSTEM.CONST>
0

>  <SCORE.SYSTEM.DIHEDRAL>
0

>  <SCORE.SYSTEM.SOLV>
0

>  <SCORE.SYSTEM.norm>
0

>  <SCORE.heavy>
27

>  <SCORE.norm>
-0.697845

>  <RMSD>
2.331

$$$$
ligand
 OpenBabel11021811483D
libRbt.so/2013.1/901 2013/11/27
 27 29  0  0  0  0  0  0  0  0999 V2000
  -11.6193   -8.5887   27.1199 N   0  0  0  0  0  0  0  0  0  0  0  0
  -12.2777   -9.8908   27.1831 C   0  0  2  0  0  0  0  0  0  0  0  0
  -13.4332   -9.9932   26.1910 C   0  0  0  0  0  0  0  0  0  0  0  0
  -13.5978  -11.0062   25.5074 O   0  0  0  0  0  0  0  0  0  0  0  0
  -12.7369  -10.2004   28.6048 C   0  0  0  0  0  0  0  0  0  0  0  0
  -13.6292   -9.1212   29.1982 C   0  0  0  0  0  0  0  0  0  0  0  0
  -15.1186   -9.7631   30.0018 S   0  0  2  0  0  0  0  0  0  0  0  0
  -16.2499   -9.8303   28.5904 C   0  0  0  0  0  0  0  0  0  0  0  0
  -15.7120   -8.2813   30.8622 C   0  0  0  0  0  0  0  0  0  0  0  0
  -14.7279   -7.9081   31.9615 C   0  0  1  0  0  0  0  0  0  0  0  0
  -14.1083   -6.6945   31.6078 O   0  0  0  0  0  0  0  0  0  0  0  0
  -15.3352   -7.6422   33.3262 C   0  0  1  0  0  0  0  0  0  0  0  0
  -15.2689   -8.7920   34.1400 O   0  0  0  0  0  0  0  0  0  0  0  0
  -14.4448   -6.5538   33.8905 C   0  0  1  0  0  0  0  0  0  0  0  0
  -13.6122   -7.1235   34.8703 O   0  0  0  0  0  0  0  0  0  0  0  0
  -13.5937   -6.0380   32.7380 C   0  0  2  0  0  0  0  0  0  0  0  0
  -14.2230   -9.0593   26.0506 O   0  0  0  0  0  0  0  0  0  0  0  0
  -17.1111   -2.1762   32.0380 N   0  0  0  0  0  0  0  0  0  0  0  0
  -17.3445   -3.5338   32.1356 C   0  0  0  0  0  0  0  0  0  0  0  0
  -16.2966   -4.4164   32.3176 N   0  0  0  0  0  0  0  0  0  0  0  0
  -15.0243   -3.9595   32.3980 C   0  0  0  0  0  0  0  0  0  0  0  0
  -14.7710   -2.5962   32.3106 C   0  0  0  0  0  0  0  0  0  0  0  0
  -15.8196   -1.7035   32.1249 C   0  0  0  0  0  0  0  0  0  0  0  0
  -15.5758   -0.3985   32.0316 N   0  0  0  0  0  0  0  0  0  0  0  0
  -13.4381   -2.4142   32.4275 N   0  0  0  0  0  0  0  0  0  0  0  0
  -12.8498   -3.6208   32.6031 C   0  0  0  0  0  0  0  0  0  0  0  0
  -13.8175   -4.5903   32.5880 N   0  0  0  0  0  0  0  0  0  0  0  0
  2  1  1  1  0  0  0
  2  3  1  0  0  0  0
  2  5  1  0  0  0  0
  3  4  1  0  0  0  0
  3 17  1  0  0  0  0
  5  6  1  0  0  0  0
  7  6  1  6  0  0  0
  7  8  1  0  0  0  0
  7  9  1  0  0  0  0
 10  9  1  6  0  0  0
 10 11  1  0  0  0  0
 10 12  1  0  0  0  0
 11 16  1  0  0  0  0
 12 13  1  1  0  0  0
 12 14  1  0  0  0  0
 14 15  1  1  0  0  0
 14 16  1  0  0  0  0
 16 27  1  6  0  0  0
 18 19  2  0  0  0  0
 18 23  1  0  0  0  0
 19 20  1  0  0  0  0
 20 21  2  0  0  0  0
 21 22  1  0  0  0  0
 21 27  1  0  0  0  0
 22 23  2  0  0  0  0
 22 25  1  0  0  0  0
 23 24  1  0  0  0  0
 25 26  2  0  0  0  0
 26 27  1  0  0  0  0
M  END
>  <CHROM.1>
136.46826934,54.94283588,133.03885971,-87.63694596,-67.03694390,112.10189730
57.19701308,-14.52691889,-6.78174514,30.83519300,-0.36076958,1.38904048,-0.54337276

>  <Name>
ligand

>  <RI>
0

>  <Rbt.Current_Directory>
/home/itssahil/PROJECTS/Mol_Feturizer/New_Systems/rnas/3GX6

>  <Rbt.Executable>
rbdock ($Id: //depot/dev/client3/rdock/2013.1/src/exe/rbdock.cxx#4 $)

>  <Rbt.Library>
libRbt.so (2013.1, Build901 2013/11/27)

>  <Rbt.Parameter_File>
/export/apps/rDock/src/rDock_2013.1_src/data/scripts/dock_solv.prm

>  <Rbt.Receptor>
prm/pocket_docking_7.prm

>  <SCORE>
-18.3145

>  <SCORE.INTER>
-12.0696

>  <SCORE.INTER.CONST>
1

>  <SCORE.INTER.POLAR>
0

>  <SCORE.INTER.ROT>
7

>  <SCORE.INTER.SOLV>
15.0534

>  <SCORE.INTER.VDW>
-21.3309

>  <SCORE.INTER.norm>
-0.447023

>  <SCORE.INTRA>
-6.24489

>  <SCORE.INTRA.DIHEDRAL>
-0.732508

>  <SCORE.INTRA.DIHEDRAL.0>
15.0182

>  <SCORE.INTRA.POLAR>
0

>  <SCORE.INTRA.POLAR.0>
0

>  <SCORE.INTRA.REPUL>
0

>  <SCORE.INTRA.REPUL.0>
0

>  <SCORE.INTRA.SOLV>
-1.06393

>  <SCORE.INTRA.SOLV.lig_0>
-47.9129

>  <SCORE.INTRA.VDW>
-5.34667

>  <SCORE.INTRA.VDW.0>
2.00851

>  <SCORE.INTRA.norm>
-0.231292

>  <SCORE.RESTR>
0

>  <SCORE.RESTR.CAVITY>
0

>  <SCORE.RESTR.norm>
0

>  <SCORE.SYSTEM>
0

>  <SCORE.SYSTEM.CONST>
0

>  <SCORE.SYSTEM.DIHEDRAL>
0

>  <SCORE.SYSTEM.SOLV>
0

>  <SCORE.SYSTEM.norm>
0

>  <SCORE.heavy>
27

>  <SCORE.norm>
-0.678315

>  <RMSD>
2.421

$$$$
ligand
 OpenBabel11021811483D
libRbt.so/2013.1/901 2013/11/27
 27 29  0  0  0  0  0  0  0  0999 V2000
  -11.5250   -6.4326   29.5538 N   0  0  0  0  0  0  0  0  0  0  0  0
  -11.6946   -7.3280   28.4125 C   0  0  2  0  0  0  0  0  0  0  0  0
  -12.2858   -6.6053   27.2050 C   0  0  0  0  0  0  0  0  0  0  0  0
  -13.0534   -5.6508   27.3469 O   0  0  0  0  0  0  0  0  0  0  0  0
  -12.5303   -8.5458   28.7953 C   0  0  0  0  0  0  0  0  0  0  0  0
  -13.8780   -8.1855   29.4008 C   0  0  0  0  0  0  0  0  0  0  0  0
  -14.9897   -9.5991   29.6059 S   0  0  2  0  0  0  0  0  0  0  0  0
  -15.5771   -9.8039   27.9060 C   0  0  0  0  0  0  0  0  0  0  0  0
  -16.4215   -8.8020   30.3825 C   0  0  0  0  0  0  0  0  0  0  0  0
  -16.0451   -8.3441   31.7843 C   0  0  1  0  0  0  0  0  0  0  0  0
  -15.5231   -7.0395   31.6987 O   0  0  0  0  0  0  0  0  0  0  0  0
  -17.1928   -8.2313   32.7701 C   0  0  1  0  0  0  0  0  0  0  0  0
  -17.2972   -9.3966   33.5574 O   0  0  0  0  0  0  0  0  0  0  0  0
  -16.7869   -7.0546   33.6342 C   0  0  1  0  0  0  0  0  0  0  0  0
  -16.3571   -7.5450   34.8802 O   0  0  0  0  0  0  0  0  0  0  0  0
  -15.6239   -6.3698   32.9293 C   0  0  2  0  0  0  0  0  0  0  0  0
  -12.0097   -6.9675   26.0612 O   0  0  0  0  0  0  0  0  0  0  0  0
  -13.9033   -1.5601   31.6326 N   0  0  0  0  0  0  0  0  0  0  0  0
  -13.1661   -2.7192   31.7739 C   0  0  0  0  0  0  0  0  0  0  0  0
  -13.7816   -3.9058   32.1249 N   0  0  0  0  0  0  0  0  0  0  0  0
  -15.1181   -3.9452   32.3396 C   0  0  0  0  0  0  0  0  0  0  0  0
  -15.8774   -2.7908   32.1937 C   0  0  0  0  0  0  0  0  0  0  0  0
  -15.2647   -1.5937   31.8436 C   0  0  0  0  0  0  0  0  0  0  0  0
  -15.9908   -0.4861   31.7133 N   0  0  0  0  0  0  0  0  0  0  0  0
  -17.1644   -3.1057   32.4546 N   0  0  0  0  0  0  0  0  0  0  0  0
  -17.2374   -4.4265   32.7426 C   0  0  0  0  0  0  0  0  0  0  0  0
  -15.9788   -4.9633   32.6758 N   0  0  0  0  0  0  0  0  0  0  0  0
  2  1  1  1  0  0  0
  2  3  1  0  0  0  0
  2  5  1  0  0  0  0
  3  4  1  0  0  0  0
  3 17  1  0  0  0  0
  5  6  1  0  0  0  0
  7  6  1  6  0  0  0
  7  8  1  0  0  0  0
  7  9  1  0  0  0  0
 10  9  1  6  0  0  0
 10 11  1  0  0  0  0
 10 12  1  0  0  0  0
 11 16  1  0  0  0  0
 12 13  1  1  0  0  0
 12 14  1  0  0  0  0
 14 15  1  1  0  0  0
 14 16  1  0  0  0  0
 16 27  1  6  0  0  0
 18 19  2  0  0  0  0
 18 23  1  0  0  0  0
 19 20  1  0  0  0  0
 20 21  2  0  0  0  0
 21 22  1  0  0  0  0
 21 27  1  0  0  0  0
 22 23  2  0  0  0  0
 22 25  1  0  0  0  0
 23 24  1  0  0  0  0
 25 26  2  0  0  0  0
 26 27  1  0  0  0  0
M  END
>  <CHROM.1>
-30.45896039,54.76609679,170.39036854,-78.03741178,-68.09644327,88.99648701
-82.52546753,-14.89868633,-6.24155125,30.91255691,-1.04709008,0.88430697
0.27520779

>  <Name>
ligand

>  <RI>
0

>  <Rbt.Current_Directory>
/home/itssahil/PROJECTS/Mol_Feturizer/New_Systems/rnas/3GX6

>  <Rbt.Executable>
rbdock ($Id: //depot/dev/client3/rdock/2013.1/src/exe/rbdock.cxx#4 $)

>  <Rbt.Library>
libRbt.so (2013.1, Build901 2013/11/27)

>  <Rbt.Parameter_File>
/export/apps/rDock/src/rDock_2013.1_src/data/scripts/dock_solv.prm

>  <Rbt.Receptor>
prm/pocket_docking_4.prm

>  <SCORE>
-19.6391

>  <SCORE.INTER>
-10.9226

>  <SCORE.INTER.CONST>
1

>  <SCORE.INTER.POLAR>
0

>  <SCORE.INTER.ROT>
7

>  <SCORE.INTER.SOLV>
19.1892

>  <SCORE.INTER.VDW>
-21.9448

>  <SCORE.INTER.norm>
-0.40454

>  <SCORE.INTRA>
-8.71646

>  <SCORE.INTRA.DIHEDRAL>
-8.57674

>  <SCORE.INTRA.DIHEDRAL.0>
15.0182

>  <SCORE.INTRA.POLAR>
0

>  <SCORE.INTRA.POLAR.0>
0

>  <SCORE.INTRA.REPUL>
0

>  <SCORE.INTRA.REPUL.0>
0

>  <SCORE.INTRA.SOLV>
-1.09598

>  <SCORE.INTRA.SOLV.lig_0>
-47.9129

>  <SCORE.INTRA.VDW>
-3.8801

>  <SCORE.INTRA.VDW.0>
2.00851

>  <SCORE.INTRA.norm>
-0.322832

>  <SCORE.RESTR>
0

>  <SCORE.RESTR.CAVITY>
0

>  <SCORE.RESTR.norm>
0

>  <SCORE.SYSTEM>
0

>  <SCORE.SYSTEM.CONST>
0

>  <SCORE.SYSTEM.DIHEDRAL>
0

>  <SCORE.SYSTEM.SOLV>
0

>  <SCORE.SYSTEM.norm>
0

>  <SCORE.heavy>
27

>  <SCORE.norm>
-0.727372

>  <RMSD>
2.555

$$$$
ligand
 OpenBabel11021811483D
libRbt.so/2013.1/901 2013/11/27
 27 29  0  0  0  0  0  0  0  0999 V2000
  -13.0195  -10.0515   26.3397 N   0  0  0  0  0  0  0  0  0  0  0  0
  -14.3329  -10.1673   26.9678 C   0  0  2  0  0  0  0  0  0  0  0  0
  -15.4484   -9.6745   26.0498 C   0  0  0  0  0  0  0  0  0  0  0  0
  -16.6309   -9.7380   26.3935 O   0  0  0  0  0  0  0  0  0  0  0  0
  -14.3595   -9.4454   28.3117 C   0  0  0  0  0  0  0  0  0  0  0  0
  -13.9401   -7.9864   28.2202 C   0  0  0  0  0  0  0  0  0  0  0  0
  -13.9904   -7.1099   29.8031 S   0  0  2  0  0  0  0  0  0  0  0  0
  -13.1664   -5.5637   29.3482 C   0  0  0  0  0  0  0  0  0  0  0  0
  -12.6713   -7.9612   30.7106 C   0  0  0  0  0  0  0  0  0  0  0  0
  -12.6608   -7.4802   32.1545 C   0  0  1  0  0  0  0  0  0  0  0  0
  -12.4089   -6.0953   32.1581 O   0  0  0  0  0  0  0  0  0  0  0  0
  -13.9689   -7.6314   32.9081 C   0  0  1  0  0  0  0  0  0  0  0  0
  -13.9769   -8.8175   33.6708 O   0  0  0  0  0  0  0  0  0  0  0  0
  -13.9774   -6.4243   33.8239 C   0  0  1  0  0  0  0  0  0  0  0  0
  -13.6937   -6.8562   35.1319 O   0  0  0  0  0  0  0  0  0  0  0  0
  -12.8687   -5.4978   33.3432 C   0  0  2  0  0  0  0  0  0  0  0  0
  -15.1868   -9.2068   24.9414 O   0  0  0  0  0  0  0  0  0  0  0  0
  -17.2367   -2.7751   32.2107 N   0  0  0  0  0  0  0  0  0  0  0  0
  -17.1196   -4.1247   32.4786 C   0  0  0  0  0  0  0  0  0  0  0  0
  -15.8858   -4.6821   32.7565 N   0  0  0  0  0  0  0  0  0  0  0  0
  -14.7732   -3.9101   32.7647 C   0  0  0  0  0  0  0  0  0  0  0  0
  -14.8728   -2.5486   32.5059 C   0  0  0  0  0  0  0  0  0  0  0  0
  -16.1097   -1.9821   32.2232 C   0  0  0  0  0  0  0  0  0  0  0  0
  -16.2036   -0.6797   31.9659 N   0  0  0  0  0  0  0  0  0  0  0  0
  -13.6325   -2.0203   32.5839 N   0  0  0  0  0  0  0  0  0  0  0  0
  -12.7607   -3.0063   32.9008 C   0  0  0  0  0  0  0  0  0  0  0  0
  -13.4499   -4.1846   33.0174 N   0  0  0  0  0  0  0  0  0  0  0  0
  2  1  1  6  0  0  0
  2  3  1  0  0  0  0
  2  5  1  0  0  0  0
  3  4  1  0  0  0  0
  3 17  1  0  0  0  0
  5  6  1  0  0  0  0
  7  6  1  6  0  0  0
  7  8  1  0  0  0  0
  7  9  1  0  0  0  0
 10  9  1  6  0  0  0
 10 11  1  0  0  0  0
 10 12  1  0  0  0  0
 11 16  1  0  0  0  0
 12 13  1  1  0  0  0
 12 14  1  0  0  0  0
 14 15  1  1  0  0  0
 14 16  1  0  0  0  0
 16 27  1  6  0  0  0
 18 19  2  0  0  0  0
 18 23  1  0  0  0  0
 19 20  1  0  0  0  0
 20 21  2  0  0  0  0
 21 22  1  0  0  0  0
 21 27  1  0  0  0  0
 22 23  2  0  0  0  0
 22 25  1  0  0  0  0
 23 24  1  0  0  0  0
 25 26  2  0  0  0  0
 26 27  1  0  0  0  0
M  END
>  <CHROM.1>
177.52189181,55.04940983,179.13654050,170.38069148,-173.05942426,-60.96286862
93.95743919,-14.34753874,-6.27193285,30.85341249,-1.53882253,-1.00716873
0.82681538

>  <Name>
ligand

>  <RI>
0

>  <Rbt.Current_Directory>
/home/itssahil/PROJECTS/Mol_Feturizer/New_Systems/rnas/3GX6

>  <Rbt.Executable>
rbdock ($Id: //depot/dev/client3/rdock/2013.1/src/exe/rbdock.cxx#4 $)

>  <Rbt.Library>
libRbt.so (2013.1, Build901 2013/11/27)

>  <Rbt.Parameter_File>
/export/apps/rDock/src/rDock_2013.1_src/data/scripts/dock_solv.prm

>  <Rbt.Receptor>
prm/pocket_docking_4.prm

>  <SCORE>
-21.728

>  <SCORE.INTER>
-11.8564

>  <SCORE.INTER.CONST>
1

>  <SCORE.INTER.POLAR>
0

>  <SCORE.INTER.ROT>
7

>  <SCORE.INTER.SOLV>
16.276

>  <SCORE.INTER.VDW>
-21.5963

>  <SCORE.INTER.norm>
-0.439127

>  <SCORE.INTRA>
-9.87438

>  <SCORE.INTRA.DIHEDRAL>
-11.0573

>  <SCORE.INTRA.DIHEDRAL.0>
15.0182

>  <SCORE.INTRA.POLAR>
0

>  <SCORE.INTRA.POLAR.0>
0

>  <SCORE.INTRA.REPUL>
0

>  <SCORE.INTRA.REPUL.0>
0

>  <SCORE.INTRA.SOLV>
-0.853185

>  <SCORE.INTRA.SOLV.lig_0>
-47.9129

>  <SCORE.INTRA.VDW>
-3.91914

>  <SCORE.INTRA.VDW.0>
2.00851

>  <SCORE.INTRA.norm>
-0.365718

>  <SCORE.RESTR>
0.00278037

>  <SCORE.RESTR.CAVITY>
0.00278037

>  <SCORE.RESTR.norm>
0.000102977

>  <SCORE.SYSTEM>
0

>  <SCORE.SYSTEM.CONST>
0

>  <SCORE.SYSTEM.DIHEDRAL>
0

>  <SCORE.SYSTEM.SOLV>
0

>  <SCORE.SYSTEM.norm>
0

>  <SCORE.heavy>
27

>  <SCORE.norm>
-0.804742

>  <RMSD>
2.556

$$$$
ligand
 OpenBabel11021811483D
libRbt.so/2013.1/901 2013/11/27
 27 29  0  0  0  0  0  0  0  0999 V2000
  -12.1261   -7.4137   26.7099 N   0  0  0  0  0  0  0  0  0  0  0  0
  -12.3379   -8.2064   27.9181 C   0  0  2  0  0  0  0  0  0  0  0  0
  -11.0195   -8.6033   28.5770 C   0  0  0  0  0  0  0  0  0  0  0  0
   -9.9538   -8.5367   27.9602 O   0  0  0  0  0  0  0  0  0  0  0  0
  -13.2018   -9.4289   27.6228 C   0  0  0  0  0  0  0  0  0  0  0  0
  -13.4710  -10.2868   28.8495 C   0  0  0  0  0  0  0  0  0  0  0  0
  -14.9012   -9.7484   29.8195 S   0  0  2  0  0  0  0  0  0  0  0  0
  -16.1979   -9.8180   28.5585 C   0  0  0  0  0  0  0  0  0  0  0  0
  -14.5982   -7.9632   29.9187 C   0  0  0  0  0  0  0  0  0  0  0  0
  -13.6809   -7.6721   31.0978 C   0  0  1  0  0  0  0  0  0  0  0  0
  -13.2831   -6.3236   31.0269 O   0  0  0  0  0  0  0  0  0  0  0  0
  -14.3100   -7.8120   32.4713 C   0  0  1  0  0  0  0  0  0  0  0  0
  -14.0381   -9.0808   33.0233 O   0  0  0  0  0  0  0  0  0  0  0  0
  -13.6140   -6.7343   33.2776 C   0  0  1  0  0  0  0  0  0  0  0  0
  -12.6851   -7.3503   34.1352 O   0  0  0  0  0  0  0  0  0  0  0  0
  -12.8769   -5.8465   32.2840 C   0  0  2  0  0  0  0  0  0  0  0  0
  -10.9965   -9.0042   29.7408 O   0  0  0  0  0  0  0  0  0  0  0  0
  -16.3805   -2.1956   30.8104 N   0  0  0  0  0  0  0  0  0  0  0  0
  -16.2810   -3.5039   30.3797 C   0  0  0  0  0  0  0  0  0  0  0  0
  -15.2910   -4.3332   30.8719 N   0  0  0  0  0  0  0  0  0  0  0  0
  -14.4012   -3.8700   31.7817 C   0  0  0  0  0  0  0  0  0  0  0  0
  -14.4909   -2.5590   32.2331 C   0  0  0  0  0  0  0  0  0  0  0  0
  -15.4822   -1.7190   31.7404 C   0  0  0  0  0  0  0  0  0  0  0  0
  -15.5620   -0.4606   32.1659 N   0  0  0  0  0  0  0  0  0  0  0  0
  -13.5009   -2.3611   33.1299 N   0  0  0  0  0  0  0  0  0  0  0  0
  -12.8039   -3.5135   33.2672 C   0  0  0  0  0  0  0  0  0  0  0  0
  -13.3479   -4.4600   32.4396 N   0  0  0  0  0  0  0  0  0  0  0  0
  2  1  1  6  0  0  0
  2  3  1  0  0  0  0
  2  5  1  0  0  0  0
  3  4  1  0  0  0  0
  3 17  1  0  0  0  0
  5  6  1  0  0  0  0
  7  6  1  6  0  0  0
  7  8  1  0  0  0  0
  7  9  1  0  0  0  0
 10  9  1  6  0  0  0
 10 11  1  0  0  0  0
 10 12  1  0  0  0  0
 11 16  1  0  0  0  0
 12 13  1  1  0  0  0
 12 14  1  0  0  0  0
 14 15  1  1  0  0  0
 14 16  1  0  0  0  0
 16 27  1  1  0  0  0
 18 19  2  0  0  0  0
 18 23  1  0  0  0  0
 19 20  1  0  0  0  0
 20 21  2  0  0  0  0
 21 22  1  0  0  0  0
 21 27  1  0  0  0  0
 22 23  2  0  0  0  0
 22 25  1  0  0  0  0
 23 24  1  0  0  0  0
 25 26  2  0  0  0  0
 26 27  1  0  0  0  0
M  END
>  <CHROM.1>
-16.67481849,-179.33035933,86.25589240,57.24682447,-85.84368267,170.46237371
23.27985105,-13.74972618,-6.52729661,30.74167278,0.73627351,1.23976590,-1.86748905

>  <Name>
ligand

>  <RI>
0

>  <Rbt.Current_Directory>
/home/itssahil/PROJECTS/Mol_Feturizer/New_Systems/rnas/3GX6

>  <Rbt.Executable>
rbdock ($Id: //depot/dev/client3/rdock/2013.1/src/exe/rbdock.cxx#4 $)

>  <Rbt.Library>
libRbt.so (2013.1, Build901 2013/11/27)

>  <Rbt.Parameter_File>
/export/apps/rDock/src/rDock_2013.1_src/data/scripts/dock_solv.prm

>  <Rbt.Receptor>
prm/pocket_docking_4.prm

>  <SCORE>
-20.7474

>  <SCORE.INTER>
-12.0546

>  <SCORE.INTER.CONST>
1

>  <SCORE.INTER.POLAR>
0

>  <SCORE.INTER.ROT>
7

>  <SCORE.INTER.SOLV>
17.047

>  <SCORE.INTER.VDW>
-21.9854

>  <SCORE.INTER.norm>
-0.446467

>  <SCORE.INTRA>
-8.70864

>  <SCORE.INTRA.DIHEDRAL>
-8.36656

>  <SCORE.INTRA.DIHEDRAL.0>
15.0182

>  <SCORE.INTRA.POLAR>
0

>  <SCORE.INTRA.POLAR.0>
0

>  <SCORE.INTRA.REPUL>
0

>  <SCORE.INTRA.REPUL.0>
0

>  <SCORE.INTRA.SOLV>
-0.989036

>  <SCORE.INTRA.SOLV.lig_0>
-47.9129

>  <SCORE.INTRA.VDW>
-4.03084

>  <SCORE.INTRA.VDW.0>
2.00851

>  <SCORE.INTRA.norm>
-0.322542

>  <SCORE.RESTR>
0.015857

>  <SCORE.RESTR.CAVITY>
0.015857

>  <SCORE.RESTR.norm>
0.000587295

>  <SCORE.SYSTEM>
0

>  <SCORE.SYSTEM.CONST>
0

>  <SCORE.SYSTEM.DIHEDRAL>
0

>  <SCORE.SYSTEM.SOLV>
0

>  <SCORE.SYSTEM.norm>
0

>  <SCORE.heavy>
27

>  <SCORE.norm>
-0.768422

>  <RMSD>
2.567

$$$$
ligand
 OpenBabel11021811483D
libRbt.so/2013.1/901 2013/11/27
 27 29  0  0  0  0  0  0  0  0999 V2000
  -13.5008   -8.2302   25.5429 N   0  0  0  0  0  0  0  0  0  0  0  0
  -13.3186   -8.9135   26.8207 C   0  0  2  0  0  0  0  0  0  0  0  0
  -12.5911  -10.2452   26.6555 C   0  0  0  0  0  0  0  0  0  0  0  0
  -11.6571  -10.5570   27.3976 O   0  0  0  0  0  0  0  0  0  0  0  0
  -14.6537   -9.0946   27.5367 C   0  0  0  0  0  0  0  0  0  0  0  0
  -14.5076   -9.5844   28.9691 C   0  0  0  0  0  0  0  0  0  0  0  0
  -13.6638   -8.4127   30.0607 S   0  0  2  0  0  0  0  0  0  0  0  0
  -12.0224   -9.1707   30.1494 C   0  0  0  0  0  0  0  0  0  0  0  0
  -14.3577   -8.8795   31.6697 C   0  0  0  0  0  0  0  0  0  0  0  0
  -13.5194   -8.2610   32.7792 C   0  0  1  0  0  0  0  0  0  0  0  0
  -13.1037   -6.9831   32.3601 O   0  0  0  0  0  0  0  0  0  0  0  0
  -14.2414   -8.0157   34.0908 C   0  0  1  0  0  0  0  0  0  0  0  0
  -14.0207   -9.0763   34.9937 O   0  0  0  0  0  0  0  0  0  0  0  0
  -13.5904   -6.7489   34.6077 C   0  0  1  0  0  0  0  0  0  0  0  0
  -12.7281   -7.0912   35.6647 O   0  0  0  0  0  0  0  0  0  0  0  0
  -12.7785   -6.1688   33.4575 C   0  0  2  0  0  0  0  0  0  0  0  0
  -12.9221  -11.0342   25.7703 O   0  0  0  0  0  0  0  0  0  0  0  0
  -16.8686   -3.0637   32.2724 N   0  0  0  0  0  0  0  0  0  0  0  0
  -16.8639   -4.4318   32.4599 C   0  0  0  0  0  0  0  0  0  0  0  0
  -15.6910   -5.0957   32.7662 N   0  0  0  0  0  0  0  0  0  0  0  0
  -14.5283   -4.4112   32.8818 C   0  0  0  0  0  0  0  0  0  0  0  0
  -14.5152   -3.0331   32.7050 C   0  0  0  0  0  0  0  0  0  0  0  0
  -15.6903   -2.3596   32.3943 C   0  0  0  0  0  0  0  0  0  0  0  0
  -15.6758   -1.0409   32.2157 N   0  0  0  0  0  0  0  0  0  0  0  0
  -13.2467   -2.6049   32.8813 N   0  0  0  0  0  0  0  0  0  0  0  0
  -12.4673   -3.6706   33.1804 C   0  0  0  0  0  0  0  0  0  0  0  0
  -13.2446   -4.7987   33.1856 N   0  0  0  0  0  0  0  0  0  0  0  0
  2  1  1  6  0  0  0
  2  3  1  0  0  0  0
  2  5  1  0  0  0  0
  3  4  1  0  0  0  0
  3 17  1  0  0  0  0
  5  6  1  0  0  0  0
  7  6  1  6  0  0  0
  7  8  1  0  0  0  0
  7  9  1  0  0  0  0
 10  9  1  6  0  0  0
 10 11  1  0  0  0  0
 10 12  1  0  0  0  0
 11 16  1  0  0  0  0
 12 13  1  1  0  0  0
 12 14  1  0  0  0  0
 14 15  1  1  0  0  0
 14 16  1  0  0  0  0
 16 27  1  6  0  0  0
 18 19  2  0  0  0  0
 18 23  1  0  0  0  0
 19 20  1  0  0  0  0
 20 21  2  0  0  0  0
 21 22  1  0  0  0  0
 21 27  1  0  0  0  0
 22 23  2  0  0  0  0
 22 25  1  0  0  0  0
 23 24  1  0  0  0  0
 25 26  2  0  0  0  0
 26 27  1  0  0  0  0
M  END
>  <CHROM.1>
133.48744274,-170.25195013,64.47007548,-102.51101820,165.42403733,37.01499659
56.54915241,-13.87089634,-6.89617898,31.22503286,1.04257360,1.21331686,-1.83504504

>  <Name>
ligand

>  <RI>
0

>  <Rbt.Current_Directory>
/home/itssahil/PROJECTS/Mol_Feturizer/New_Systems/rnas/3GX6

>  <Rbt.Executable>
rbdock ($Id: //depot/dev/client3/rdock/2013.1/src/exe/rbdock.cxx#4 $)

>  <Rbt.Library>
libRbt.so (2013.1, Build901 2013/11/27)

>  <Rbt.Parameter_File>
/export/apps/rDock/src/rDock_2013.1_src/data/scripts/dock_solv.prm

>  <Rbt.Receptor>
prm/pocket_docking_4.prm

>  <SCORE>
-22.5158

>  <SCORE.INTER>
-13.7583

>  <SCORE.INTER.CONST>
1

>  <SCORE.INTER.POLAR>
0

>  <SCORE.INTER.ROT>
7

>  <SCORE.INTER.SOLV>
14.8599

>  <SCORE.INTER.VDW>
-22.3922

>  <SCORE.INTER.norm>
-0.509568

>  <SCORE.INTRA>
-8.75749

>  <SCORE.INTRA.DIHEDRAL>
-6.9486

>  <SCORE.INTRA.DIHEDRAL.0>
15.0182

>  <SCORE.INTRA.POLAR>
0

>  <SCORE.INTRA.POLAR.0>
0

>  <SCORE.INTRA.REPUL>
0

>  <SCORE.INTRA.REPUL.0>
0

>  <SCORE.INTRA.SOLV>
-1.56284

>  <SCORE.INTRA.SOLV.lig_0>
-47.9129

>  <SCORE.INTRA.VDW>
-4.50177

>  <SCORE.INTRA.VDW.0>
2.00851

>  <SCORE.INTRA.norm>
-0.324352

>  <SCORE.RESTR>
0

>  <SCORE.RESTR.CAVITY>
0

>  <SCORE.RESTR.norm>
0

>  <SCORE.SYSTEM>
0

>  <SCORE.SYSTEM.CONST>
0

>  <SCORE.SYSTEM.DIHEDRAL>
0

>  <SCORE.SYSTEM.SOLV>
0

>  <SCORE.SYSTEM.norm>
0

>  <SCORE.heavy>
27

>  <SCORE.norm>
-0.83392

>  <RMSD>
2.575

$$$$
ligand
 OpenBabel11021811483D
libRbt.so/2013.1/901 2013/11/27
 27 29  0  0  0  0  0  0  0  0999 V2000
  -13.4254  -10.3808   27.4614 N   0  0  0  0  0  0  0  0  0  0  0  0
  -13.8174   -9.3683   28.4382 C   0  0  2  0  0  0  0  0  0  0  0  0
  -15.0883   -9.7613   29.1866 C   0  0  0  0  0  0  0  0  0  0  0  0
  -16.0983  -10.1247   28.5797 O   0  0  0  0  0  0  0  0  0  0  0  0
  -13.9621   -8.0010   27.7769 C   0  0  0  0  0  0  0  0  0  0  0  0
  -14.2462   -6.8807   28.7656 C   0  0  0  0  0  0  0  0  0  0  0  0
  -12.7808   -6.3020   29.6566 S   0  0  2  0  0  0  0  0  0  0  0  0
  -11.5309   -6.4354   28.3542 C   0  0  0  0  0  0  0  0  0  0  0  0
  -12.3956   -7.7567   30.6685 C   0  0  0  0  0  0  0  0  0  0  0  0
  -12.8046   -7.4911   32.1101 C   0  0  1  0  0  0  0  0  0  0  0  0
  -12.4969   -6.1524   32.4182 O   0  0  0  0  0  0  0  0  0  0  0  0
  -14.2867   -7.6196   32.4082 C   0  0  1  0  0  0  0  0  0  0  0  0
  -14.5877   -8.8962   32.9262 O   0  0  0  0  0  0  0  0  0  0  0  0
  -14.5153   -6.5613   33.4682 C   0  0  1  0  0  0  0  0  0  0  0  0
  -14.6686   -7.2019   34.7107 O   0  0  0  0  0  0  0  0  0  0  0  0
  -13.2677   -5.6888   33.4970 C   0  0  2  0  0  0  0  0  0  0  0  0
  -15.1301   -9.7175   30.4162 O   0  0  0  0  0  0  0  0  0  0  0  0
  -16.9567   -2.4137   31.6423 N   0  0  0  0  0  0  0  0  0  0  0  0
  -16.9983   -3.7922   31.7115 C   0  0  0  0  0  0  0  0  0  0  0  0
  -15.9322   -4.5030   32.2296 N   0  0  0  0  0  0  0  0  0  0  0  0
  -14.8291   -3.8544   32.6727 C   0  0  0  0  0  0  0  0  0  0  0  0
  -14.7727   -2.4671   32.6189 C   0  0  0  0  0  0  0  0  0  0  0  0
  -15.8399   -1.7465   32.0967 C   0  0  0  0  0  0  0  0  0  0  0  0
  -15.7818   -0.4183   32.0366 N   0  0  0  0  0  0  0  0  0  0  0  0
  -13.5815   -2.0810   33.1244 N   0  0  0  0  0  0  0  0  0  0  0  0
  -12.8965   -3.1834   33.5094 C   0  0  0  0  0  0  0  0  0  0  0  0
  -13.6543   -4.2918   33.2375 N   0  0  0  0  0  0  0  0  0  0  0  0
  2  1  1  6  0  0  0
  2  3  1  0  0  0  0
  2  5  1  0  0  0  0
  3  4  1  0  0  0  0
  3 17  1  0  0  0  0
  5  6  1  0  0  0  0
  7  6  1  6  0  0  0
  7  8  1  0  0  0  0
  7  9  1  0  0  0  0
 10  9  1  6  0  0  0
 10 11  1  0  0  0  0
 10 12  1  0  0  0  0
 11 16  1  0  0  0  0
 12 13  1  1  0  0  0
 12 14  1  0  0  0  0
 14 15  1  1  0  0  0
 14 16  1  0  0  0  0
 16 27  1  6  0  0  0
 18 19  2  0  0  0  0
 18 23  1  0  0  0  0
 19 20  1  0  0  0  0
 20 21  2  0  0  0  0
 21 22  1  0  0  0  0
 21 27  1  0  0  0  0
 22 23  2  0  0  0  0
 22 25  1  0  0  0  0
 23 24  1  0  0  0  0
 25 26  2  0  0  0  0
 26 27  1  0  0  0  0
M  END
>  <CHROM.1>
-50.41445532,-174.78338726,78.75504028,36.36694175,-105.11741573,-38.73349211
94.96677913,-14.22217012,-6.15644295,31.22215911,0.57720962,1.41741588,-1.62627125

>  <Name>
ligand

>  <RI>
0

>  <Rbt.Current_Directory>
/home/itssahil/PROJECTS/Mol_Feturizer/New_Systems/rnas/3GX6

>  <Rbt.Executable>
rbdock ($Id: //depot/dev/client3/rdock/2013.1/src/exe/rbdock.cxx#4 $)

>  <Rbt.Library>
libRbt.so (2013.1, Build901 2013/11/27)

>  <Rbt.Parameter_File>
/export/apps/rDock/src/rDock_2013.1_src/data/scripts/dock_solv.prm

>  <Rbt.Receptor>
prm/pocket_docking_4.prm

>  <SCORE>
-18.2655

>  <SCORE.INTER>
-12.2834

>  <SCORE.INTER.CONST>
1

>  <SCORE.INTER.POLAR>
0

>  <SCORE.INTER.ROT>
7

>  <SCORE.INTER.SOLV>
18.8156

>  <SCORE.INTER.VDW>
-22.7274

>  <SCORE.INTER.norm>
-0.454939

>  <SCORE.INTRA>
-5.98212

>  <SCORE.INTRA.DIHEDRAL>
-5.4556

>  <SCORE.INTRA.DIHEDRAL.0>
15.0182

>  <SCORE.INTRA.POLAR>
0

>  <SCORE.INTRA.POLAR.0>
0

>  <SCORE.INTRA.REPUL>
0

>  <SCORE.INTRA.REPUL.0>
0

>  <SCORE.INTRA.SOLV>
-0.817171

>  <SCORE.INTRA.SOLV.lig_0>
-47.9129

>  <SCORE.INTRA.VDW>
-2.84574

>  <SCORE.INTRA.VDW.0>
2.00851

>  <SCORE.INTRA.norm>
-0.22156

>  <SCORE.RESTR>
0

>  <SCORE.RESTR.CAVITY>
0

>  <SCORE.RESTR.norm>
0

>  <SCORE.SYSTEM>
0

>  <SCORE.SYSTEM.CONST>
0

>  <SCORE.SYSTEM.DIHEDRAL>
0

>  <SCORE.SYSTEM.SOLV>
0

>  <SCORE.SYSTEM.norm>
0

>  <SCORE.heavy>
27

>  <SCORE.norm>
-0.676499

>  <RMSD>
2.599

$$$$
ligand
 OpenBabel11021811483D
libRbt.so/2013.1/901 2013/11/27
 27 29  0  0  0  0  0  0  0  0999 V2000
  -14.9963   -8.8156   26.9913 N   0  0  0  0  0  0  0  0  0  0  0  0
  -14.2399   -8.9583   28.2324 C   0  0  2  0  0  0  0  0  0  0  0  0
  -12.8440   -9.5247   27.9864 C   0  0  0  0  0  0  0  0  0  0  0  0
  -12.5639  -10.6850   28.2954 O   0  0  0  0  0  0  0  0  0  0  0  0
  -15.0102   -9.7992   29.2460 C   0  0  0  0  0  0  0  0  0  0  0  0
  -16.0453   -9.0037   30.0262 C   0  0  0  0  0  0  0  0  0  0  0  0
  -15.3404   -7.9695   31.3337 S   0  0  2  0  0  0  0  0  0  0  0  0
  -14.4886   -6.7192   30.3398 C   0  0  0  0  0  0  0  0  0  0  0  0
  -13.9498   -8.9995   31.8759 C   0  0  0  0  0  0  0  0  0  0  0  0
  -13.3048   -8.3709   33.1028 C   0  0  1  0  0  0  0  0  0  0  0  0
  -12.7934   -7.1112   32.7377 O   0  0  0  0  0  0  0  0  0  0  0  0
  -14.2394   -8.0812   34.2623 C   0  0  1  0  0  0  0  0  0  0  0  0
  -14.2041   -9.1242   35.2107 O   0  0  0  0  0  0  0  0  0  0  0  0
  -13.6604   -6.8150   34.8601 C   0  0  1  0  0  0  0  0  0  0  0  0
  -13.0043   -7.1485   36.0585 O   0  0  0  0  0  0  0  0  0  0  0  0
  -12.6469   -6.2776   33.8588 C   0  0  2  0  0  0  0  0  0  0  0  0
  -11.9661   -8.8280   27.4768 O   0  0  0  0  0  0  0  0  0  0  0  0
  -16.5367   -3.0238   32.4245 N   0  0  0  0  0  0  0  0  0  0  0  0
  -16.6168   -4.3715   32.7148 C   0  0  0  0  0  0  0  0  0  0  0  0
  -15.4873   -5.0816   33.0755 N   0  0  0  0  0  0  0  0  0  0  0  0
  -14.2843   -4.4636   33.1443 C   0  0  0  0  0  0  0  0  0  0  0  0
  -14.1858   -3.1063   32.8641 C   0  0  0  0  0  0  0  0  0  0  0  0
  -15.3169   -2.3868   32.4982 C   0  0  0  0  0  0  0  0  0  0  0  0
  -15.2207   -1.0888   32.2205 N   0  0  0  0  0  0  0  0  0  0  0  0
  -12.8931   -2.7453   33.0132 N   0  0  0  0  0  0  0  0  0  0  0  0
  -12.1813   -3.8315   33.3953 C   0  0  0  0  0  0  0  0  0  0  0  0
  -13.0271   -4.9057   33.4822 N   0  0  0  0  0  0  0  0  0  0  0  0
  2  1  1  6  0  0  0
  2  3  1  0  0  0  0
  2  5  1  0  0  0  0
  3  4  1  0  0  0  0
  3 17  1  0  0  0  0
  5  6  1  0  0  0  0
  7  6  1  6  0  0  0
  7  8  1  0  0  0  0
  7  9  1  0  0  0  0
 10  9  1  6  0  0  0
 10 11  1  0  0  0  0
 10 12  1  0  0  0  0
 11 16  1  0  0  0  0
 12 13  1  1  0  0  0
 12 14  1  0  0  0  0
 14 15  1  1  0  0  0
 14 16  1  0  0  0  0
 16 27  1  6  0  0  0
 18 19  2  0  0  0  0
 18 23  1  0  0  0  0
 19 20  1  0  0  0  0
 20 21  2  0  0  0  0
 21 22  1  0  0  0  0
 21 27  1  0  0  0  0
 22 23  2  0  0  0  0
 22 25  1  0  0  0  0
 23 24  1  0  0  0  0
 25 26  2  0  0  0  0
 26 27  1  0  0  0  0
M  END
>  <CHROM.1>
-106.82400761,-82.69302118,-76.79761727,69.57153677,-173.52186314,-62.64633608
67.24705880,-14.14238974,-6.72699222,31.83200636,1.32101703,1.29444572,-2.19127695

>  <Name>
ligand

>  <RI>
0

>  <Rbt.Current_Directory>
/home/itssahil/PROJECTS/Mol_Feturizer/New_Systems/rnas/3GX6

>  <Rbt.Executable>
rbdock ($Id: //depot/dev/client3/rdock/2013.1/src/exe/rbdock.cxx#4 $)

>  <Rbt.Library>
libRbt.so (2013.1, Build901 2013/11/27)

>  <Rbt.Parameter_File>
/export/apps/rDock/src/rDock_2013.1_src/data/scripts/dock_solv.prm

>  <Rbt.Receptor>
prm/pocket_docking_4.prm

>  <SCORE>
-20.8274

>  <SCORE.INTER>
-13.3518

>  <SCORE.INTER.CONST>
1

>  <SCORE.INTER.POLAR>
0

>  <SCORE.INTER.ROT>
7

>  <SCORE.INTER.SOLV>
15.5706

>  <SCORE.INTER.VDW>
-22.3581

>  <SCORE.INTER.norm>
-0.494511

>  <SCORE.INTRA>
-7.4756

>  <SCORE.INTRA.DIHEDRAL>
-7.46896

>  <SCORE.INTRA.DIHEDRAL.0>
15.0182

>  <SCORE.INTRA.POLAR>
0

>  <SCORE.INTRA.POLAR.0>
0

>  <SCORE.INTRA.REPUL>
0

>  <SCORE.INTRA.REPUL.0>
0

>  <SCORE.INTRA.SOLV>
-0.253239

>  <SCORE.INTRA.SOLV.lig_0>
-47.9129

>  <SCORE.INTRA.VDW>
-3.6145

>  <SCORE.INTRA.VDW.0>
2.00851

>  <SCORE.INTRA.norm>
-0.276874

>  <SCORE.RESTR>
0

>  <SCORE.RESTR.CAVITY>
0

>  <SCORE.RESTR.norm>
0

>  <SCORE.SYSTEM>
0

>  <SCORE.SYSTEM.CONST>
0

>  <SCORE.SYSTEM.DIHEDRAL>
0

>  <SCORE.SYSTEM.SOLV>
0

>  <SCORE.SYSTEM.norm>
0

>  <SCORE.heavy>
27

>  <SCORE.norm>
-0.771385

>  <RMSD>
2.609

$$$$
ligand
 OpenBabel11021811483D
libRbt.so/2013.1/901 2013/11/27
 27 29  0  0  0  0  0  0  0  0999 V2000
  -13.8066   -6.7239   25.4937 N   0  0  0  0  0  0  0  0  0  0  0  0
  -14.6984   -6.0299   26.4189 C   0  0  2  0  0  0  0  0  0  0  0  0
  -13.9694   -5.5788   27.6818 C   0  0  0  0  0  0  0  0  0  0  0  0
  -14.5639   -4.9800   28.5808 O   0  0  0  0  0  0  0  0  0  0  0  0
  -15.9117   -6.8917   26.7554 C   0  0  0  0  0  0  0  0  0  0  0  0
  -15.5447   -8.2866   27.2377 C   0  0  0  0  0  0  0  0  0  0  0  0
  -14.7874   -8.3169   28.8815 S   0  0  2  0  0  0  0  0  0  0  0  0
  -14.2157  -10.0331   28.9477 C   0  0  0  0  0  0  0  0  0  0  0  0
  -16.2594   -8.3923   29.9379 C   0  0  0  0  0  0  0  0  0  0  0  0
  -15.8758   -8.0263   31.3645 C   0  0  1  0  0  0  0  0  0  0  0  0
  -15.4415   -6.6873   31.3766 O   0  0  0  0  0  0  0  0  0  0  0  0
  -17.0014   -8.0709   32.3808 C   0  0  1  0  0  0  0  0  0  0  0  0
  -17.0092   -9.3009   33.0705 O   0  0  0  0  0  0  0  0  0  0  0  0
  -16.6491   -6.9444   33.3309 C   0  0  1  0  0  0  0  0  0  0  0  0
  -16.1552   -7.5052   34.5222 O   0  0  0  0  0  0  0  0  0  0  0  0
  -15.5520   -6.1285   32.6605 C   0  0  2  0  0  0  0  0  0  0  0  0
  -12.7669   -5.8012   27.8242 O   0  0  0  0  0  0  0  0  0  0  0  0
  -14.2299   -1.1636   31.4869 N   0  0  0  0  0  0  0  0  0  0  0  0
  -13.4237   -2.2847   31.4782 C   0  0  0  0  0  0  0  0  0  0  0  0
  -13.9361   -3.5223   31.8188 N   0  0  0  0  0  0  0  0  0  0  0  0
  -15.2376   -3.6499   32.1705 C   0  0  0  0  0  0  0  0  0  0  0  0
  -16.0661   -2.5345   32.1767 C   0  0  0  0  0  0  0  0  0  0  0  0
  -15.5568   -1.2868   31.8380 C   0  0  0  0  0  0  0  0  0  0  0  0
  -16.3483   -0.2170   31.8532 N   0  0  0  0  0  0  0  0  0  0  0  0
  -17.2993   -2.9366   32.5521 N   0  0  0  0  0  0  0  0  0  0  0  0
  -17.2731   -4.2733   32.7648 C   0  0  0  0  0  0  0  0  0  0  0  0
  -16.0036   -4.7327   32.5326 N   0  0  0  0  0  0  0  0  0  0  0  0
  2  1  1  6  0  0  0
  2  3  1  0  0  0  0
  2  5  1  0  0  0  0
  3  4  1  0  0  0  0
  3 17  1  0  0  0  0
  5  6  1  0  0  0  0
  7  6  1  6  0  0  0
  7  8  1  0  0  0  0
  7  9  1  0  0  0  0
 10  9  1  6  0  0  0
 10 11  1  0  0  0  0
 10 12  1  0  0  0  0
 11 16  1  0  0  0  0
 12 13  1  1  0  0  0
 12 14  1  0  0  0  0
 14 15  1  1  0  0  0
 14 16  1  0  0  0  0
 16 27  1  6  0  0  0
 18 19  2  0  0  0  0
 18 23  1  0  0  0  0
 19 20  1  0  0  0  0
 20 21  2  0  0  0  0
 21 22  1  0  0  0  0
 21 27  1  0  0  0  0
 22 23  2  0  0  0  0
 22 25  1  0  0  0  0
 23 24  1  0  0  0  0
 25 26  2  0  0  0  0
 26 27  1  0  0  0  0
M  END
>  <CHROM.1>
-179.70695430,52.37576539,70.29917062,-169.39111904,-163.83601229,64.24164757
-77.52451413,-15.35284282,-5.79070190,30.53047489,-1.21091907,1.18357451
0.35737094

>  <Name>
ligand

>  <RI>
0

>  <Rbt.Current_Directory>
/home/itssahil/PROJECTS/Mol_Feturizer/New_Systems/rnas/3GX6

>  <Rbt.Executable>
rbdock ($Id: //depot/dev/client3/rdock/2013.1/src/exe/rbdock.cxx#4 $)

>  <Rbt.Library>
libRbt.so (2013.1, Build901 2013/11/27)

>  <Rbt.Parameter_File>
/export/apps/rDock/src/rDock_2013.1_src/data/scripts/dock_solv.prm

>  <Rbt.Receptor>
prm/pocket_docking_3.prm

>  <SCORE>
-18.6351

>  <SCORE.INTER>
-9.3695

>  <SCORE.INTER.CONST>
1

>  <SCORE.INTER.POLAR>
0

>  <SCORE.INTER.ROT>
7

>  <SCORE.INTER.SOLV>
18.276

>  <SCORE.INTER.VDW>
-20.605

>  <SCORE.INTER.norm>
-0.347018

>  <SCORE.INTRA>
-9.26559

>  <SCORE.INTRA.DIHEDRAL>
-8.5809

>  <SCORE.INTRA.DIHEDRAL.0>
15.0182

>  <SCORE.INTRA.POLAR>
0

>  <SCORE.INTRA.POLAR.0>
0

>  <SCORE.INTRA.REPUL>
0

>  <SCORE.INTRA.REPUL.0>
0

>  <SCORE.INTRA.SOLV>
-0.411625

>  <SCORE.INTRA.SOLV.lig_0>
-47.9129

>  <SCORE.INTRA.VDW>
-4.76932

>  <SCORE.INTRA.VDW.0>
2.00851

>  <SCORE.INTRA.norm>
-0.34317

>  <SCORE.RESTR>
0

>  <SCORE.RESTR.CAVITY>
0

>  <SCORE.RESTR.norm>
0

>  <SCORE.SYSTEM>
0

>  <SCORE.SYSTEM.CONST>
0

>  <SCORE.SYSTEM.DIHEDRAL>
0

>  <SCORE.SYSTEM.SOLV>
0

>  <SCORE.SYSTEM.norm>
0

>  <SCORE.heavy>
27

>  <SCORE.norm>
-0.690188

>  <RMSD>
2.636

$$$$
ligand
 OpenBabel11021811483D
libRbt.so/2013.1/901 2013/11/27
 27 29  0  0  0  0  0  0  0  0999 V2000
  -13.3362   -4.8788   29.4366 N   0  0  0  0  0  0  0  0  0  0  0  0
  -12.3188   -5.9190   29.5624 C   0  0  2  0  0  0  0  0  0  0  0  0
  -11.5054   -6.0777   28.2805 C   0  0  0  0  0  0  0  0  0  0  0  0
  -12.0589   -6.1793   27.1834 O   0  0  0  0  0  0  0  0  0  0  0  0
  -12.9438   -7.2431   29.9914 C   0  0  0  0  0  0  0  0  0  0  0  0
  -13.9896   -7.7598   29.0155 C   0  0  0  0  0  0  0  0  0  0  0  0
  -14.7633   -9.3141   29.5271 S   0  0  2  0  0  0  0  0  0  0  0  0
  -15.4430   -9.8780   27.9470 C   0  0  0  0  0  0  0  0  0  0  0  0
  -16.2548   -8.7003   30.3561 C   0  0  0  0  0  0  0  0  0  0  0  0
  -15.8999   -8.2532   31.7670 C   0  0  1  0  0  0  0  0  0  0  0  0
  -15.4270   -6.9287   31.7059 O   0  0  0  0  0  0  0  0  0  0  0  0
  -17.0538   -8.2007   32.7506 C   0  0  1  0  0  0  0  0  0  0  0  0
  -17.1166   -9.3827   33.5172 O   0  0  0  0  0  0  0  0  0  0  0  0
  -16.6948   -7.0250   33.6364 C   0  0  1  0  0  0  0  0  0  0  0  0
  -16.2505   -7.5207   34.8752 O   0  0  0  0  0  0  0  0  0  0  0  0
  -15.5563   -6.2848   32.9475 C   0  0  2  0  0  0  0  0  0  0  0  0
  -10.2753   -6.1126   28.3194 O   0  0  0  0  0  0  0  0  0  0  0  0
  -14.0289   -1.4127   31.6421 N   0  0  0  0  0  0  0  0  0  0  0  0
  -13.2514   -2.5488   31.7509 C   0  0  0  0  0  0  0  0  0  0  0  0
  -13.8182   -3.7572   32.1098 N   0  0  0  0  0  0  0  0  0  0  0  0
  -15.1456   -3.8407   32.3643 C   0  0  0  0  0  0  0  0  0  0  0  0
  -15.9451   -2.7100   32.2515 C   0  0  0  0  0  0  0  0  0  0  0  0
  -15.3814   -1.4913   31.8937 C   0  0  0  0  0  0  0  0  0  0  0  0
  -16.1458   -0.4064   31.7951 N   0  0  0  0  0  0  0  0  0  0  0  0
  -17.2130   -3.0679   32.5483 N   0  0  0  0  0  0  0  0  0  0  0  0
  -17.2353   -4.3925   32.8268 C   0  0  0  0  0  0  0  0  0  0  0  0
  -15.9630   -4.8884   32.7173 N   0  0  0  0  0  0  0  0  0  0  0  0
  2  1  1  6  0  0  0
  2  3  1  0  0  0  0
  2  5  1  0  0  0  0
  3  4  1  0  0  0  0
  3 17  1  0  0  0  0
  5  6  1  0  0  0  0
  7  6  1  6  0  0  0
  7  8  1  0  0  0  0
  7  9  1  0  0  0  0
 10  9  1  6  0  0  0
 10 11  1  0  0  0  0
 10 12  1  0  0  0  0
 11 16  1  0  0  0  0
 12 13  1  1  0  0  0
 12 14  1  0  0  0  0
 14 15  1  1  0  0  0
 14 16  1  0  0  0  0
 16 27  1  6  0  0  0
 18 19  2  0  0  0  0
 18 23  1  0  0  0  0
 19 20  1  0  0  0  0
 20 21  2  0  0  0  0
 21 22  1  0  0  0  0
 21 27  1  0  0  0  0
 22 23  2  0  0  0  0
 22 25  1  0  0  0  0
 23 24  1  0  0  0  0
 25 26  2  0  0  0  0
 26 27  1  0  0  0  0
M  END
>  <CHROM.1>
-48.79975832,59.62974469,-178.87937715,-161.07977173,-80.49536559,84.75482553
-80.51183579,-14.82887231,-5.97624039,31.10037950,-1.22968078,0.79592500
0.25568778

>  <Name>
ligand

>  <RI>
0

>  <Rbt.Current_Directory>
/home/itssahil/PROJECTS/Mol_Feturizer/New_Systems/rnas/3GX6

>  <Rbt.Executable>
rbdock ($Id: //depot/dev/client3/rdock/2013.1/src/exe/rbdock.cxx#4 $)

>  <Rbt.Library>
libRbt.so (2013.1, Build901 2013/11/27)

>  <Rbt.Parameter_File>
/export/apps/rDock/src/rDock_2013.1_src/data/scripts/dock_solv.prm

>  <Rbt.Receptor>
prm/pocket_docking_6.prm

>  <SCORE>
-21.0063

>  <SCORE.INTER>
-12.4374

>  <SCORE.INTER.CONST>
1

>  <SCORE.INTER.POLAR>
0

>  <SCORE.INTER.ROT>
7

>  <SCORE.INTER.SOLV>
16.8016

>  <SCORE.INTER.VDW>
-22.1588

>  <SCORE.INTER.norm>
-0.460643

>  <SCORE.INTRA>
-8.56895

>  <SCORE.INTRA.DIHEDRAL>
-7.62529

>  <SCORE.INTRA.DIHEDRAL.0>
15.0182

>  <SCORE.INTRA.POLAR>
0

>  <SCORE.INTRA.POLAR.0>
0

>  <SCORE.INTRA.REPUL>
0

>  <SCORE.INTRA.REPUL.0>
0

>  <SCORE.INTRA.SOLV>
0.785625

>  <SCORE.INTRA.SOLV.lig_0>
-47.9129

>  <SCORE.INTRA.VDW>
-5.14912

>  <SCORE.INTRA.VDW.0>
2.00851

>  <SCORE.INTRA.norm>
-0.317369

>  <SCORE.RESTR>
0

>  <SCORE.RESTR.CAVITY>
0

>  <SCORE.RESTR.norm>
0

>  <SCORE.SYSTEM>
0

>  <SCORE.SYSTEM.CONST>
0

>  <SCORE.SYSTEM.DIHEDRAL>
0

>  <SCORE.SYSTEM.SOLV>
0

>  <SCORE.SYSTEM.norm>
0

>  <SCORE.heavy>
27

>  <SCORE.norm>
-0.778011

>  <RMSD>
2.675

$$$$
ligand
 OpenBabel11021811483D
libRbt.so/2013.1/901 2013/11/27
 27 29  0  0  0  0  0  0  0  0999 V2000
  -18.3089  -10.1713   28.9092 N   0  0  0  0  0  0  0  0  0  0  0  0
  -17.1784   -9.4093   28.3854 C   0  0  2  0  0  0  0  0  0  0  0  0
  -17.0482   -9.5523   26.8713 C   0  0  0  0  0  0  0  0  0  0  0  0
  -17.6172  -10.4637   26.2664 O   0  0  0  0  0  0  0  0  0  0  0  0
  -15.8843   -9.7985   29.0937 C   0  0  0  0  0  0  0  0  0  0  0  0
  -14.7680   -8.7819   28.9107 C   0  0  0  0  0  0  0  0  0  0  0  0
  -14.4750   -7.7467   30.3662 S   0  0  2  0  0  0  0  0  0  0  0  0
  -13.3991   -6.4769   29.6545 C   0  0  0  0  0  0  0  0  0  0  0  0
  -13.2758   -8.7598   31.2740 C   0  0  0  0  0  0  0  0  0  0  0  0
  -13.0591   -8.1658   32.6584 C   0  0  1  0  0  0  0  0  0  0  0  0
  -12.6815   -6.8181   32.5078 O   0  0  0  0  0  0  0  0  0  0  0  0
  -14.2829   -8.1207   33.5541 C   0  0  1  0  0  0  0  0  0  0  0  0
  -14.3149   -9.2333   34.4200 O   0  0  0  0  0  0  0  0  0  0  0  0
  -14.0771   -6.8481   34.3504 C   0  0  1  0  0  0  0  0  0  0  0  0
  -13.6897   -7.1981   35.6562 O   0  0  0  0  0  0  0  0  0  0  0  0
  -12.9484   -6.0818   33.6739 C   0  0  2  0  0  0  0  0  0  0  0  0
  -16.3648   -8.7590   26.2237 O   0  0  0  0  0  0  0  0  0  0  0  0
  -17.0891   -3.1618   32.2235 N   0  0  0  0  0  0  0  0  0  0  0  0
  -17.0598   -4.5100   32.5211 C   0  0  0  0  0  0  0  0  0  0  0  0
  -15.8764   -5.1243   32.8852 N   0  0  0  0  0  0  0  0  0  0  0  0
  -14.7275   -4.4104   32.9502 C   0  0  0  0  0  0  0  0  0  0  0  0
  -14.7393   -3.0511   32.6626 C   0  0  0  0  0  0  0  0  0  0  0  0
  -15.9250   -2.4277   32.2932 C   0  0  0  0  0  0  0  0  0  0  0  0
  -15.9342   -1.1277   32.0085 N   0  0  0  0  0  0  0  0  0  0  0  0
  -13.4801   -2.5857   32.8092 N   0  0  0  0  0  0  0  0  0  0  0  0
  -12.6826   -3.6086   33.1969 C   0  0  0  0  0  0  0  0  0  0  0  0
  -13.4385   -4.7473   33.2900 N   0  0  0  0  0  0  0  0  0  0  0  0
  2  1  1  1  0  0  0
  2  3  1  0  0  0  0
  2  5  1  0  0  0  0
  3  4  1  0  0  0  0
  3 17  1  0  0  0  0
  5  6  1  0  0  0  0
  7  6  1  6  0  0  0
  7  8  1  0  0  0  0
  7  9  1  0  0  0  0
 10  9  1  6  0  0  0
 10 11  1  0  0  0  0
 10 12  1  0  0  0  0
 11 16  1  0  0  0  0
 12 13  1  1  0  0  0
 12 14  1  0  0  0  0
 14 15  1  1  0  0  0
 14 16  1  0  0  0  0
 16 27  1  6  0  0  0
 18 19  2  0  0  0  0
 18 23  1  0  0  0  0
 19 20  1  0  0  0  0
 20 21  2  0  0  0  0
 21 22  1  0  0  0  0
 21 27  1  0  0  0  0
 22 23  2  0  0  0  0
 22 25  1  0  0  0  0
 23 24  1  0  0  0  0
 25 26  2  0  0  0  0
 26 27  1  0  0  0  0
M  END
>  <CHROM.1>
-17.06743791,-162.64384536,104.10008351,-167.81818302,-170.95171673,-54.87683908
83.09341461,-14.94315420,-6.71072834,31.37774743,2.08611371,0.96969917,-2.77913481

>  <Name>
ligand

>  <RI>
0

>  <Rbt.Current_Directory>
/home/itssahil/PROJECTS/Mol_Feturizer/New_Systems/rnas/3GX6

>  <Rbt.Executable>
rbdock ($Id: //depot/dev/client3/rdock/2013.1/src/exe/rbdock.cxx#4 $)

>  <Rbt.Library>
libRbt.so (2013.1, Build901 2013/11/27)

>  <Rbt.Parameter_File>
/export/apps/rDock/src/rDock_2013.1_src/data/scripts/dock_solv.prm

>  <Rbt.Receptor>
prm/pocket_docking_6.prm

>  <SCORE>
-20.5302

>  <SCORE.INTER>
-12.7217

>  <SCORE.INTER.CONST>
1

>  <SCORE.INTER.POLAR>
0

>  <SCORE.INTER.ROT>
7

>  <SCORE.INTER.SOLV>
18.3718

>  <SCORE.INTER.VDW>
-22.8717

>  <SCORE.INTER.norm>
-0.471174

>  <SCORE.INTRA>
-7.80855

>  <SCORE.INTRA.DIHEDRAL>
-4.10487

>  <SCORE.INTRA.DIHEDRAL.0>
15.0182

>  <SCORE.INTRA.POLAR>
0

>  <SCORE.INTRA.POLAR.0>
0

>  <SCORE.INTRA.REPUL>
0

>  <SCORE.INTRA.REPUL.0>
0

>  <SCORE.INTRA.SOLV>
-1.53229

>  <SCORE.INTRA.SOLV.lig_0>
-47.9129

>  <SCORE.INTRA.VDW>
-4.98997

>  <SCORE.INTRA.VDW.0>
2.00851

>  <SCORE.INTRA.norm>
-0.289206

>  <SCORE.RESTR>
0

>  <SCORE.RESTR.CAVITY>
0

>  <SCORE.RESTR.norm>
0

>  <SCORE.SYSTEM>
0

>  <SCORE.SYSTEM.CONST>
0

>  <SCORE.SYSTEM.DIHEDRAL>
0

>  <SCORE.SYSTEM.SOLV>
0

>  <SCORE.SYSTEM.norm>
0

>  <SCORE.heavy>
27

>  <SCORE.norm>
-0.760379

>  <RMSD>
2.741

$$$$
ligand
 OpenBabel11021811483D
libRbt.so/2013.1/901 2013/11/27
 27 29  0  0  0  0  0  0  0  0999 V2000
  -16.9624   -9.9336   26.5041 N   0  0  0  0  0  0  0  0  0  0  0  0
  -15.9828   -8.8620   26.3460 C   0  0  2  0  0  0  0  0  0  0  0  0
  -14.8117   -9.2868   25.4640 C   0  0  0  0  0  0  0  0  0  0  0  0
  -14.2517  -10.3729   25.6285 O   0  0  0  0  0  0  0  0  0  0  0  0
  -15.5020   -8.3590   27.7039 C   0  0  0  0  0  0  0  0  0  0  0  0
  -14.6215   -7.1224   27.6110 C   0  0  0  0  0  0  0  0  0  0  0  0
  -14.2524   -6.3647   29.2129 S   0  0  2  0  0  0  0  0  0  0  0  0
  -13.2962   -4.9227   28.6812 C   0  0  0  0  0  0  0  0  0  0  0  0
  -12.9385   -7.4587   29.8171 C   0  0  0  0  0  0  0  0  0  0  0  0
  -12.6959   -7.1873   31.2949 C   0  0  1  0  0  0  0  0  0  0  0  0
  -12.4700   -5.8077   31.4604 O   0  0  0  0  0  0  0  0  0  0  0  0
  -13.8576   -7.4969   32.2203 C   0  0  1  0  0  0  0  0  0  0  0  0
  -13.7187   -8.7785   32.7920 O   0  0  0  0  0  0  0  0  0  0  0  0
  -13.7338   -6.4332   33.2922 C   0  0  1  0  0  0  0  0  0  0  0  0
  -13.2292   -7.0342   34.4592 O   0  0  0  0  0  0  0  0  0  0  0  0
  -12.7362   -5.4035   32.7790 C   0  0  2  0  0  0  0  0  0  0  0  0
  -14.3993   -8.5465   24.5709 O   0  0  0  0  0  0  0  0  0  0  0  0
  -16.7289   -2.5024   30.9305 N   0  0  0  0  0  0  0  0  0  0  0  0
  -16.4645   -3.8370   30.6938 C   0  0  0  0  0  0  0  0  0  0  0  0
  -15.3617   -4.4469   31.2612 N   0  0  0  0  0  0  0  0  0  0  0  0
  -14.5223   -3.7399   32.0546 C   0  0  0  0  0  0  0  0  0  0  0  0
  -14.7770   -2.3983   32.3110 C   0  0  0  0  0  0  0  0  0  0  0  0
  -15.8824   -1.7781   31.7416 C   0  0  0  0  0  0  0  0  0  0  0  0
  -16.1209   -0.4906   31.9796 N   0  0  0  0  0  0  0  0  0  0  0  0
  -13.8031   -1.9403   33.1266 N   0  0  0  0  0  0  0  0  0  0  0  0
  -12.9551   -2.9587   33.4033 C   0  0  0  0  0  0  0  0  0  0  0  0
  -13.3853   -4.0821   32.7479 N   0  0  0  0  0  0  0  0  0  0  0  0
  2  1  1  1  0  0  0
  2  3  1  0  0  0  0
  2  5  1  0  0  0  0
  3  4  1  0  0  0  0
  3 17  1  0  0  0  0
  5  6  1  0  0  0  0
  7  6  1  6  0  0  0
  7  8  1  0  0  0  0
  7  9  1  0  0  0  0
 10  9  1  6  0  0  0
 10 11  1  0  0  0  0
 10 12  1  0  0  0  0
 11 16  1  0  0  0  0
 12 13  1  1  0  0  0
 12 14  1  0  0  0  0
 14 15  1  1  0  0  0
 14 16  1  0  0  0  0
 16 27  1  6  0  0  0
 18 19  2  0  0  0  0
 18 23  1  0  0  0  0
 19 20  1  0  0  0  0
 20 21  2  0  0  0  0
 21 22  1  0  0  0  0
 21 27  1  0  0  0  0
 22 23  2  0  0  0  0
 22 25  1  0  0  0  0
 23 24  1  0  0  0  0
 25 26  2  0  0  0  0
 26 27  1  0  0  0  0
M  END
>  <CHROM.1>
-46.30958247,-172.38012601,171.10176282,-177.00813952,-167.25433454,-52.91398554
54.75941839,-14.38608605,-5.95598306,30.27228171,1.70060682,1.04027339,-2.42341802

>  <Name>
ligand

>  <RI>
0

>  <Rbt.Current_Directory>
/home/itssahil/PROJECTS/Mol_Feturizer/New_Systems/rnas/3GX6

>  <Rbt.Executable>
rbdock ($Id: //depot/dev/client3/rdock/2013.1/src/exe/rbdock.cxx#4 $)

>  <Rbt.Library>
libRbt.so (2013.1, Build901 2013/11/27)

>  <Rbt.Parameter_File>
/export/apps/rDock/src/rDock_2013.1_src/data/scripts/dock_solv.prm

>  <Rbt.Receptor>
prm/pocket_docking_6.prm

>  <SCORE>
-19.1554

>  <SCORE.INTER>
-7.73112

>  <SCORE.INTER.CONST>
1

>  <SCORE.INTER.POLAR>
0

>  <SCORE.INTER.ROT>
7

>  <SCORE.INTER.SOLV>
18.9265

>  <SCORE.INTER.VDW>
-19.7296

>  <SCORE.INTER.norm>
-0.286338

>  <SCORE.INTRA>
-11.4243

>  <SCORE.INTRA.DIHEDRAL>
-9.58642

>  <SCORE.INTRA.DIHEDRAL.0>
15.0182

>  <SCORE.INTRA.POLAR>
0

>  <SCORE.INTRA.POLAR.0>
0

>  <SCORE.INTRA.REPUL>
0

>  <SCORE.INTRA.REPUL.0>
0

>  <SCORE.INTRA.SOLV>
-1.5416

>  <SCORE.INTRA.SOLV.lig_0>
-47.9129

>  <SCORE.INTRA.VDW>
-5.86028

>  <SCORE.INTRA.VDW.0>
2.00851

>  <SCORE.INTRA.norm>
-0.423122

>  <SCORE.RESTR>
0

>  <SCORE.RESTR.CAVITY>
0

>  <SCORE.RESTR.norm>
0

>  <SCORE.SYSTEM>
0

>  <SCORE.SYSTEM.CONST>
0

>  <SCORE.SYSTEM.DIHEDRAL>
0

>  <SCORE.SYSTEM.SOLV>
0

>  <SCORE.SYSTEM.norm>
0

>  <SCORE.heavy>
27

>  <SCORE.norm>
-0.70946

>  <RMSD>
2.757

$$$$
ligand
 OpenBabel11021811483D
libRbt.so/2013.1/901 2013/11/27
 27 29  0  0  0  0  0  0  0  0999 V2000
  -10.9954   -9.3162   24.8832 N   0  0  0  0  0  0  0  0  0  0  0  0
  -11.4704  -10.5465   25.5106 C   0  0  2  0  0  0  0  0  0  0  0  0
  -12.8615  -10.9364   25.0181 C   0  0  0  0  0  0  0  0  0  0  0  0
  -13.7106  -10.0792   24.7639 O   0  0  0  0  0  0  0  0  0  0  0  0
  -11.4311  -10.4324   27.0316 C   0  0  0  0  0  0  0  0  0  0  0  0
  -12.1136   -9.1801   27.5596 C   0  0  0  0  0  0  0  0  0  0  0  0
  -12.5073   -9.2502   29.3250 S   0  0  2  0  0  0  0  0  0  0  0  0
  -14.2546   -9.7174   29.2531 C   0  0  0  0  0  0  0  0  0  0  0  0
  -12.6280   -7.4848   29.7217 C   0  0  0  0  0  0  0  0  0  0  0  0
  -12.5531   -7.3006   31.2306 C   0  0  1  0  0  0  0  0  0  0  0  0
  -12.3349   -5.9362   31.4997 O   0  0  0  0  0  0  0  0  0  0  0  0
  -13.8156   -7.6434   31.9989 C   0  0  1  0  0  0  0  0  0  0  0  0
  -13.7547   -8.9571   32.5080 O   0  0  0  0  0  0  0  0  0  0  0  0
  -13.8050   -6.6436   33.1374 C   0  0  1  0  0  0  0  0  0  0  0  0
  -13.4424   -7.3170   34.3176 O   0  0  0  0  0  0  0  0  0  0  0  0
  -12.7460   -5.6025   32.8008 C   0  0  2  0  0  0  0  0  0  0  0  0
  -13.1645  -12.1204   24.8698 O   0  0  0  0  0  0  0  0  0  0  0  0
  -16.6729   -2.6282   30.9276 N   0  0  0  0  0  0  0  0  0  0  0  0
  -16.4253   -3.9647   30.6835 C   0  0  0  0  0  0  0  0  0  0  0  0
  -15.3386   -4.5954   31.2593 N   0  0  0  0  0  0  0  0  0  0  0  0
  -14.4985   -3.9071   32.0682 C   0  0  0  0  0  0  0  0  0  0  0  0
  -14.7365   -2.5639   32.3322 C   0  0  0  0  0  0  0  0  0  0  0  0
  -15.8257   -1.9229   31.7545 C   0  0  0  0  0  0  0  0  0  0  0  0
  -16.0480   -0.6339   31.9998 N   0  0  0  0  0  0  0  0  0  0  0  0
  -13.7658   -2.1266   33.1629 N   0  0  0  0  0  0  0  0  0  0  0  0
  -12.9363   -3.1596   33.4416 C   0  0  0  0  0  0  0  0  0  0  0  0
  -13.3751   -4.2714   32.7723 N   0  0  0  0  0  0  0  0  0  0  0  0
  2  1  1  6  0  0  0
  2  3  1  0  0  0  0
  2  5  1  0  0  0  0
  3  4  1  0  0  0  0
  3 17  1  0  0  0  0
  5  6  1  0  0  0  0
  7  6  1  6  0  0  0
  7  8  1  0  0  0  0
  7  9  1  0  0  0  0
 10  9  1  6  0  0  0
 10 11  1  0  0  0  0
 10 12  1  0  0  0  0
 11 16  1  0  0  0  0
 12 13  1  1  0  0  0
 12 14  1  0  0  0  0
 14 15  1  1  0  0  0
 14 16  1  0  0  0  0
 16 27  1  6  0  0  0
 18 19  2  0  0  0  0
 18 23  1  0  0  0  0
 19 20  1  0  0  0  0
 20 21  2  0  0  0  0
 21 22  1  0  0  0  0
 21 27  1  0  0  0  0
 22 23  2  0  0  0  0
 22 25  1  0  0  0  0
 23 24  1  0  0  0  0
 25 26  2  0  0  0  0
 26 27  1  0  0  0  0
M  END
>  <CHROM.1>
-35.97786432,50.98359682,163.11031285,-98.54222790,-163.58642561,166.49425564
61.25042709,-13.52329956,-6.84597234,30.12641043,1.03059687,1.10963160,-1.92420925

>  <Name>
ligand

>  <RI>
0

>  <Rbt.Current_Directory>
/home/itssahil/PROJECTS/Mol_Feturizer/New_Systems/rnas/3GX6

>  <Rbt.Executable>
rbdock ($Id: //depot/dev/client3/rdock/2013.1/src/exe/rbdock.cxx#4 $)

>  <Rbt.Library>
libRbt.so (2013.1, Build901 2013/11/27)

>  <Rbt.Parameter_File>
/export/apps/rDock/src/rDock_2013.1_src/data/scripts/dock_solv.prm

>  <Rbt.Receptor>
prm/pocket_docking_7.prm

>  <SCORE>
-21.5894

>  <SCORE.INTER>
-13.0175

>  <SCORE.INTER.CONST>
1

>  <SCORE.INTER.POLAR>
0

>  <SCORE.INTER.ROT>
7

>  <SCORE.INTER.SOLV>
15.1087

>  <SCORE.INTER.VDW>
-21.9812

>  <SCORE.INTER.norm>
-0.48213

>  <SCORE.INTRA>
-8.57193

>  <SCORE.INTRA.DIHEDRAL>
-6.05141

>  <SCORE.INTRA.DIHEDRAL.0>
15.0182

>  <SCORE.INTRA.POLAR>
0

>  <SCORE.INTRA.POLAR.0>
0

>  <SCORE.INTRA.REPUL>
0

>  <SCORE.INTRA.REPUL.0>
0

>  <SCORE.INTRA.SOLV>
-0.825236

>  <SCORE.INTRA.SOLV.lig_0>
-47.9129

>  <SCORE.INTRA.VDW>
-5.1336

>  <SCORE.INTRA.VDW.0>
2.00851

>  <SCORE.INTRA.norm>
-0.317479

>  <SCORE.RESTR>
0

>  <SCORE.RESTR.CAVITY>
0

>  <SCORE.RESTR.norm>
0

>  <SCORE.SYSTEM>
0

>  <SCORE.SYSTEM.CONST>
0

>  <SCORE.SYSTEM.DIHEDRAL>
0

>  <SCORE.SYSTEM.SOLV>
0

>  <SCORE.SYSTEM.norm>
0

>  <SCORE.heavy>
27

>  <SCORE.norm>
-0.799609

>  <RMSD>
3.048

$$$$
ligand
 OpenBabel11021811483D
libRbt.so/2013.1/901 2013/11/27
 27 29  0  0  0  0  0  0  0  0999 V2000
  -10.3761   -8.3163   28.5439 N   0  0  0  0  0  0  0  0  0  0  0  0
  -11.4618   -8.8115   29.3859 C   0  0  2  0  0  0  0  0  0  0  0  0
  -12.3930   -9.7487   28.6214 C   0  0  0  0  0  0  0  0  0  0  0  0
  -13.5237  -10.0049   29.0412 O   0  0  0  0  0  0  0  0  0  0  0  0
  -12.2322   -7.6555   30.0169 C   0  0  0  0  0  0  0  0  0  0  0  0
  -12.6282   -6.5792   29.0181 C   0  0  0  0  0  0  0  0  0  0  0  0
  -13.8357   -5.3935   29.6602 S   0  0  2  0  0  0  0  0  0  0  0  0
  -13.8579   -4.1853   28.3124 C   0  0  0  0  0  0  0  0  0  0  0  0
  -12.8388   -4.5235   30.9003 C   0  0  0  0  0  0  0  0  0  0  0  0
  -13.3202   -4.9052   32.2927 C   0  0  1  0  0  0  0  0  0  0  0  0
  -14.6929   -4.6069   32.3839 O   0  0  0  0  0  0  0  0  0  0  0  0
  -13.2266   -6.3790   32.6404 C   0  0  1  0  0  0  0  0  0  0  0  0
  -12.0427   -6.6539   33.3555 O   0  0  0  0  0  0  0  0  0  0  0  0
  -14.4338   -6.5978   33.5297 C   0  0  1  0  0  0  0  0  0  0  0  0
  -13.9912   -6.7173   34.8592 O   0  0  0  0  0  0  0  0  0  0  0  0
  -15.3109   -5.3602   33.3956 C   0  0  2  0  0  0  0  0  0  0  0  0
  -12.0282  -10.2728   27.5689 O   0  0  0  0  0  0  0  0  0  0  0  0
  -18.7747   -5.3941   29.4237 N   0  0  0  0  0  0  0  0  0  0  0  0
  -17.5043   -4.8530   29.4416 C   0  0  0  0  0  0  0  0  0  0  0  0
  -16.7226   -4.9308   30.5787 N   0  0  0  0  0  0  0  0  0  0  0  0
  -17.1963   -5.5363   31.6936 C   0  0  0  0  0  0  0  0  0  0  0  0
  -18.4688   -6.0941   31.6915 C   0  0  0  0  0  0  0  0  0  0  0  0
  -19.2611   -6.0171   30.5525 C   0  0  0  0  0  0  0  0  0  0  0  0
  -20.4836   -6.5431   30.5538 N   0  0  0  0  0  0  0  0  0  0  0  0
  -18.6864   -6.6341   32.9100 N   0  0  0  0  0  0  0  0  0  0  0  0
  -17.5821   -6.4469   33.6703 C   0  0  0  0  0  0  0  0  0  0  0  0
  -16.6478   -5.7687   32.9328 N   0  0  0  0  0  0  0  0  0  0  0  0
  2  1  1  6  0  0  0
  2  3  1  0  0  0  0
  2  5  1  0  0  0  0
  3  4  1  0  0  0  0
  3 17  1  0  0  0  0
  5  6  1  0  0  0  0
  7  6  1  6  0  0  0
  7  8  1  0  0  0  0
  7  9  1  0  0  0  0
 10  9  1  6  0  0  0
 10 11  1  0  0  0  0
 10 12  1  0  0  0  0
 11 16  1  0  0  0  0
 12 13  1  1  0  0  0
 12 14  1  0  0  0  0
 14 15  1  1  0  0  0
 14 16  1  0  0  0  0
 16 27  1  6  0  0  0
 18 19  2  0  0  0  0
 18 23  1  0  0  0  0
 19 20  1  0  0  0  0
 20 21  2  0  0  0  0
 21 22  1  0  0  0  0
 21 27  1  0  0  0  0
 22 23  2  0  0  0  0
 22 25  1  0  0  0  0
 23 24  1  0  0  0  0
 25 26  2  0  0  0  0
 26 27  1  0  0  0  0
M  END
>  <CHROM.1>
-162.04347363,48.67261908,167.44082417,172.25826645,-109.44130037,-56.49237288
3.63605987,-14.80011909,-6.45430342,30.92704807,0.48435223,0.21557553,-1.95661161

>  <Name>
ligand

>  <RI>
0

>  <Rbt.Current_Directory>
/home/itssahil/PROJECTS/Mol_Feturizer/New_Systems/rnas/3GX6

>  <Rbt.Executable>
rbdock ($Id: //depot/dev/client3/rdock/2013.1/src/exe/rbdock.cxx#4 $)

>  <Rbt.Library>
libRbt.so (2013.1, Build901 2013/11/27)

>  <Rbt.Parameter_File>
/export/apps/rDock/src/rDock_2013.1_src/data/scripts/dock_solv.prm

>  <Rbt.Receptor>
prm/pocket_docking_5.prm

>  <SCORE>
-17.5658

>  <SCORE.INTER>
-8.66523

>  <SCORE.INTER.CONST>
1

>  <SCORE.INTER.POLAR>
0

>  <SCORE.INTER.ROT>
7

>  <SCORE.INTER.SOLV>
17.0605

>  <SCORE.INTER.VDW>
-19.7303

>  <SCORE.INTER.norm>
-0.320934

>  <SCORE.INTRA>
-8.90054

>  <SCORE.INTRA.DIHEDRAL>
-7.34584

>  <SCORE.INTRA.DIHEDRAL.0>
15.0182

>  <SCORE.INTRA.POLAR>
0

>  <SCORE.INTRA.POLAR.0>
0

>  <SCORE.INTRA.REPUL>
0

>  <SCORE.INTRA.REPUL.0>
0

>  <SCORE.INTRA.SOLV>
-0.565613

>  <SCORE.INTRA.SOLV.lig_0>
-47.9129

>  <SCORE.INTRA.VDW>
-4.94481

>  <SCORE.INTRA.VDW.0>
2.00851

>  <SCORE.INTRA.norm>
-0.32965

>  <SCORE.RESTR>
0

>  <SCORE.RESTR.CAVITY>
0

>  <SCORE.RESTR.norm>
0

>  <SCORE.SYSTEM>
0

>  <SCORE.SYSTEM.CONST>
0

>  <SCORE.SYSTEM.DIHEDRAL>
0

>  <SCORE.SYSTEM.SOLV>
0

>  <SCORE.SYSTEM.norm>
0

>  <SCORE.heavy>
27

>  <SCORE.norm>
-0.650584

>  <RMSD>
4.250

$$$$
ligand
 OpenBabel11021811483D
libRbt.so/2013.1/901 2013/11/27
 27 29  0  0  0  0  0  0  0  0999 V2000
  -13.7941   -5.6463   27.1685 N   0  0  0  0  0  0  0  0  0  0  0  0
  -13.7129   -5.5549   28.6238 C   0  0  2  0  0  0  0  0  0  0  0  0
  -14.8566   -6.3012   29.3057 C   0  0  0  0  0  0  0  0  0  0  0  0
  -14.6412   -7.2884   30.0124 O   0  0  0  0  0  0  0  0  0  0  0  0
  -13.6520   -4.0988   29.0755 C   0  0  0  0  0  0  0  0  0  0  0  0
  -13.1840   -3.9331   30.5130 C   0  0  0  0  0  0  0  0  0  0  0  0
  -14.3220   -4.6268   31.7378 S   0  0  2  0  0  0  0  0  0  0  0  0
  -15.3303   -3.1705   32.1107 C   0  0  0  0  0  0  0  0  0  0  0  0
  -13.2517   -4.7012   33.1997 C   0  0  0  0  0  0  0  0  0  0  0  0
  -13.6649   -5.8809   34.0680 C   0  0  1  0  0  0  0  0  0  0  0  0
  -15.0633   -6.0214   33.9876 O   0  0  0  0  0  0  0  0  0  0  0  0
  -13.1212   -7.2324   33.6441 C   0  0  1  0  0  0  0  0  0  0  0  0
  -11.9560   -7.5567   34.3693 O   0  0  0  0  0  0  0  0  0  0  0  0
  -14.2431   -8.1825   34.0108 C   0  0  1  0  0  0  0  0  0  0  0  0
  -13.8645   -8.8945   35.1629 O   0  0  0  0  0  0  0  0  0  0  0  0
  -15.4632   -7.3259   34.3211 C   0  0  2  0  0  0  0  0  0  0  0  0
  -16.0218   -5.9321   29.1575 O   0  0  0  0  0  0  0  0  0  0  0  0
  -19.0126   -5.7831   30.7438 N   0  0  0  0  0  0  0  0  0  0  0  0
  -18.0674   -5.0136   31.3930 C   0  0  0  0  0  0  0  0  0  0  0  0
  -17.2079   -5.5834   32.3132 N   0  0  0  0  0  0  0  0  0  0  0  0
  -17.2857   -6.9060   32.5935 C   0  0  0  0  0  0  0  0  0  0  0  0
  -18.2246   -7.6977   31.9438 C   0  0  0  0  0  0  0  0  0  0  0  0
  -19.0937   -7.1309   31.0195 C   0  0  0  0  0  0  0  0  0  0  0  0
  -19.9993   -7.8876   30.4043 N   0  0  0  0  0  0  0  0  0  0  0  0
  -18.0845   -8.9623   32.3964 N   0  0  0  0  0  0  0  0  0  0  0  0
  -17.0745   -8.9905   33.2973 C   0  0  0  0  0  0  0  0  0  0  0  0
  -16.5671   -7.7251   33.4320 N   0  0  0  0  0  0  0  0  0  0  0  0
  2  1  1  6  0  0  0
  2  3  1  0  0  0  0
  2  5  1  0  0  0  0
  3  4  1  0  0  0  0
  3 17  1  0  0  0  0
  5  6  1  0  0  0  0
  7  6  1  6  0  0  0
  7  8  1  0  0  0  0
  7  9  1  0  0  0  0
 10  9  1  6  0  0  0
 10 11  1  0  0  0  0
 10 12  1  0  0  0  0
 11 16  1  0  0  0  0
 12 13  1  1  0  0  0
 12 14  1  0  0  0  0
 14 15  1  1  0  0  0
 14 16  1  0  0  0  0
 16 27  1  6  0  0  0
 18 19  2  0  0  0  0
 18 23  1  0  0  0  0
 19 20  1  0  0  0  0
 20 21  2  0  0  0  0
 21 22  1  0  0  0  0
 21 27  1  0  0  0  0
 22 23  2  0  0  0  0
 22 25  1  0  0  0  0
 23 24  1  0  0  0  0
 25 26  2  0  0  0  0
 26 27  1  0  0  0  0
M  END
>  <CHROM.1>
115.18731047,-163.98592712,-65.31549382,-92.40272972,-148.62100318,-35.12298990
-11.99293197,-15.45458404,-6.34794650,31.85909024,0.55727741,-0.33846809
-1.05734895

>  <Name>
ligand

>  <RI>
0

>  <Rbt.Current_Directory>
/home/itssahil/PROJECTS/Mol_Feturizer/New_Systems/rnas/3GX6

>  <Rbt.Executable>
rbdock ($Id: //depot/dev/client3/rdock/2013.1/src/exe/rbdock.cxx#4 $)

>  <Rbt.Library>
libRbt.so (2013.1, Build901 2013/11/27)

>  <Rbt.Parameter_File>
/export/apps/rDock/src/rDock_2013.1_src/data/scripts/dock_solv.prm

>  <Rbt.Receptor>
prm/pocket_docking_6.prm

>  <SCORE>
-17.7138

>  <SCORE.INTER>
-8.29316

>  <SCORE.INTER.CONST>
1

>  <SCORE.INTER.POLAR>
0

>  <SCORE.INTER.ROT>
7

>  <SCORE.INTER.SOLV>
8.96396

>  <SCORE.INTER.VDW>
-16.7834

>  <SCORE.INTER.norm>
-0.307154

>  <SCORE.INTRA>
-9.42068

>  <SCORE.INTRA.DIHEDRAL>
-4.10357

>  <SCORE.INTRA.DIHEDRAL.0>
15.0182

>  <SCORE.INTRA.POLAR>
0

>  <SCORE.INTRA.POLAR.0>
0

>  <SCORE.INTRA.REPUL>
0

>  <SCORE.INTRA.REPUL.0>
0

>  <SCORE.INTRA.SOLV>
-1.43591

>  <SCORE.INTRA.SOLV.lig_0>
-47.9129

>  <SCORE.INTRA.VDW>
-6.65094

>  <SCORE.INTRA.VDW.0>
2.00851

>  <SCORE.INTRA.norm>
-0.348914

>  <SCORE.RESTR>
0

>  <SCORE.RESTR.CAVITY>
0

>  <SCORE.RESTR.norm>
0

>  <SCORE.SYSTEM>
0

>  <SCORE.SYSTEM.CONST>
0

>  <SCORE.SYSTEM.DIHEDRAL>
0

>  <SCORE.SYSTEM.SOLV>
0

>  <SCORE.SYSTEM.norm>
0

>  <SCORE.heavy>
27

>  <SCORE.norm>
-0.656068

>  <RMSD>
4.359

$$$$
ligand
 OpenBabel11021811483D
libRbt.so/2013.1/901 2013/11/27
 27 29  0  0  0  0  0  0  0  0999 V2000
  -10.3750   -8.0032   27.9368 N   0  0  0  0  0  0  0  0  0  0  0  0
  -11.4954   -8.5859   28.6704 C   0  0  2  0  0  0  0  0  0  0  0  0
  -11.9357   -9.9194   28.0722 C   0  0  0  0  0  0  0  0  0  0  0  0
  -11.4217  -10.3548   27.0395 O   0  0  0  0  0  0  0  0  0  0  0  0
  -12.6598   -7.6037   28.7563 C   0  0  0  0  0  0  0  0  0  0  0  0
  -12.3746   -6.4080   29.6518 C   0  0  0  0  0  0  0  0  0  0  0  0
  -13.7667   -5.2615   29.8072 S   0  0  2  0  0  0  0  0  0  0  0  0
  -13.5807   -4.3105   28.2783 C   0  0  0  0  0  0  0  0  0  0  0  0
  -13.1164   -4.0939   31.0328 C   0  0  0  0  0  0  0  0  0  0  0  0
  -13.4417   -4.5976   32.4317 C   0  0  1  0  0  0  0  0  0  0  0  0
  -14.8313   -4.4897   32.6291 O   0  0  0  0  0  0  0  0  0  0  0  0
  -13.1321   -6.0596   32.6932 C   0  0  1  0  0  0  0  0  0  0  0  0
  -11.8737   -6.2053   33.3128 O   0  0  0  0  0  0  0  0  0  0  0  0
  -14.2328   -6.4768   33.6473 C   0  0  1  0  0  0  0  0  0  0  0  0
  -13.6831   -6.5948   34.9364 O   0  0  0  0  0  0  0  0  0  0  0  0
  -15.2709   -5.3628   33.6378 C   0  0  2  0  0  0  0  0  0  0  0  0
  -12.8204  -10.5855   28.6100 O   0  0  0  0  0  0  0  0  0  0  0  0
  -18.8263   -5.9591   29.7935 N   0  0  0  0  0  0  0  0  0  0  0  0
  -17.6161   -5.2963   29.7393 C   0  0  0  0  0  0  0  0  0  0  0  0
  -16.7983   -5.2331   30.8517 N   0  0  0  0  0  0  0  0  0  0  0  0
  -17.1773   -5.8181   32.0127 C   0  0  0  0  0  0  0  0  0  0  0  0
  -18.3877   -6.4967   32.0837 C   0  0  0  0  0  0  0  0  0  0  0  0
  -19.2159   -6.5619   30.9699 C   0  0  0  0  0  0  0  0  0  0  0  0
  -20.3795   -7.2038   31.0408 N   0  0  0  0  0  0  0  0  0  0  0  0
  -18.5156   -6.9857   33.3359 N   0  0  0  0  0  0  0  0  0  0  0  0
  -17.4140   -6.6490   34.0472 C   0  0  0  0  0  0  0  0  0  0  0  0
  -16.5733   -5.9254   33.2432 N   0  0  0  0  0  0  0  0  0  0  0  0
  2  1  1  6  0  0  0
  2  3  1  0  0  0  0
  2  5  1  0  0  0  0
  3  4  1  0  0  0  0
  3 17  1  0  0  0  0
  5  6  1  0  0  0  0
  7  6  1  6  0  0  0
  7  8  1  0  0  0  0
  7  9  1  0  0  0  0
 10  9  1  6  0  0  0
 10 11  1  0  0  0  0
 10 12  1  0  0  0  0
 11 16  1  0  0  0  0
 12 13  1  1  0  0  0
 12 14  1  0  0  0  0
 14 15  1  1  0  0  0
 14 16  1  0  0  0  0
 16 27  1  6  0  0  0
 18 19  2  0  0  0  0
 18 23  1  0  0  0  0
 19 20  1  0  0  0  0
 20 21  2  0  0  0  0
 21 22  1  0  0  0  0
 21 27  1  0  0  0  0
 22 23  2  0  0  0  0
 22 25  1  0  0  0  0
 23 24  1  0  0  0  0
 25 26  2  0  0  0  0
 26 27  1  0  0  0  0
M  END
>  <CHROM.1>
-4.29241060,-69.30720112,-178.08519039,-81.15743984,-88.18288415,-69.47160712
10.26941923,-14.69814572,-6.51615168,30.97043070,0.65028905,0.00428493,-2.11138386

>  <Name>
ligand

>  <RI>
0

>  <Rbt.Current_Directory>
/home/itssahil/PROJECTS/Mol_Feturizer/New_Systems/rnas/3GX6

>  <Rbt.Executable>
rbdock ($Id: //depot/dev/client3/rdock/2013.1/src/exe/rbdock.cxx#4 $)

>  <Rbt.Library>
libRbt.so (2013.1, Build901 2013/11/27)

>  <Rbt.Parameter_File>
/export/apps/rDock/src/rDock_2013.1_src/data/scripts/dock_solv.prm

>  <Rbt.Receptor>
prm/pocket_docking_6.prm

>  <SCORE>
-19.9817

>  <SCORE.INTER>
-9.78282

>  <SCORE.INTER.CONST>
1

>  <SCORE.INTER.POLAR>
0

>  <SCORE.INTER.ROT>
7

>  <SCORE.INTER.SOLV>
13.0114

>  <SCORE.INTER.VDW>
-19.1257

>  <SCORE.INTER.norm>
-0.362327

>  <SCORE.INTRA>
-10.1989

>  <SCORE.INTRA.DIHEDRAL>
-9.59893

>  <SCORE.INTRA.DIHEDRAL.0>
15.0182

>  <SCORE.INTRA.POLAR>
0

>  <SCORE.INTRA.POLAR.0>
0

>  <SCORE.INTRA.REPUL>
0

>  <SCORE.INTRA.REPUL.0>
0

>  <SCORE.INTRA.SOLV>
-0.821909

>  <SCORE.INTRA.SOLV.lig_0>
-47.9129

>  <SCORE.INTRA.VDW>
-4.98844

>  <SCORE.INTRA.VDW.0>
2.00851

>  <SCORE.INTRA.norm>
-0.377736

>  <SCORE.RESTR>
0

>  <SCORE.RESTR.CAVITY>
0

>  <SCORE.RESTR.norm>
0

>  <SCORE.SYSTEM>
0

>  <SCORE.SYSTEM.CONST>
0

>  <SCORE.SYSTEM.DIHEDRAL>
0

>  <SCORE.SYSTEM.SOLV>
0

>  <SCORE.SYSTEM.norm>
0

>  <SCORE.heavy>
27

>  <SCORE.norm>
-0.740062

>  <RMSD>
4.383

$$$$
ligand
 OpenBabel11021811483D
libRbt.so/2013.1/901 2013/11/27
 27 29  0  0  0  0  0  0  0  0999 V2000
  -14.9025   -4.3190   26.8537 N   0  0  0  0  0  0  0  0  0  0  0  0
  -13.9609   -4.3646   27.9691 C   0  0  2  0  0  0  0  0  0  0  0  0
  -13.1925   -5.6828   28.0120 C   0  0  0  0  0  0  0  0  0  0  0  0
  -13.5919   -6.6732   27.3956 O   0  0  0  0  0  0  0  0  0  0  0  0
  -14.6702   -4.0916   29.2921 C   0  0  0  0  0  0  0  0  0  0  0  0
  -13.7265   -4.0482   30.4839 C   0  0  0  0  0  0  0  0  0  0  0  0
  -14.4966   -3.4419   32.0056 S   0  0  2  0  0  0  0  0  0  0  0  0
  -14.3889   -1.6549   31.7383 C   0  0  0  0  0  0  0  0  0  0  0  0
  -13.1562   -3.7038   33.1985 C   0  0  0  0  0  0  0  0  0  0  0  0
  -13.2681   -5.1043   33.7837 C   0  0  1  0  0  0  0  0  0  0  0  0
  -14.6296   -5.3830   34.0077 O   0  0  0  0  0  0  0  0  0  0  0  0
  -12.7906   -6.2319   32.8879 C   0  0  1  0  0  0  0  0  0  0  0  0
  -11.4612   -6.5896   33.1932 O   0  0  0  0  0  0  0  0  0  0  0  0
  -13.7287   -7.3686   33.2398 C   0  0  1  0  0  0  0  0  0  0  0  0
  -13.0255   -8.2985   34.0263 O   0  0  0  0  0  0  0  0  0  0  0  0
  -14.8637   -6.7671   34.0575 C   0  0  2  0  0  0  0  0  0  0  0  0
  -12.1571   -5.7832   28.6704 O   0  0  0  0  0  0  0  0  0  0  0  0
  -17.4513   -7.1267   29.4803 N   0  0  0  0  0  0  0  0  0  0  0  0
  -16.1265   -6.7958   29.6863 C   0  0  0  0  0  0  0  0  0  0  0  0
  -15.6049   -6.7451   30.9652 N   0  0  0  0  0  0  0  0  0  0  0  0
  -16.3901   -7.0155   32.0349 C   0  0  0  0  0  0  0  0  0  0  0  0
  -17.7232   -7.3587   31.8465 C   0  0  0  0  0  0  0  0  0  0  0  0
  -18.2549   -7.4090   30.5637 C   0  0  0  0  0  0  0  0  0  0  0  0
  -19.5342   -7.7285   30.3841 N   0  0  0  0  0  0  0  0  0  0  0  0
  -18.2689   -7.5829   33.0613 N   0  0  0  0  0  0  0  0  0  0  0  0
  -17.3136   -7.4074   34.0043 C   0  0  0  0  0  0  0  0  0  0  0  0
  -16.1424   -7.0560   33.3867 N   0  0  0  0  0  0  0  0  0  0  0  0
  2  1  1  6  0  0  0
  2  3  1  0  0  0  0
  2  5  1  0  0  0  0
  3  4  1  0  0  0  0
  3 17  1  0  0  0  0
  5  6  1  0  0  0  0
  7  6  1  6  0  0  0
  7  8  1  0  0  0  0
  7  9  1  0  0  0  0
 10  9  1  6  0  0  0
 10 11  1  0  0  0  0
 10 12  1  0  0  0  0
 11 16  1  0  0  0  0
 12 13  1  1  0  0  0
 12 14  1  0  0  0  0
 14 15  1  1  0  0  0
 14 16  1  0  0  0  0
 16 27  1  6  0  0  0
 18 19  2  0  0  0  0
 18 23  1  0  0  0  0
 19 20  1  0  0  0  0
 20 21  2  0  0  0  0
 21 22  1  0  0  0  0
 21 27  1  0  0  0  0
 22 23  2  0  0  0  0
 22 25  1  0  0  0  0
 23 24  1  0  0  0  0
 25 26  2  0  0  0  0
 26 27  1  0  0  0  0
M  END
>  <CHROM.1>
-17.37227960,-176.75248451,169.80379005,-82.08062145,-88.96306608,-40.01267898
72.62709362,-14.88689774,-5.84567425,31.37296166,1.03248075,-0.53668331,-1.33994324

>  <Name>
ligand

>  <RI>
0

>  <Rbt.Current_Directory>
/home/itssahil/PROJECTS/Mol_Feturizer/New_Systems/rnas/3GX6

>  <Rbt.Executable>
rbdock ($Id: //depot/dev/client3/rdock/2013.1/src/exe/rbdock.cxx#4 $)

>  <Rbt.Library>
libRbt.so (2013.1, Build901 2013/11/27)

>  <Rbt.Parameter_File>
/export/apps/rDock/src/rDock_2013.1_src/data/scripts/dock_solv.prm

>  <Rbt.Receptor>
prm/pocket_docking_7.prm

>  <SCORE>
-19.6952

>  <SCORE.INTER>
-8.9224

>  <SCORE.INTER.CONST>
1

>  <SCORE.INTER.POLAR>
0

>  <SCORE.INTER.ROT>
7

>  <SCORE.INTER.SOLV>
13.8187

>  <SCORE.INTER.VDW>
-18.8212

>  <SCORE.INTER.norm>
-0.330459

>  <SCORE.INTRA>
-10.7728

>  <SCORE.INTRA.DIHEDRAL>
-8.41218

>  <SCORE.INTRA.DIHEDRAL.0>
15.0182

>  <SCORE.INTRA.POLAR>
0

>  <SCORE.INTRA.POLAR.0>
0

>  <SCORE.INTRA.REPUL>
0

>  <SCORE.INTRA.REPUL.0>
0

>  <SCORE.INTRA.SOLV>
-1.53772

>  <SCORE.INTRA.SOLV.lig_0>
-47.9129

>  <SCORE.INTRA.VDW>
-5.7978

>  <SCORE.INTRA.VDW.0>
2.00851

>  <SCORE.INTRA.norm>
-0.398991

>  <SCORE.RESTR>
0

>  <SCORE.RESTR.CAVITY>
0

>  <SCORE.RESTR.norm>
0

>  <SCORE.SYSTEM>
0

>  <SCORE.SYSTEM.CONST>
0

>  <SCORE.SYSTEM.DIHEDRAL>
0

>  <SCORE.SYSTEM.SOLV>
0

>  <SCORE.SYSTEM.norm>
0

>  <SCORE.heavy>
27

>  <SCORE.norm>
-0.72945

>  <RMSD>
4.432

$$$$
ligand
 OpenBabel11021811483D
libRbt.so/2013.1/901 2013/11/27
 27 29  0  0  0  0  0  0  0  0999 V2000
  -15.2685   -7.6515   27.6981 N   0  0  0  0  0  0  0  0  0  0  0  0
  -14.9668   -9.0773   27.7920 C   0  0  2  0  0  0  0  0  0  0  0  0
  -16.2345   -9.9272   27.8145 C   0  0  0  0  0  0  0  0  0  0  0  0
  -16.7770  -10.2895   26.7681 O   0  0  0  0  0  0  0  0  0  0  0  0
  -14.0813   -9.3682   29.0000 C   0  0  0  0  0  0  0  0  0  0  0  0
  -12.7116   -8.7126   28.9148 C   0  0  0  0  0  0  0  0  0  0  0  0
  -12.7482   -6.9132   29.1079 S   0  0  2  0  0  0  0  0  0  0  0  0
  -11.0731   -6.4911   28.5672 C   0  0  0  0  0  0  0  0  0  0  0  0
  -12.5903   -6.7564   30.9076 C   0  0  0  0  0  0  0  0  0  0  0  0
  -13.3004   -5.4914   31.3680 C   0  0  1  0  0  0  0  0  0  0  0  0
  -14.6889   -5.7091   31.2880 O   0  0  0  0  0  0  0  0  0  0  0  0
  -13.0602   -5.0900   32.8112 C   0  0  1  0  0  0  0  0  0  0  0  0
  -12.0337   -4.1273   32.9024 O   0  0  0  0  0  0  0  0  0  0  0  0
  -14.3845   -4.4783   33.2209 C   0  0  1  0  0  0  0  0  0  0  0  0
  -14.2308   -3.0815   33.2778 O   0  0  0  0  0  0  0  0  0  0  0  0
  -15.3902   -4.8347   32.1345 C   0  0  2  0  0  0  0  0  0  0  0  0
  -16.7441  -10.2638   28.8834 O   0  0  0  0  0  0  0  0  0  0  0  0
  -18.7107   -8.9104   31.7627 N   0  0  0  0  0  0  0  0  0  0  0  0
  -17.7034   -8.5498   30.8896 C   0  0  0  0  0  0  0  0  0  0  0  0
  -16.9199   -7.4391   31.1398 N   0  0  0  0  0  0  0  0  0  0  0  0
  -17.1342   -6.6864   32.2451 C   0  0  0  0  0  0  0  0  0  0  0  0
  -18.1374   -7.0389   33.1394 C   0  0  0  0  0  0  0  0  0  0  0  0
  -18.9307   -8.1527   32.8925 C   0  0  0  0  0  0  0  0  0  0  0  0
  -19.8978   -8.4846   33.7444 N   0  0  0  0  0  0  0  0  0  0  0  0
  -18.1318   -6.1372   34.1446 N   0  0  0  0  0  0  0  0  0  0  0  0
  -17.1439   -5.2401   33.9164 C   0  0  0  0  0  0  0  0  0  0  0  0
  -16.5145   -5.5649   32.7438 N   0  0  0  0  0  0  0  0  0  0  0  0
  2  1  1  1  0  0  0
  2  3  1  0  0  0  0
  2  5  1  0  0  0  0
  3  4  1  0  0  0  0
  3 17  1  0  0  0  0
  5  6  1  0  0  0  0
  7  6  1  1  0  0  0
  7  8  1  0  0  0  0
  7  9  1  0  0  0  0
 10  9  1  1  0  0  0
 10 11  1  0  0  0  0
 10 12  1  0  0  0  0
 11 16  1  0  0  0  0
 12 13  1  6  0  0  0
 12 14  1  0  0  0  0
 14 15  1  6  0  0  0
 14 16  1  0  0  0  0
 16 27  1  1  0  0  0
 18 19  2  0  0  0  0
 18 23  1  0  0  0  0
 19 20  1  0  0  0  0
 20 21  2  0  0  0  0
 21 22  1  0  0  0  0
 21 27  1  0  0  0  0
 22 23  2  0  0  0  0
 22 25  1  0  0  0  0
 23 24  1  0  0  0  0
 25 26  2  0  0  0  0
 26 27  1  0  0  0  0
M  END
>  <CHROM.1>
86.30237689,-63.71869541,70.74905325,-167.28110672,-150.34207534,73.13106031
-23.80416574,-15.33483385,-7.03656025,30.93979635,1.29896584,-0.43271536
-2.27637222

>  <Name>
ligand

>  <RI>
0

>  <Rbt.Current_Directory>
/home/itssahil/PROJECTS/Mol_Feturizer/New_Systems/rnas/3GX6

>  <Rbt.Executable>
rbdock ($Id: //depot/dev/client3/rdock/2013.1/src/exe/rbdock.cxx#4 $)

>  <Rbt.Library>
libRbt.so (2013.1, Build901 2013/11/27)

>  <Rbt.Parameter_File>
/export/apps/rDock/src/rDock_2013.1_src/data/scripts/dock_solv.prm

>  <Rbt.Receptor>
prm/pocket_docking_6.prm

>  <SCORE>
-17.9613

>  <SCORE.INTER>
-10.2792

>  <SCORE.INTER.CONST>
1

>  <SCORE.INTER.POLAR>
0

>  <SCORE.INTER.ROT>
7

>  <SCORE.INTER.SOLV>
7.64607

>  <SCORE.INTER.VDW>
-17.6682

>  <SCORE.INTER.norm>
-0.380711

>  <SCORE.INTRA>
-7.68206

>  <SCORE.INTRA.DIHEDRAL>
-6.52117

>  <SCORE.INTRA.DIHEDRAL.0>
15.0182

>  <SCORE.INTRA.POLAR>
0

>  <SCORE.INTRA.POLAR.0>
0

>  <SCORE.INTRA.REPUL>
0

>  <SCORE.INTRA.REPUL.0>
0

>  <SCORE.INTRA.SOLV>
0.814461

>  <SCORE.INTRA.SOLV.lig_0>
-47.9129

>  <SCORE.INTRA.VDW>
-4.82871

>  <SCORE.INTRA.VDW.0>
2.00851

>  <SCORE.INTRA.norm>
-0.284521

>  <SCORE.RESTR>
0

>  <SCORE.RESTR.CAVITY>
0

>  <SCORE.RESTR.norm>
0

>  <SCORE.SYSTEM>
0

>  <SCORE.SYSTEM.CONST>
0

>  <SCORE.SYSTEM.DIHEDRAL>
0

>  <SCORE.SYSTEM.SOLV>
0

>  <SCORE.SYSTEM.norm>
0

>  <SCORE.heavy>
27

>  <SCORE.norm>
-0.665232

>  <RMSD>
4.582

$$$$
ligand
 OpenBabel11021811483D
libRbt.so/2013.1/901 2013/11/27
 27 29  0  0  0  0  0  0  0  0999 V2000
  -13.2242   -9.6200   27.2374 N   0  0  0  0  0  0  0  0  0  0  0  0
  -12.5393   -8.5347   27.9346 C   0  0  2  0  0  0  0  0  0  0  0  0
  -11.6194   -9.0564   29.0354 C   0  0  0  0  0  0  0  0  0  0  0  0
  -12.0770   -9.5961   30.0452 O   0  0  0  0  0  0  0  0  0  0  0  0
  -13.5404   -7.5211   28.4809 C   0  0  0  0  0  0  0  0  0  0  0  0
  -12.9019   -6.4586   29.3620 C   0  0  0  0  0  0  0  0  0  0  0  0
  -14.0170   -5.1002   29.7952 S   0  0  2  0  0  0  0  0  0  0  0  0
  -13.8637   -4.0660   28.3175 C   0  0  0  0  0  0  0  0  0  0  0  0
  -12.9966   -4.1808   30.9792 C   0  0  0  0  0  0  0  0  0  0  0  0
  -13.2515   -4.7108   32.3830 C   0  0  1  0  0  0  0  0  0  0  0  0
  -14.6218   -4.5639   32.6697 O   0  0  0  0  0  0  0  0  0  0  0  0
  -12.9754   -6.1884   32.5888 C   0  0  1  0  0  0  0  0  0  0  0  0
  -11.6867   -6.3904   33.1246 O   0  0  0  0  0  0  0  0  0  0  0  0
  -14.0283   -6.5954   33.5995 C   0  0  1  0  0  0  0  0  0  0  0  0
  -13.4043   -6.7649   34.8484 O   0  0  0  0  0  0  0  0  0  0  0  0
  -15.0272   -5.4490   33.6822 C   0  0  2  0  0  0  0  0  0  0  0  0
  -10.3975   -8.9425   28.9369 O   0  0  0  0  0  0  0  0  0  0  0  0
  -17.9211   -8.5343   30.5388 N   0  0  0  0  0  0  0  0  0  0  0  0
  -16.5575   -8.3193   30.5008 C   0  0  0  0  0  0  0  0  0  0  0  0
  -15.9541   -7.4680   31.4071 N   0  0  0  0  0  0  0  0  0  0  0  0
  -16.6957   -6.8291   32.3430 C   0  0  0  0  0  0  0  0  0  0  0  0
  -18.0678   -7.0397   32.4019 C   0  0  0  0  0  0  0  0  0  0  0  0
  -18.6813   -7.8922   31.4921 C   0  0  0  0  0  0  0  0  0  0  0  0
  -19.9969   -8.0864   31.5427 N   0  0  0  0  0  0  0  0  0  0  0  0
  -18.5575   -6.2975   33.4182 N   0  0  0  0  0  0  0  0  0  0  0  0
  -17.5313   -5.6414   34.0091 C   0  0  0  0  0  0  0  0  0  0  0  0
  -16.3696   -5.9591   33.3564 N   0  0  0  0  0  0  0  0  0  0  0  0
  2  1  1  1  0  0  0
  2  3  1  0  0  0  0
  2  5  1  0  0  0  0
  3  4  1  0  0  0  0
  3 17  1  0  0  0  0
  5  6  1  0  0  0  0
  7  6  1  6  0  0  0
  7  8  1  0  0  0  0
  7  9  1  0  0  0  0
 10  9  1  6  0  0  0
 10 11  1  0  0  0  0
 10 12  1  0  0  0  0
 11 16  1  0  0  0  0
 12 13  1  1  0  0  0
 12 14  1  0  0  0  0
 14 15  1  1  0  0  0
 14 16  1  0  0  0  0
 16 27  1  6  0  0  0
 18 19  2  0  0  0  0
 18 23  1  0  0  0  0
 19 20  1  0  0  0  0
 20 21  2  0  0  0  0
 21 22  1  0  0  0  0
 21 27  1  0  0  0  0
 22 23  2  0  0  0  0
 22 25  1  0  0  0  0
 23 24  1  0  0  0  0
 25 26  2  0  0  0  0
 26 27  1  0  0  0  0
M  END
>  <CHROM.1>
-67.74223922,172.94392144,170.50026587,-82.87695346,-89.97219220,-58.63665898
70.20937082,-14.62416699,-6.79080230,31.18041477,0.59586149,-0.23445460,-2.20729000

>  <Name>
ligand

>  <RI>
0

>  <Rbt.Current_Directory>
/home/itssahil/PROJECTS/Mol_Feturizer/New_Systems/rnas/3GX6

>  <Rbt.Executable>
rbdock ($Id: //depot/dev/client3/rdock/2013.1/src/exe/rbdock.cxx#4 $)

>  <Rbt.Library>
libRbt.so (2013.1, Build901 2013/11/27)

>  <Rbt.Parameter_File>
/export/apps/rDock/src/rDock_2013.1_src/data/scripts/dock_solv.prm

>  <Rbt.Receptor>
prm/pocket_docking_7.prm

>  <SCORE>
-19.5075

>  <SCORE.INTER>
-8.54097

>  <SCORE.INTER.CONST>
1

>  <SCORE.INTER.POLAR>
0

>  <SCORE.INTER.ROT>
7

>  <SCORE.INTER.SOLV>
7.74821

>  <SCORE.INTER.VDW>
-16.5434

>  <SCORE.INTER.norm>
-0.316332

>  <SCORE.INTRA>
-10.969

>  <SCORE.INTRA.DIHEDRAL>
-9.42034

>  <SCORE.INTRA.DIHEDRAL.0>
15.0182

>  <SCORE.INTRA.POLAR>
0

>  <SCORE.INTRA.POLAR.0>
0

>  <SCORE.INTRA.REPUL>
0

>  <SCORE.INTRA.REPUL.0>
0

>  <SCORE.INTRA.SOLV>
-1.52452

>  <SCORE.INTRA.SOLV.lig_0>
-47.9129

>  <SCORE.INTRA.VDW>
-5.49657

>  <SCORE.INTRA.VDW.0>
2.00851

>  <SCORE.INTRA.norm>
-0.406259

>  <SCORE.RESTR>
0.00245067

>  <SCORE.RESTR.CAVITY>
0.00245067

>  <SCORE.RESTR.norm>
9.07656e-05

>  <SCORE.SYSTEM>
0

>  <SCORE.SYSTEM.CONST>
0

>  <SCORE.SYSTEM.DIHEDRAL>
0

>  <SCORE.SYSTEM.SOLV>
0

>  <SCORE.SYSTEM.norm>
0

>  <SCORE.heavy>
27

>  <SCORE.norm>
-0.722501

>  <RMSD>
4.584

$$$$
ligand
 OpenBabel11021811483D
libRbt.so/2013.1/901 2013/11/27
 27 29  0  0  0  0  0  0  0  0999 V2000
  -16.3536   -5.6824   28.3303 N   0  0  0  0  0  0  0  0  0  0  0  0
  -14.9748   -6.0368   28.0046 C   0  0  2  0  0  0  0  0  0  0  0  0
  -14.5343   -5.4420   26.6696 C   0  0  0  0  0  0  0  0  0  0  0  0
  -13.6175   -5.9478   26.0185 O   0  0  0  0  0  0  0  0  0  0  0  0
  -14.7810   -7.5500   28.0297 C   0  0  0  0  0  0  0  0  0  0  0  0
  -14.0724   -8.0459   29.2807 C   0  0  0  0  0  0  0  0  0  0  0  0
  -12.4246   -7.3357   29.5185 S   0  0  2  0  0  0  0  0  0  0  0  0
  -11.4030   -8.8237   29.3813 C   0  0  0  0  0  0  0  0  0  0  0  0
  -12.4207   -7.0667   31.3119 C   0  0  0  0  0  0  0  0  0  0  0  0
  -13.3469   -5.9074   31.6500 C   0  0  1  0  0  0  0  0  0  0  0  0
  -14.6564   -6.4087   31.7748 O   0  0  0  0  0  0  0  0  0  0  0  0
  -13.0771   -5.2135   32.9720 C   0  0  1  0  0  0  0  0  0  0  0  0
  -12.2807   -4.0648   32.7849 O   0  0  0  0  0  0  0  0  0  0  0  0
  -14.4627   -4.8151   33.4381 C   0  0  1  0  0  0  0  0  0  0  0  0
  -14.6122   -3.4287   33.2552 O   0  0  0  0  0  0  0  0  0  0  0  0
  -15.4560   -5.5544   32.5519 C   0  0  2  0  0  0  0  0  0  0  0  0
  -15.0858   -4.4379   26.2188 O   0  0  0  0  0  0  0  0  0  0  0  0
  -15.9069   -9.8345   35.5938 N   0  0  0  0  0  0  0  0  0  0  0  0
  -14.7904   -9.3836   34.9176 C   0  0  0  0  0  0  0  0  0  0  0  0
  -14.8471   -8.2322   34.1553 N   0  0  0  0  0  0  0  0  0  0  0  0
  -16.0027   -7.5329   34.0582 C   0  0  0  0  0  0  0  0  0  0  0  0
  -17.1340   -7.9666   34.7384 C   0  0  0  0  0  0  0  0  0  0  0  0
  -17.0848   -9.1248   35.5045 C   0  0  0  0  0  0  0  0  0  0  0  0
  -18.1710   -9.5452   36.1483 N   0  0  0  0  0  0  0  0  0  0  0  0
  -18.1324   -7.0948   34.4798 N   0  0  0  0  0  0  0  0  0  0  0  0
  -17.6565   -6.1183   33.6721 C   0  0  0  0  0  0  0  0  0  0  0  0
  -16.3381   -6.3729   33.4007 N   0  0  0  0  0  0  0  0  0  0  0  0
  2  1  1  6  0  0  0
  2  3  1  0  0  0  0
  2  5  1  0  0  0  0
  3  4  1  0  0  0  0
  3 17  1  0  0  0  0
  5  6  1  0  0  0  0
  7  6  1  1  0  0  0
  7  8  1  0  0  0  0
  7  9  1  0  0  0  0
 10  9  1  1  0  0  0
 10 11  1  0  0  0  0
 10 12  1  0  0  0  0
 11 16  1  0  0  0  0
 12 13  1  6  0  0  0
 12 14  1  0  0  0  0
 14 15  1  6  0  0  0
 14 16  1  0  0  0  0
 16 27  1  1  0  0  0
 18 19  2  0  0  0  0
 18 23  1  0  0  0  0
 19 20  1  0  0  0  0
 20 21  2  0  0  0  0
 21 22  1  0  0  0  0
 21 27  1  0  0  0  0
 22 23  2  0  0  0  0
 22 25  1  0  0  0  0
 23 24  1  0  0  0  0
 25 26  2  0  0  0  0
 26 27  1  0  0  0  0
M  END
>  <CHROM.1>
-156.15699845,-103.08814512,-59.07767827,-116.07744064,-71.82416053,85.42321823
40.12539977,-14.77009448,-6.74994032,31.57170392,0.79294786,1.05710944,-0.60294855

>  <Name>
ligand

>  <RI>
0

>  <Rbt.Current_Directory>
/home/itssahil/PROJECTS/Mol_Feturizer/New_Systems/rnas/3GX6

>  <Rbt.Executable>
rbdock ($Id: //depot/dev/client3/rdock/2013.1/src/exe/rbdock.cxx#4 $)

>  <Rbt.Library>
libRbt.so (2013.1, Build901 2013/11/27)

>  <Rbt.Parameter_File>
/export/apps/rDock/src/rDock_2013.1_src/data/scripts/dock_solv.prm

>  <Rbt.Receptor>
prm/pocket_docking_6.prm

>  <SCORE>
-18.1108

>  <SCORE.INTER>
-11.7834

>  <SCORE.INTER.CONST>
1

>  <SCORE.INTER.POLAR>
0

>  <SCORE.INTER.ROT>
7

>  <SCORE.INTER.SOLV>
10.6594

>  <SCORE.INTER.VDW>
-19.6754

>  <SCORE.INTER.norm>
-0.436422

>  <SCORE.INTRA>
-6.32738

>  <SCORE.INTRA.DIHEDRAL>
-1.11418

>  <SCORE.INTRA.DIHEDRAL.0>
15.0182

>  <SCORE.INTRA.POLAR>
0

>  <SCORE.INTRA.POLAR.0>
0

>  <SCORE.INTRA.REPUL>
0

>  <SCORE.INTRA.REPUL.0>
0

>  <SCORE.INTRA.SOLV>
-0.49871

>  <SCORE.INTRA.SOLV.lig_0>
-47.9129

>  <SCORE.INTRA.VDW>
-5.52094

>  <SCORE.INTRA.VDW.0>
2.00851

>  <SCORE.INTRA.norm>
-0.234348

>  <SCORE.RESTR>
0

>  <SCORE.RESTR.CAVITY>
0

>  <SCORE.RESTR.norm>
0

>  <SCORE.SYSTEM>
0

>  <SCORE.SYSTEM.CONST>
0

>  <SCORE.SYSTEM.DIHEDRAL>
0

>  <SCORE.SYSTEM.SOLV>
0

>  <SCORE.SYSTEM.norm>
0

>  <SCORE.heavy>
27

>  <SCORE.norm>
-0.670769

>  <RMSD>
4.587

$$$$
ligand
 OpenBabel11021811483D
libRbt.so/2013.1/901 2013/11/27
 27 29  0  0  0  0  0  0  0  0999 V2000
  -18.0526   -7.8402   29.3251 N   0  0  0  0  0  0  0  0  0  0  0  0
  -19.5038   -7.7764   29.4765 C   0  0  2  0  0  0  0  0  0  0  0  0
  -20.0026   -6.3375   29.5804 C   0  0  0  0  0  0  0  0  0  0  0  0
  -19.3656   -5.4861   30.2045 O   0  0  0  0  0  0  0  0  0  0  0  0
  -19.9643   -8.6116   30.6674 C   0  0  0  0  0  0  0  0  0  0  0  0
  -19.2125   -8.2960   31.9513 C   0  0  0  0  0  0  0  0  0  0  0  0
  -19.7832   -9.2420   33.3850 S   0  0  2  0  0  0  0  0  0  0  0  0
  -21.3382   -8.3876   33.7439 C   0  0  0  0  0  0  0  0  0  0  0  0
  -18.7064   -8.5803   34.6855 C   0  0  0  0  0  0  0  0  0  0  0  0
  -17.2862   -9.0826   34.4684 C   0  0  1  0  0  0  0  0  0  0  0  0
  -16.7224   -8.3665   33.3956 O   0  0  0  0  0  0  0  0  0  0  0  0
  -16.3259   -8.8598   35.6217 C   0  0  1  0  0  0  0  0  0  0  0  0
  -16.2354  -10.0106   36.4316 O   0  0  0  0  0  0  0  0  0  0  0  0
  -15.0046   -8.6104   34.9231 C   0  0  1  0  0  0  0  0  0  0  0  0
  -14.2025   -9.7567   35.0662 O   0  0  0  0  0  0  0  0  0  0  0  0
  -15.3191   -8.3911   33.4495 C   0  0  2  0  0  0  0  0  0  0  0  0
  -21.0584   -6.0003   29.0444 O   0  0  0  0  0  0  0  0  0  0  0  0
  -16.4456   -3.3327   32.4908 N   0  0  0  0  0  0  0  0  0  0  0  0
  -17.3050   -4.3351   32.8953 C   0  0  0  0  0  0  0  0  0  0  0  0
  -16.8397   -5.6202   33.1007 N   0  0  0  0  0  0  0  0  0  0  0  0
  -15.5326   -5.9137   32.9025 C   0  0  0  0  0  0  0  0  0  0  0  0
  -14.6514   -4.9162   32.5038 C   0  0  0  0  0  0  0  0  0  0  0  0
  -15.1130   -3.6226   32.2929 C   0  0  0  0  0  0  0  0  0  0  0  0
  -14.2706   -2.6695   31.9017 N   0  0  0  0  0  0  0  0  0  0  0  0
  -13.4247   -5.4690   32.3883 N   0  0  0  0  0  0  0  0  0  0  0  0
  -13.5071   -6.7791   32.7195 C   0  0  0  0  0  0  0  0  0  0  0  0
  -14.8059   -7.0725   33.0415 N   0  0  0  0  0  0  0  0  0  0  0  0
  2  1  1  1  0  0  0
  2  3  1  0  0  0  0
  2  5  1  0  0  0  0
  3  4  1  0  0  0  0
  3 17  1  0  0  0  0
  5  6  1  0  0  0  0
  7  6  1  6  0  0  0
  7  8  1  0  0  0  0
  7  9  1  0  0  0  0
 10  9  1  1  0  0  0
 10 11  1  0  0  0  0
 10 12  1  0  0  0  0
 11 16  1  0  0  0  0
 12 13  1  1  0  0  0
 12 14  1  0  0  0  0
 14 15  1  6  0  0  0
 14 16  1  0  0  0  0
 16 27  1  1  0  0  0
 18 19  2  0  0  0  0
 18 23  1  0  0  0  0
 19 20  1  0  0  0  0
 20 21  2  0  0  0  0
 21 22  1  0  0  0  0
 21 27  1  0  0  0  0
 22 23  2  0  0  0  0
 22 25  1  0  0  0  0
 23 24  1  0  0  0  0
 25 26  2  0  0  0  0
 26 27  1  0  0  0  0
M  END
>  <CHROM.1>
-38.31231792,51.32252558,178.17752885,-75.01113606,-71.24916828,75.29328684
12.88377961,-17.22287262,-7.17637821,32.69873571,-2.91414391,0.46056412,2.44953847

>  <Name>
ligand

>  <RI>
0

>  <Rbt.Current_Directory>
/home/itssahil/PROJECTS/Mol_Feturizer/New_Systems/rnas/3GX6

>  <Rbt.Executable>
rbdock ($Id: //depot/dev/client3/rdock/2013.1/src/exe/rbdock.cxx#4 $)

>  <Rbt.Library>
libRbt.so (2013.1, Build901 2013/11/27)

>  <Rbt.Parameter_File>
/export/apps/rDock/src/rDock_2013.1_src/data/scripts/dock_solv.prm

>  <Rbt.Receptor>
prm/pocket_docking_8.prm

>  <SCORE>
-21.0642

>  <SCORE.INTER>
-10.3956

>  <SCORE.INTER.CONST>
1

>  <SCORE.INTER.POLAR>
0

>  <SCORE.INTER.ROT>
7

>  <SCORE.INTER.SOLV>
11.3007

>  <SCORE.INTER.VDW>
-18.964

>  <SCORE.INTER.norm>
-0.385023

>  <SCORE.INTRA>
-10.6686

>  <SCORE.INTRA.DIHEDRAL>
-10.5323

>  <SCORE.INTRA.DIHEDRAL.0>
15.0182

>  <SCORE.INTRA.POLAR>
0

>  <SCORE.INTRA.POLAR.0>
0

>  <SCORE.INTRA.REPUL>
0

>  <SCORE.INTRA.REPUL.0>
0

>  <SCORE.INTRA.SOLV>
-0.974489

>  <SCORE.INTRA.SOLV.lig_0>
-47.9129

>  <SCORE.INTRA.VDW>
-4.91517

>  <SCORE.INTRA.VDW.0>
2.00851

>  <SCORE.INTRA.norm>
-0.395132

>  <SCORE.RESTR>
0

>  <SCORE.RESTR.CAVITY>
0

>  <SCORE.RESTR.norm>
0

>  <SCORE.SYSTEM>
0

>  <SCORE.SYSTEM.CONST>
0

>  <SCORE.SYSTEM.DIHEDRAL>
0

>  <SCORE.SYSTEM.SOLV>
0

>  <SCORE.SYSTEM.norm>
0

>  <SCORE.heavy>
27

>  <SCORE.norm>
-0.780155

>  <RMSD>
4.599

$$$$
ligand
 OpenBabel11021811483D
libRbt.so/2013.1/901 2013/11/27
 27 29  0  0  0  0  0  0  0  0999 V2000
  -10.2834  -11.2996   25.2686 N   0  0  0  0  0  0  0  0  0  0  0  0
  -11.0347  -10.5722   26.2881 C   0  0  2  0  0  0  0  0  0  0  0  0
  -12.4734  -10.3057   25.8533 C   0  0  0  0  0  0  0  0  0  0  0  0
  -13.3793  -11.0944   26.1319 O   0  0  0  0  0  0  0  0  0  0  0  0
  -10.3213   -9.2790   26.6711 C   0  0  0  0  0  0  0  0  0  0  0  0
  -10.6290   -8.8179   28.0874 C   0  0  0  0  0  0  0  0  0  0  0  0
  -12.3639   -8.3748   28.3521 S   0  0  2  0  0  0  0  0  0  0  0  0
  -12.2260   -7.4038   29.8735 C   0  0  0  0  0  0  0  0  0  0  0  0
  -13.0260   -9.9386   28.9880 C   0  0  0  0  0  0  0  0  0  0  0  0
  -14.5243   -9.7969   29.2150 C   0  0  1  0  0  0  0  0  0  0  0  0
  -14.7326   -8.7987   30.1854 O   0  0  0  0  0  0  0  0  0  0  0  0
  -15.3310   -9.3363   28.0154 C   0  0  1  0  0  0  0  0  0  0  0  0
  -15.8926  -10.4356   27.3336 O   0  0  0  0  0  0  0  0  0  0  0  0
  -16.4269   -8.4981   28.6418 C   0  0  1  0  0  0  0  0  0  0  0  0
  -17.6264   -9.2311   28.6003 O   0  0  0  0  0  0  0  0  0  0  0  0
  -16.0266   -8.2606   30.0917 C   0  0  2  0  0  0  0  0  0  0  0  0
  -12.7561   -9.2958   25.2085 O   0  0  0  0  0  0  0  0  0  0  0  0
  -17.2346   -4.2793   33.3267 N   0  0  0  0  0  0  0  0  0  0  0  0
  -17.5109   -5.6225   33.4888 C   0  0  0  0  0  0  0  0  0  0  0  0
  -17.1208   -6.5412   32.5327 N   0  0  0  0  0  0  0  0  0  0  0  0
  -16.4652   -6.1333   31.4202 C   0  0  0  0  0  0  0  0  0  0  0  0
  -16.1709   -4.7869   31.2440 C   0  0  0  0  0  0  0  0  0  0  0  0
  -16.5625   -3.8575   32.2000 C   0  0  0  0  0  0  0  0  0  0  0  0
  -16.2890   -2.5667   32.0265 N   0  0  0  0  0  0  0  0  0  0  0  0
  -15.5145   -4.6564   30.0712 N   0  0  0  0  0  0  0  0  0  0  0  0
  -15.3730   -5.8825   29.5151 C   0  0  0  0  0  0  0  0  0  0  0  0
  -15.9558   -6.8104   30.3374 N   0  0  0  0  0  0  0  0  0  0  0  0
  2  1  1  6  0  0  0
  2  3  1  0  0  0  0
  2  5  1  0  0  0  0
  3  4  1  0  0  0  0
  3 17  1  0  0  0  0
  5  6  1  0  0  0  0
  7  6  1  1  0  0  0
  7  8  1  0  0  0  0
  7  9  1  0  0  0  0
 10  9  1  6  0  0  0
 10 11  1  0  0  0  0
 10 12  1  0  0  0  0
 11 16  1  0  0  0  0
 12 13  1  1  0  0  0
 12 14  1  0  0  0  0
 14 15  1  1  0  0  0
 14 16  1  0  0  0  0
 16 27  1  6  0  0  0
 18 19  2  0  0  0  0
 18 23  1  0  0  0  0
 19 20  1  0  0  0  0
 20 21  2  0  0  0  0
 21 22  1  0  0  0  0
 21 27  1  0  0  0  0
 22 23  2  0  0  0  0
 22 25  1  0  0  0  0
 23 24  1  0  0  0  0
 25 26  2  0  0  0  0
 26 27  1  0  0  0  0
M  END
>  <CHROM.1>
91.76638958,-152.92674707,-64.30915805,-162.24223667,-177.17031083,-62.03488203
-112.05355102,-14.42642295,-7.95519200,29.10505638,-0.98017687,0.26873483
0.63779986

>  <Name>
ligand

>  <RI>
0

>  <Rbt.Current_Directory>
/home/itssahil/PROJECTS/Mol_Feturizer/New_Systems/rnas/3GX6

>  <Rbt.Executable>
rbdock ($Id: //depot/dev/client3/rdock/2013.1/src/exe/rbdock.cxx#4 $)

>  <Rbt.Library>
libRbt.so (2013.1, Build901 2013/11/27)

>  <Rbt.Parameter_File>
/export/apps/rDock/src/rDock_2013.1_src/data/scripts/dock_solv.prm

>  <Rbt.Receptor>
prm/pocket_docking_8.prm

>  <SCORE>
-15.7654

>  <SCORE.INTER>
-5.92792

>  <SCORE.INTER.CONST>
1

>  <SCORE.INTER.POLAR>
0

>  <SCORE.INTER.ROT>
7

>  <SCORE.INTER.SOLV>
12.7323

>  <SCORE.INTER.VDW>
-16.4627

>  <SCORE.INTER.norm>
-0.219553

>  <SCORE.INTRA>
-9.8375

>  <SCORE.INTRA.DIHEDRAL>
-7.29427

>  <SCORE.INTRA.DIHEDRAL.0>
15.0182

>  <SCORE.INTRA.POLAR>
0

>  <SCORE.INTRA.POLAR.0>
0

>  <SCORE.INTRA.REPUL>
0

>  <SCORE.INTRA.REPUL.0>
0

>  <SCORE.INTRA.SOLV>
-1.25729

>  <SCORE.INTRA.SOLV.lig_0>
-47.9129

>  <SCORE.INTRA.VDW>
-5.56172

>  <SCORE.INTRA.VDW.0>
2.00851

>  <SCORE.INTRA.norm>
-0.364352

>  <SCORE.RESTR>
0

>  <SCORE.RESTR.CAVITY>
0

>  <SCORE.RESTR.norm>
0

>  <SCORE.SYSTEM>
0

>  <SCORE.SYSTEM.CONST>
0

>  <SCORE.SYSTEM.DIHEDRAL>
0

>  <SCORE.SYSTEM.SOLV>
0

>  <SCORE.SYSTEM.norm>
0

>  <SCORE.heavy>
27

>  <SCORE.norm>
-0.583905

>  <RMSD>
4.628

$$$$
ligand
 OpenBabel11021811483D
libRbt.so/2013.1/901 2013/11/27
 27 29  0  0  0  0  0  0  0  0999 V2000
  -13.0367   -6.5092   27.9487 N   0  0  0  0  0  0  0  0  0  0  0  0
  -14.3681   -6.7155   27.3850 C   0  0  2  0  0  0  0  0  0  0  0  0
  -14.6682   -5.7305   26.2582 C   0  0  0  0  0  0  0  0  0  0  0  0
  -14.6795   -4.5144   26.4616 O   0  0  0  0  0  0  0  0  0  0  0  0
  -15.4355   -6.6566   28.4737 C   0  0  0  0  0  0  0  0  0  0  0  0
  -15.4448   -5.3416   29.2377 C   0  0  0  0  0  0  0  0  0  0  0  0
  -16.5595   -5.3316   30.6637 S   0  0  2  0  0  0  0  0  0  0  0  0
  -18.1636   -5.3806   29.8266 C   0  0  0  0  0  0  0  0  0  0  0  0
  -16.4705   -3.5893   31.1586 C   0  0  0  0  0  0  0  0  0  0  0  0
  -15.2170   -3.3650   31.9921 C   0  0  1  0  0  0  0  0  0  0  0  0
  -15.2742   -4.2124   33.1147 O   0  0  0  0  0  0  0  0  0  0  0  0
  -13.9053   -3.7168   31.3157 C   0  0  1  0  0  0  0  0  0  0  0  0
  -13.3086   -2.5724   30.7473 O   0  0  0  0  0  0  0  0  0  0  0  0
  -13.0570   -4.2307   32.4613 C   0  0  1  0  0  0  0  0  0  0  0  0
  -12.1066   -3.2467   32.7874 O   0  0  0  0  0  0  0  0  0  0  0  0
  -13.9934   -4.4439   33.6429 C   0  0  2  0  0  0  0  0  0  0  0  0
  -14.9107   -6.1347   25.1209 O   0  0  0  0  0  0  0  0  0  0  0  0
  -16.5702   -8.9693   34.4530 N   0  0  0  0  0  0  0  0  0  0  0  0
  -17.0780   -7.7705   33.9927 C   0  0  0  0  0  0  0  0  0  0  0  0
  -16.2551   -6.6707   33.8392 N   0  0  0  0  0  0  0  0  0  0  0  0
  -14.9382   -6.7546   34.1436 C   0  0  0  0  0  0  0  0  0  0  0  0
  -14.4078   -7.9550   34.5999 C   0  0  0  0  0  0  0  0  0  0  0  0
  -15.2299   -9.0639   34.7591 C   0  0  0  0  0  0  0  0  0  0  0  0
  -14.7235  -10.2109   35.2053 N   0  0  0  0  0  0  0  0  0  0  0  0
  -13.0883   -7.7684   34.8184 N   0  0  0  0  0  0  0  0  0  0  0  0
  -12.7721   -6.4921   34.4963 C   0  0  0  0  0  0  0  0  0  0  0  0
  -13.9061   -5.8488   34.0756 N   0  0  0  0  0  0  0  0  0  0  0  0
  2  1  1  1  0  0  0
  2  3  1  0  0  0  0
  2  5  1  0  0  0  0
  3  4  1  0  0  0  0
  3 17  1  0  0  0  0
  5  6  1  0  0  0  0
  7  6  1  6  0  0  0
  7  8  1  0  0  0  0
  7  9  1  0  0  0  0
 10  9  1  6  0  0  0
 10 11  1  0  0  0  0
 10 12  1  0  0  0  0
 11 16  1  0  0  0  0
 12 13  1  1  0  0  0
 12 14  1  0  0  0  0
 14 15  1  1  0  0  0
 14 16  1  0  0  0  0
 16 27  1  6  0  0  0
 18 19  2  0  0  0  0
 18 23  1  0  0  0  0
 19 20  1  0  0  0  0
 20 21  2  0  0  0  0
 21 22  1  0  0  0  0
 21 27  1  0  0  0  0
 22 23  2  0  0  0  0
 22 25  1  0  0  0  0
 23 24  1  0  0  0  0
 25 26  2  0  0  0  0
 26 27  1  0  0  0  0
M  END
>  <CHROM.1>
-60.82774558,58.20836953,-172.71414265,-68.91505250,-81.43544884,-58.57285481
-8.61365282,-14.87749611,-5.79848289,31.45275776,1.61705647,-1.08931926,-1.23083471

>  <Name>
ligand

>  <RI>
0

>  <Rbt.Current_Directory>
/home/itssahil/PROJECTS/Mol_Feturizer/New_Systems/rnas/3GX6

>  <Rbt.Executable>
rbdock ($Id: //depot/dev/client3/rdock/2013.1/src/exe/rbdock.cxx#4 $)

>  <Rbt.Library>
libRbt.so (2013.1, Build901 2013/11/27)

>  <Rbt.Parameter_File>
/export/apps/rDock/src/rDock_2013.1_src/data/scripts/dock_solv.prm

>  <Rbt.Receptor>
prm/pocket_docking_3.prm

>  <SCORE>
-20.2184

>  <SCORE.INTER>
-9.89591

>  <SCORE.INTER.CONST>
1

>  <SCORE.INTER.POLAR>
0

>  <SCORE.INTER.ROT>
7

>  <SCORE.INTER.SOLV>
17.2968

>  <SCORE.INTER.VDW>
-20.6295

>  <SCORE.INTER.norm>
-0.366515

>  <SCORE.INTRA>
-10.3225

>  <SCORE.INTRA.DIHEDRAL>
-11.1272

>  <SCORE.INTRA.DIHEDRAL.0>
15.0182

>  <SCORE.INTRA.POLAR>
0

>  <SCORE.INTRA.POLAR.0>
0

>  <SCORE.INTRA.REPUL>
0

>  <SCORE.INTRA.REPUL.0>
0

>  <SCORE.INTRA.SOLV>
-0.67547

>  <SCORE.INTRA.SOLV.lig_0>
-47.9129

>  <SCORE.INTRA.VDW>
-4.42113

>  <SCORE.INTRA.VDW.0>
2.00851

>  <SCORE.INTRA.norm>
-0.382314

>  <SCORE.RESTR>
0

>  <SCORE.RESTR.CAVITY>
0

>  <SCORE.RESTR.norm>
0

>  <SCORE.SYSTEM>
0

>  <SCORE.SYSTEM.CONST>
0

>  <SCORE.SYSTEM.DIHEDRAL>
0

>  <SCORE.SYSTEM.SOLV>
0

>  <SCORE.SYSTEM.norm>
0

>  <SCORE.heavy>
27

>  <SCORE.norm>
-0.748829

>  <RMSD>
4.717

$$$$
ligand
 OpenBabel11021811483D
libRbt.so/2013.1/901 2013/11/27
 27 29  0  0  0  0  0  0  0  0999 V2000
  -14.1695   -3.8609   28.0934 N   0  0  0  0  0  0  0  0  0  0  0  0
  -15.0155   -4.6685   27.2187 C   0  0  2  0  0  0  0  0  0  0  0  0
  -16.2604   -5.1765   27.9413 C   0  0  0  0  0  0  0  0  0  0  0  0
  -16.2099   -5.5393   29.1187 O   0  0  0  0  0  0  0  0  0  0  0  0
  -14.2225   -5.8175   26.6032 C   0  0  0  0  0  0  0  0  0  0  0  0
  -13.5640   -6.7171   27.6377 C   0  0  0  0  0  0  0  0  0  0  0  0
  -12.1592   -5.9520   28.4848 S   0  0  2  0  0  0  0  0  0  0  0  0
  -10.8205   -7.0508   27.9582 C   0  0  0  0  0  0  0  0  0  0  0  0
  -12.4333   -6.5168   30.1861 C   0  0  0  0  0  0  0  0  0  0  0  0
  -13.4097   -5.5768   30.8785 C   0  0  1  0  0  0  0  0  0  0  0  0
  -14.4469   -6.3480   31.4361 O   0  0  0  0  0  0  0  0  0  0  0  0
  -12.8486   -4.7901   32.0482 C   0  0  1  0  0  0  0  0  0  0  0  0
  -12.4417   -3.5028   31.6409 O   0  0  0  0  0  0  0  0  0  0  0  0
  -14.0312   -4.6879   32.9901 C   0  0  1  0  0  0  0  0  0  0  0  0
  -14.5350   -3.3762   32.9308 O   0  0  0  0  0  0  0  0  0  0  0  0
  -15.0862   -5.6608   32.4811 C   0  0  2  0  0  0  0  0  0  0  0  0
  -17.3423   -5.2384   27.3571 O   0  0  0  0  0  0  0  0  0  0  0  0
  -13.2557   -8.6328   36.4297 N   0  0  0  0  0  0  0  0  0  0  0  0
  -12.5445   -7.7947   35.5937 C   0  0  0  0  0  0  0  0  0  0  0  0
  -13.1872   -7.0833   34.5982 N   0  0  0  0  0  0  0  0  0  0  0  0
  -14.5252   -7.2036   34.4273 C   0  0  0  0  0  0  0  0  0  0  0  0
  -15.2586   -8.0355   35.2643 C   0  0  0  0  0  0  0  0  0  0  0  0
  -14.6184   -8.7557   36.2655 C   0  0  0  0  0  0  0  0  0  0  0  0
  -15.3196   -9.5598   37.0610 N   0  0  0  0  0  0  0  0  0  0  0  0
  -16.5532   -7.9660   34.8867 N   0  0  0  0  0  0  0  0  0  0  0  0
  -16.6562   -7.1023   33.8493 C   0  0  0  0  0  0  0  0  0  0  0  0
  -15.4093   -6.6195   33.5511 N   0  0  0  0  0  0  0  0  0  0  0  0
  2  1  1  1  0  0  0
  2  3  1  0  0  0  0
  2  5  1  0  0  0  0
  3  4  1  0  0  0  0
  3 17  1  0  0  0  0
  5  6  1  0  0  0  0
  7  6  1  6  0  0  0
  7  8  1  0  0  0  0
  7  9  1  0  0  0  0
 10  9  1  1  0  0  0
 10 11  1  0  0  0  0
 10 12  1  0  0  0  0
 11 16  1  0  0  0  0
 12 13  1  6  0  0  0
 12 14  1  0  0  0  0
 14 15  1  6  0  0  0
 14 16  1  0  0  0  0
 16 27  1  1  0  0  0
 18 19  2  0  0  0  0
 18 23  1  0  0  0  0
 19 20  1  0  0  0  0
 20 21  2  0  0  0  0
 21 22  1  0  0  0  0
 21 27  1  0  0  0  0
 22 23  2  0  0  0  0
 22 25  1  0  0  0  0
 23 24  1  0  0  0  0
 25 26  2  0  0  0  0
 26 27  1  0  0  0  0
M  END
>  <CHROM.1>
-38.06395743,56.57426854,-71.68868496,-116.97978023,-84.61403730,127.83894960
73.21327128,-14.19952438,-6.19996227,31.48732417,1.50177993,0.06247364,-1.25027616

>  <Name>
ligand

>  <RI>
0

>  <Rbt.Current_Directory>
/home/itssahil/PROJECTS/Mol_Feturizer/New_Systems/rnas/3GX6

>  <Rbt.Executable>
rbdock ($Id: //depot/dev/client3/rdock/2013.1/src/exe/rbdock.cxx#4 $)

>  <Rbt.Library>
libRbt.so (2013.1, Build901 2013/11/27)

>  <Rbt.Parameter_File>
/export/apps/rDock/src/rDock_2013.1_src/data/scripts/dock_solv.prm

>  <Rbt.Receptor>
prm/pocket_docking_4.prm

>  <SCORE>
-18.9273

>  <SCORE.INTER>
-13.3893

>  <SCORE.INTER.CONST>
1

>  <SCORE.INTER.POLAR>
0

>  <SCORE.INTER.ROT>
7

>  <SCORE.INTER.SOLV>
16.7676

>  <SCORE.INTER.VDW>
-22.7821

>  <SCORE.INTER.norm>
-0.4959

>  <SCORE.INTRA>
-5.53802

>  <SCORE.INTRA.DIHEDRAL>
-1.53955

>  <SCORE.INTRA.DIHEDRAL.0>
15.0182

>  <SCORE.INTRA.POLAR>
0

>  <SCORE.INTRA.POLAR.0>
0

>  <SCORE.INTRA.REPUL>
0

>  <SCORE.INTRA.REPUL.0>
0

>  <SCORE.INTRA.SOLV>
2.28301

>  <SCORE.INTRA.SOLV.lig_0>
-47.9129

>  <SCORE.INTRA.VDW>
-5.90976

>  <SCORE.INTRA.VDW.0>
2.00851

>  <SCORE.INTRA.norm>
-0.205112

>  <SCORE.RESTR>
0

>  <SCORE.RESTR.CAVITY>
0

>  <SCORE.RESTR.norm>
0

>  <SCORE.SYSTEM>
0

>  <SCORE.SYSTEM.CONST>
0

>  <SCORE.SYSTEM.DIHEDRAL>
0

>  <SCORE.SYSTEM.SOLV>
0

>  <SCORE.SYSTEM.norm>
0

>  <SCORE.heavy>
27

>  <SCORE.norm>
-0.701012

>  <RMSD>
4.735

$$$$
ligand
 OpenBabel11021811483D
libRbt.so/2013.1/901 2013/11/27
 27 29  0  0  0  0  0  0  0  0999 V2000
  -15.3017   -9.8227   26.1395 N   0  0  0  0  0  0  0  0  0  0  0  0
  -14.7889   -9.4244   27.4477 C   0  0  2  0  0  0  0  0  0  0  0  0
  -15.7009   -9.8862   28.5813 C   0  0  0  0  0  0  0  0  0  0  0  0
  -16.9252   -9.9219   28.4394 O   0  0  0  0  0  0  0  0  0  0  0  0
  -14.5515   -7.9183   27.5040 C   0  0  0  0  0  0  0  0  0  0  0  0
  -13.9623   -7.4503   28.8258 C   0  0  0  0  0  0  0  0  0  0  0  0
  -12.9360   -5.9660   28.6849 S   0  0  2  0  0  0  0  0  0  0  0  0
  -11.4236   -6.6777   27.9901 C   0  0  0  0  0  0  0  0  0  0  0  0
  -12.4496   -5.7178   30.4141 C   0  0  0  0  0  0  0  0  0  0  0  0
  -13.2428   -4.5585   30.9998 C   0  0  1  0  0  0  0  0  0  0  0  0
  -14.5948   -4.9424   31.0792 O   0  0  0  0  0  0  0  0  0  0  0  0
  -12.8762   -4.1596   32.4170 C   0  0  1  0  0  0  0  0  0  0  0  0
  -11.9680   -3.0808   32.4179 O   0  0  0  0  0  0  0  0  0  0  0  0
  -14.2032   -3.7225   33.0033 C   0  0  1  0  0  0  0  0  0  0  0  0
  -14.2106   -2.3188   33.0898 O   0  0  0  0  0  0  0  0  0  0  0  0
  -15.2855   -4.1773   32.0334 C   0  0  2  0  0  0  0  0  0  0  0  0
  -15.2284  -10.2284   29.6654 O   0  0  0  0  0  0  0  0  0  0  0  0
  -16.6520   -9.1189   33.2533 N   0  0  0  0  0  0  0  0  0  0  0  0
  -15.5879   -8.6950   32.4820 C   0  0  0  0  0  0  0  0  0  0  0  0
  -15.3740   -7.3480   32.2580 N   0  0  0  0  0  0  0  0  0  0  0  0
  -16.2106   -6.4255   32.7899 C   0  0  0  0  0  0  0  0  0  0  0  0
  -17.2816   -6.8328   33.5757 C   0  0  0  0  0  0  0  0  0  0  0  0
  -17.5040   -8.1856   33.8028 C   0  0  0  0  0  0  0  0  0  0  0  0
  -18.5355   -8.5760   34.5476 N   0  0  0  0  0  0  0  0  0  0  0  0
  -17.9421   -5.7270   33.9812 N   0  0  0  0  0  0  0  0  0  0  0  0
  -17.3073   -4.6379   33.4877 C   0  0  0  0  0  0  0  0  0  0  0  0
  -16.2315   -5.0514   32.7472 N   0  0  0  0  0  0  0  0  0  0  0  0
  2  1  1  6  0  0  0
  2  3  1  0  0  0  0
  2  5  1  0  0  0  0
  3  4  1  0  0  0  0
  3 17  1  0  0  0  0
  5  6  1  0  0  0  0
  7  6  1  1  0  0  0
  7  8  1  0  0  0  0
  7  9  1  0  0  0  0
 10  9  1  1  0  0  0
 10 11  1  0  0  0  0
 10 12  1  0  0  0  0
 11 16  1  0  0  0  0
 12 13  1  6  0  0  0
 12 14  1  0  0  0  0
 14 15  1  6  0  0  0
 14 16  1  0  0  0  0
 16 27  1  1  0  0  0
 18 19  2  0  0  0  0
 18 23  1  0  0  0  0
 19 20  1  0  0  0  0
 20 21  2  0  0  0  0
 21 22  1  0  0  0  0
 21 27  1  0  0  0  0
 22 23  2  0  0  0  0
 22 25  1  0  0  0  0
 23 24  1  0  0  0  0
 25 26  2  0  0  0  0
 26 27  1  0  0  0  0
M  END
>  <CHROM.1>
-34.82154914,-177.63458360,151.02386849,-76.88168716,-104.77045923,67.31271929
17.49795891,-14.96447923,-6.63496647,31.00338890,1.42919058,-0.74061131,-2.34312667

>  <Name>
ligand

>  <RI>
0

>  <Rbt.Current_Directory>
/home/itssahil/PROJECTS/Mol_Feturizer/New_Systems/rnas/3GX6

>  <Rbt.Executable>
rbdock ($Id: //depot/dev/client3/rdock/2013.1/src/exe/rbdock.cxx#4 $)

>  <Rbt.Library>
libRbt.so (2013.1, Build901 2013/11/27)

>  <Rbt.Parameter_File>
/export/apps/rDock/src/rDock_2013.1_src/data/scripts/dock_solv.prm

>  <Rbt.Receptor>
prm/pocket_docking_5.prm

>  <SCORE>
-20.426

>  <SCORE.INTER>
-11.2738

>  <SCORE.INTER.CONST>
1

>  <SCORE.INTER.POLAR>
0

>  <SCORE.INTER.ROT>
7

>  <SCORE.INTER.SOLV>
12.0396

>  <SCORE.INTER.VDW>
-19.7957

>  <SCORE.INTER.norm>
-0.417549

>  <SCORE.INTRA>
-9.15219

>  <SCORE.INTRA.DIHEDRAL>
-5.90208

>  <SCORE.INTRA.DIHEDRAL.0>
15.0182

>  <SCORE.INTRA.POLAR>
0

>  <SCORE.INTRA.POLAR.0>
0

>  <SCORE.INTRA.REPUL>
0

>  <SCORE.INTRA.REPUL.0>
0

>  <SCORE.INTRA.SOLV>
-1.77872

>  <SCORE.INTRA.SOLV.lig_0>
-47.9129

>  <SCORE.INTRA.VDW>
-5.31179

>  <SCORE.INTRA.VDW.0>
2.00851

>  <SCORE.INTRA.norm>
-0.33897

>  <SCORE.RESTR>
0

>  <SCORE.RESTR.CAVITY>
0

>  <SCORE.RESTR.norm>
0

>  <SCORE.SYSTEM>
0

>  <SCORE.SYSTEM.CONST>
0

>  <SCORE.SYSTEM.DIHEDRAL>
0

>  <SCORE.SYSTEM.SOLV>
0

>  <SCORE.SYSTEM.norm>
0

>  <SCORE.heavy>
27

>  <SCORE.norm>
-0.756519

>  <RMSD>
4.789

$$$$
ligand
 OpenBabel11021811483D
libRbt.so/2013.1/901 2013/11/27
 27 29  0  0  0  0  0  0  0  0999 V2000
  -12.8346   -8.4329   28.8884 N   0  0  0  0  0  0  0  0  0  0  0  0
  -13.3578   -7.1364   28.4664 C   0  0  2  0  0  0  0  0  0  0  0  0
  -12.2493   -6.0986   28.3106 C   0  0  0  0  0  0  0  0  0  0  0  0
  -12.4980   -4.9540   27.9253 O   0  0  0  0  0  0  0  0  0  0  0  0
  -14.4439   -6.6504   29.4214 C   0  0  0  0  0  0  0  0  0  0  0  0
  -15.2963   -5.5307   28.8445 C   0  0  0  0  0  0  0  0  0  0  0  0
  -16.5664   -4.9187   29.9798 S   0  0  2  0  0  0  0  0  0  0  0  0
  -17.9686   -4.7562   28.8466 C   0  0  0  0  0  0  0  0  0  0  0  0
  -16.0578   -3.1880   30.1655 C   0  0  0  0  0  0  0  0  0  0  0  0
  -15.0701   -3.0734   31.3178 C   0  0  1  0  0  0  0  0  0  0  0  0
  -15.5861   -3.7872   32.4159 O   0  0  0  0  0  0  0  0  0  0  0  0
  -13.7024   -3.6835   31.0754 C   0  0  1  0  0  0  0  0  0  0  0  0
  -12.7818   -2.7038   30.6495 O   0  0  0  0  0  0  0  0  0  0  0  0
  -13.3124   -4.2032   32.4442 C   0  0  1  0  0  0  0  0  0  0  0  0
  -12.3372   -3.3459   32.9844 O   0  0  0  0  0  0  0  0  0  0  0  0
  -14.5655   -4.1553   33.3080 C   0  0  2  0  0  0  0  0  0  0  0  0
  -11.0798   -6.3885   28.5632 O   0  0  0  0  0  0  0  0  0  0  0  0
  -18.2062   -7.8690   34.1616 N   0  0  0  0  0  0  0  0  0  0  0  0
  -18.3800   -6.6179   33.6034 C   0  0  0  0  0  0  0  0  0  0  0  0
  -17.3073   -5.7594   33.4536 N   0  0  0  0  0  0  0  0  0  0  0  0
  -16.0703   -6.1341   33.8578 C   0  0  0  0  0  0  0  0  0  0  0  0
  -15.8747   -7.3923   34.4137 C   0  0  0  0  0  0  0  0  0  0  0  0
  -16.9492   -8.2595   34.5697 C   0  0  0  0  0  0  0  0  0  0  0  0
  -16.7634   -9.4610   35.1110 N   0  0  0  0  0  0  0  0  0  0  0  0
  -14.5645   -7.5114   34.7184 N   0  0  0  0  0  0  0  0  0  0  0  0
  -13.9298   -6.3725   34.3543 C   0  0  0  0  0  0  0  0  0  0  0  0
  -14.8471   -5.5075   33.8186 N   0  0  0  0  0  0  0  0  0  0  0  0
  2  1  1  1  0  0  0
  2  3  1  0  0  0  0
  2  5  1  0  0  0  0
  3  4  1  0  0  0  0
  3 17  1  0  0  0  0
  5  6  1  0  0  0  0
  7  6  1  6  0  0  0
  7  8  1  0  0  0  0
  7  9  1  0  0  0  0
 10  9  1  6  0  0  0
 10 11  1  0  0  0  0
 10 12  1  0  0  0  0
 11 16  1  0  0  0  0
 12 13  1  1  0  0  0
 12 14  1  0  0  0  0
 14 15  1  1  0  0  0
 14 16  1  0  0  0  0
 16 27  1  6  0  0  0
 18 19  2  0  0  0  0
 18 23  1  0  0  0  0
 19 20  1  0  0  0  0
 20 21  2  0  0  0  0
 21 22  1  0  0  0  0
 21 27  1  0  0  0  0
 22 23  2  0  0  0  0
 22 25  1  0  0  0  0
 23 24  1  0  0  0  0
 25 26  2  0  0  0  0
 26 27  1  0  0  0  0
M  END
>  <CHROM.1>
178.01827902,-163.54512005,-178.73783565,-137.61930791,-88.88374016,-46.97007095
-22.34194489,-14.93446109,-5.60529522,31.53307960,-0.04233957,-1.01608076
-2.82510594

>  <Name>
ligand

>  <RI>
0

>  <Rbt.Current_Directory>
/home/itssahil/PROJECTS/Mol_Feturizer/New_Systems/rnas/3GX6

>  <Rbt.Executable>
rbdock ($Id: //depot/dev/client3/rdock/2013.1/src/exe/rbdock.cxx#4 $)

>  <Rbt.Library>
libRbt.so (2013.1, Build901 2013/11/27)

>  <Rbt.Parameter_File>
/export/apps/rDock/src/rDock_2013.1_src/data/scripts/dock_solv.prm

>  <Rbt.Receptor>
prm/pocket_docking_5.prm

>  <SCORE>
-18.588

>  <SCORE.INTER>
-9.63695

>  <SCORE.INTER.CONST>
1

>  <SCORE.INTER.POLAR>
0

>  <SCORE.INTER.ROT>
7

>  <SCORE.INTER.SOLV>
12.6264

>  <SCORE.INTER.VDW>
-18.9001

>  <SCORE.INTER.norm>
-0.356924

>  <SCORE.INTRA>
-8.95105

>  <SCORE.INTRA.DIHEDRAL>
-5.04318

>  <SCORE.INTRA.DIHEDRAL.0>
15.0182

>  <SCORE.INTRA.POLAR>
0

>  <SCORE.INTRA.POLAR.0>
0

>  <SCORE.INTRA.REPUL>
0

>  <SCORE.INTRA.REPUL.0>
0

>  <SCORE.INTRA.SOLV>
-1.35091

>  <SCORE.INTRA.SOLV.lig_0>
-47.9129

>  <SCORE.INTRA.VDW>
-5.75401

>  <SCORE.INTRA.VDW.0>
2.00851

>  <SCORE.INTRA.norm>
-0.33152

>  <SCORE.RESTR>
0

>  <SCORE.RESTR.CAVITY>
0

>  <SCORE.RESTR.norm>
0

>  <SCORE.SYSTEM>
0

>  <SCORE.SYSTEM.CONST>
0

>  <SCORE.SYSTEM.DIHEDRAL>
0

>  <SCORE.SYSTEM.SOLV>
0

>  <SCORE.SYSTEM.norm>
0

>  <SCORE.heavy>
27

>  <SCORE.norm>
-0.688444

>  <RMSD>
4.801

$$$$
ligand
 OpenBabel11021811483D
libRbt.so/2013.1/901 2013/11/27
 27 29  0  0  0  0  0  0  0  0999 V2000
  -10.4506   -7.5931   25.9692 N   0  0  0  0  0  0  0  0  0  0  0  0
  -11.9053   -7.7175   26.0048 C   0  0  2  0  0  0  0  0  0  0  0  0
  -12.5291   -7.4998   24.6288 C   0  0  0  0  0  0  0  0  0  0  0  0
  -11.9004   -6.9442   23.7252 O   0  0  0  0  0  0  0  0  0  0  0  0
  -12.5072   -6.7755   27.0432 C   0  0  0  0  0  0  0  0  0  0  0  0
  -13.9547   -7.0973   27.3814 C   0  0  0  0  0  0  0  0  0  0  0  0
  -14.7492   -5.8660   28.4438 S   0  0  2  0  0  0  0  0  0  0  0  0
  -14.6355   -4.3998   27.3885 C   0  0  0  0  0  0  0  0  0  0  0  0
  -13.4288   -5.5427   29.6440 C   0  0  0  0  0  0  0  0  0  0  0  0
  -13.9113   -4.5185   30.6611 C   0  0  1  0  0  0  0  0  0  0  0  0
  -15.1903   -4.9041   31.1051 O   0  0  0  0  0  0  0  0  0  0  0  0
  -13.0846   -4.4100   31.9287 C   0  0  1  0  0  0  0  0  0  0  0  0
  -12.1513   -3.3571   31.8331 O   0  0  0  0  0  0  0  0  0  0  0  0
  -14.1214   -4.0912   32.9867 C   0  0  1  0  0  0  0  0  0  0  0  0
  -14.0036   -2.7325   33.3299 O   0  0  0  0  0  0  0  0  0  0  0  0
  -15.4854   -4.3398   32.3571 C   0  0  2  0  0  0  0  0  0  0  0  0
  -13.6792   -7.8723   24.3963 O   0  0  0  0  0  0  0  0  0  0  0  0
  -15.4344   -9.1494   34.5113 N   0  0  0  0  0  0  0  0  0  0  0  0
  -14.4502   -8.5442   33.7549 C   0  0  0  0  0  0  0  0  0  0  0  0
  -14.6292   -7.2661   33.2604 N   0  0  0  0  0  0  0  0  0  0  0  0
  -15.7772   -6.5918   33.5085 C   0  0  0  0  0  0  0  0  0  0  0  0
  -16.7750   -7.1813   34.2748 C   0  0  0  0  0  0  0  0  0  0  0  0
  -16.6027   -8.4670   34.7729 C   0  0  0  0  0  0  0  0  0  0  0  0
  -17.5626   -9.0352   35.4989 N   0  0  0  0  0  0  0  0  0  0  0  0
  -17.7950   -6.3018   34.3743 N   0  0  0  0  0  0  0  0  0  0  0  0
  -17.4594   -5.1721   33.7081 C   0  0  0  0  0  0  0  0  0  0  0  0
  -16.2119   -5.3334   33.1654 N   0  0  0  0  0  0  0  0  0  0  0  0
  2  1  1  6  0  0  0
  2  3  1  0  0  0  0
  2  5  1  0  0  0  0
  3  4  1  0  0  0  0
  3 17  1  0  0  0  0
  5  6  1  0  0  0  0
  7  6  1  6  0  0  0
  7  8  1  0  0  0  0
  7  9  1  0  0  0  0
 10  9  1  6  0  0  0
 10 11  1  0  0  0  0
 10 12  1  0  0  0  0
 11 16  1  0  0  0  0
 12 13  1  6  0  0  0
 12 14  1  0  0  0  0
 14 15  1  6  0  0  0
 14 16  1  0  0  0  0
 16 27  1  1  0  0  0
 18 19  2  0  0  0  0
 18 23  1  0  0  0  0
 19 20  1  0  0  0  0
 20 21  2  0  0  0  0
 21 22  1  0  0  0  0
 21 27  1  0  0  0  0
 22 23  2  0  0  0  0
 22 25  1  0  0  0  0
 23 24  1  0  0  0  0
 25 26  2  0  0  0  0
 26 27  1  0  0  0  0
M  END
>  <CHROM.1>
-17.74031853,-165.40096771,-172.43751851,61.13870740,-179.39380351,47.42531069
57.78793555,-14.41963783,-6.18313106,30.51264088,0.63011816,-1.08158948,-2.49328902

>  <Name>
ligand

>  <RI>
0

>  <Rbt.Current_Directory>
/home/itssahil/PROJECTS/Mol_Feturizer/New_Systems/rnas/3GX6

>  <Rbt.Executable>
rbdock ($Id: //depot/dev/client3/rdock/2013.1/src/exe/rbdock.cxx#4 $)

>  <Rbt.Library>
libRbt.so (2013.1, Build901 2013/11/27)

>  <Rbt.Parameter_File>
/export/apps/rDock/src/rDock_2013.1_src/data/scripts/dock_solv.prm

>  <Rbt.Receptor>
prm/pocket_docking_7.prm

>  <SCORE>
-19.3425

>  <SCORE.INTER>
-10.1059

>  <SCORE.INTER.CONST>
1

>  <SCORE.INTER.POLAR>
0

>  <SCORE.INTER.ROT>
7

>  <SCORE.INTER.SOLV>
13.1186

>  <SCORE.INTER.VDW>
-19.3768

>  <SCORE.INTER.norm>
-0.374291

>  <SCORE.INTRA>
-9.23662

>  <SCORE.INTRA.DIHEDRAL>
-9.83755

>  <SCORE.INTRA.DIHEDRAL.0>
15.0182

>  <SCORE.INTRA.POLAR>
0

>  <SCORE.INTRA.POLAR.0>
0

>  <SCORE.INTRA.REPUL>
0

>  <SCORE.INTRA.REPUL.0>
0

>  <SCORE.INTRA.SOLV>
-1.74095

>  <SCORE.INTRA.SOLV.lig_0>
-47.9129

>  <SCORE.INTRA.VDW>
-3.44737

>  <SCORE.INTRA.VDW.0>
2.00851

>  <SCORE.INTRA.norm>
-0.342097

>  <SCORE.RESTR>
0

>  <SCORE.RESTR.CAVITY>
0

>  <SCORE.RESTR.norm>
0

>  <SCORE.SYSTEM>
0

>  <SCORE.SYSTEM.CONST>
0

>  <SCORE.SYSTEM.DIHEDRAL>
0

>  <SCORE.SYSTEM.SOLV>
0

>  <SCORE.SYSTEM.norm>
0

>  <SCORE.heavy>
27

>  <SCORE.norm>
-0.716388

>  <RMSD>
4.811

$$$$
ligand
 OpenBabel11021811483D
libRbt.so/2013.1/901 2013/11/27
 27 29  0  0  0  0  0  0  0  0999 V2000
  -14.7713   -6.6777   26.9126 N   0  0  0  0  0  0  0  0  0  0  0  0
  -14.3382   -5.2862   27.0075 C   0  0  2  0  0  0  0  0  0  0  0  0
  -13.3883   -5.0645   28.1816 C   0  0  0  0  0  0  0  0  0  0  0  0
  -12.9494   -6.0143   28.8339 O   0  0  0  0  0  0  0  0  0  0  0  0
  -15.5378   -4.3461   27.0779 C   0  0  0  0  0  0  0  0  0  0  0  0
  -16.6217   -4.8230   28.0323 C   0  0  0  0  0  0  0  0  0  0  0  0
  -16.0841   -4.9265   29.7575 S   0  0  2  0  0  0  0  0  0  0  0  0
  -17.6204   -5.4660   30.5481 C   0  0  0  0  0  0  0  0  0  0  0  0
  -16.0477   -3.1717   30.2132 C   0  0  0  0  0  0  0  0  0  0  0  0
  -15.1336   -2.9815   31.4151 C   0  0  1  0  0  0  0  0  0  0  0  0
  -15.5971   -3.8049   32.4586 O   0  0  0  0  0  0  0  0  0  0  0  0
  -13.6882   -3.3972   31.2150 C   0  0  1  0  0  0  0  0  0  0  0  0
  -12.8877   -2.2880   30.8723 O   0  0  0  0  0  0  0  0  0  0  0  0
  -13.2916   -3.9227   32.5797 C   0  0  1  0  0  0  0  0  0  0  0  0
  -12.4618   -2.9710   33.1990 O   0  0  0  0  0  0  0  0  0  0  0  0
  -14.5756   -4.0768   33.3836 C   0  0  2  0  0  0  0  0  0  0  0  0
  -13.0454   -3.9268   28.5037 O   0  0  0  0  0  0  0  0  0  0  0  0
  -17.8088   -8.1328   34.3166 N   0  0  0  0  0  0  0  0  0  0  0  0
  -18.1349   -6.8708   33.8606 C   0  0  0  0  0  0  0  0  0  0  0  0
  -17.1537   -5.9161   33.6711 N   0  0  0  0  0  0  0  0  0  0  0  0
  -15.8576   -6.2062   33.9356 C   0  0  0  0  0  0  0  0  0  0  0  0
  -15.5095   -7.4733   34.3870 C   0  0  0  0  0  0  0  0  0  0  0  0
  -16.4913   -8.4371   34.5822 C   0  0  0  0  0  0  0  0  0  0  0  0
  -16.1588   -9.6478   35.0237 N   0  0  0  0  0  0  0  0  0  0  0  0
  -14.1708   -7.4971   34.5629 N   0  0  0  0  0  0  0  0  0  0  0  0
  -13.6671   -6.2886   34.2189 C   0  0  0  0  0  0  0  0  0  0  0  0
  -14.6979   -5.4757   33.8270 N   0  0  0  0  0  0  0  0  0  0  0  0
  2  1  1  1  0  0  0
  2  3  1  0  0  0  0
  2  5  1  0  0  0  0
  3  4  1  0  0  0  0
  3 17  1  0  0  0  0
  5  6  1  0  0  0  0
  7  6  1  6  0  0  0
  7  8  1  0  0  0  0
  7  9  1  0  0  0  0
 10  9  1  6  0  0  0
 10 11  1  0  0  0  0
 10 12  1  0  0  0  0
 11 16  1  0  0  0  0
 12 13  1  1  0  0  0
 12 14  1  0  0  0  0
 14 15  1  1  0  0  0
 14 16  1  0  0  0  0
 16 27  1  6  0  0  0
 18 19  2  0  0  0  0
 18 23  1  0  0  0  0
 19 20  1  0  0  0  0
 20 21  2  0  0  0  0
 21 22  1  0  0  0  0
 21 27  1  0  0  0  0
 22 23  2  0  0  0  0
 22 25  1  0  0  0  0
 23 24  1  0  0  0  0
 25 26  2  0  0  0  0
 26 27  1  0  0  0  0
M  END
>  <CHROM.1>
8.04838229,44.59753446,62.71711141,178.49169802,-158.35585207,-56.78085727
-30.85024192,-15.10705088,-5.28977416,31.42525321,1.21248118,-0.81662274
-1.39156043

>  <Name>
ligand

>  <RI>
0

>  <Rbt.Current_Directory>
/home/itssahil/PROJECTS/Mol_Feturizer/New_Systems/rnas/3GX6

>  <Rbt.Executable>
rbdock ($Id: //depot/dev/client3/rdock/2013.1/src/exe/rbdock.cxx#4 $)

>  <Rbt.Library>
libRbt.so (2013.1, Build901 2013/11/27)

>  <Rbt.Parameter_File>
/export/apps/rDock/src/rDock_2013.1_src/data/scripts/dock_solv.prm

>  <Rbt.Receptor>
prm/pocket_docking_4.prm

>  <SCORE>
-21.3246

>  <SCORE.INTER>
-11.4448

>  <SCORE.INTER.CONST>
1

>  <SCORE.INTER.POLAR>
0

>  <SCORE.INTER.ROT>
7

>  <SCORE.INTER.SOLV>
15.4541

>  <SCORE.INTER.VDW>
-21.0479

>  <SCORE.INTER.norm>
-0.42388

>  <SCORE.INTRA>
-9.91473

>  <SCORE.INTRA.DIHEDRAL>
-8.54948

>  <SCORE.INTRA.DIHEDRAL.0>
15.0182

>  <SCORE.INTRA.POLAR>
0

>  <SCORE.INTRA.POLAR.0>
0

>  <SCORE.INTRA.REPUL>
0

>  <SCORE.INTRA.REPUL.0>
0

>  <SCORE.INTRA.SOLV>
0.256602

>  <SCORE.INTRA.SOLV.lig_0>
-47.9129

>  <SCORE.INTRA.VDW>
-5.76829

>  <SCORE.INTRA.VDW.0>
2.00851

>  <SCORE.INTRA.norm>
-0.367212

>  <SCORE.RESTR>
0.0348978

>  <SCORE.RESTR.CAVITY>
0.0348978

>  <SCORE.RESTR.norm>
0.00129251

>  <SCORE.SYSTEM>
0

>  <SCORE.SYSTEM.CONST>
0

>  <SCORE.SYSTEM.DIHEDRAL>
0

>  <SCORE.SYSTEM.SOLV>
0

>  <SCORE.SYSTEM.norm>
0

>  <SCORE.heavy>
27

>  <SCORE.norm>
-0.7898

>  <RMSD>
4.816

$$$$
ligand
 OpenBabel11021811483D
libRbt.so/2013.1/901 2013/11/27
 27 29  0  0  0  0  0  0  0  0999 V2000
  -15.8924   -7.3807   26.1365 N   0  0  0  0  0  0  0  0  0  0  0  0
  -14.8828   -6.4836   25.5810 C   0  0  2  0  0  0  0  0  0  0  0  0
  -13.6073   -7.2295   25.1979 C   0  0  0  0  0  0  0  0  0  0  0  0
  -13.3969   -8.3774   25.5959 O   0  0  0  0  0  0  0  0  0  0  0  0
  -14.5877   -5.3348   26.5409 C   0  0  0  0  0  0  0  0  0  0  0  0
  -14.1814   -5.8003   27.9306 C   0  0  0  0  0  0  0  0  0  0  0  0
  -12.4962   -5.3314   28.3958 S   0  0  2  0  0  0  0  0  0  0  0  0
  -11.5620   -6.7004   27.6679 C   0  0  0  0  0  0  0  0  0  0  0  0
  -12.4837   -5.7868   30.1510 C   0  0  0  0  0  0  0  0  0  0  0  0
  -13.3482   -4.8079   30.9324 C   0  0  1  0  0  0  0  0  0  0  0  0
  -14.5366   -5.4651   31.3032 O   0  0  0  0  0  0  0  0  0  0  0  0
  -12.7626   -4.3122   32.2413 C   0  0  1  0  0  0  0  0  0  0  0  0
  -12.1235   -3.0671   32.0679 O   0  0  0  0  0  0  0  0  0  0  0  0
  -13.9842   -4.1512   33.1231 C   0  0  1  0  0  0  0  0  0  0  0  0
  -14.2648   -2.7788   33.2483 O   0  0  0  0  0  0  0  0  0  0  0  0
  -15.1380   -4.8425   32.4094 C   0  0  2  0  0  0  0  0  0  0  0  0
  -12.7585   -6.6938   24.4850 O   0  0  0  0  0  0  0  0  0  0  0  0
  -14.1203   -8.8374   35.6928 N   0  0  0  0  0  0  0  0  0  0  0  0
  -13.2189   -8.0480   35.0063 C   0  0  0  0  0  0  0  0  0  0  0  0
  -13.6605   -7.0348   34.1765 N   0  0  0  0  0  0  0  0  0  0  0  0
  -14.9864   -6.8065   34.0226 C   0  0  0  0  0  0  0  0  0  0  0  0
  -15.9080   -7.5850   34.7118 C   0  0  0  0  0  0  0  0  0  0  0  0
  -15.4710   -8.6070   35.5457 C   0  0  0  0  0  0  0  0  0  0  0  0
  -16.3542   -9.3588   36.1984 N   0  0  0  0  0  0  0  0  0  0  0  0
  -17.1440   -7.1473   34.3886 N   0  0  0  0  0  0  0  0  0  0  0  0
  -17.0245   -6.1066   33.5311 C   0  0  0  0  0  0  0  0  0  0  0  0
  -15.6944   -5.8808   33.2931 N   0  0  0  0  0  0  0  0  0  0  0  0
  2  1  1  1  0  0  0
  2  3  1  0  0  0  0
  2  5  1  0  0  0  0
  3  4  1  0  0  0  0
  3 17  1  0  0  0  0
  5  6  1  0  0  0  0
  7  6  1  6  0  0  0
  7  8  1  0  0  0  0
  7  9  1  0  0  0  0
 10  9  1  1  0  0  0
 10 11  1  0  0  0  0
 10 12  1  0  0  0  0
 11 16  1  0  0  0  0
 12 13  1  6  0  0  0
 12 14  1  0  0  0  0
 14 15  1  6  0  0  0
 14 16  1  0  0  0  0
 16 27  1  1  0  0  0
 18 19  2  0  0  0  0
 18 23  1  0  0  0  0
 19 20  1  0  0  0  0
 20 21  2  0  0  0  0
 21 22  1  0  0  0  0
 21 27  1  0  0  0  0
 22 23  2  0  0  0  0
 22 25  1  0  0  0  0
 23 24  1  0  0  0  0
 25 26  2  0  0  0  0
 26 27  1  0  0  0  0
M  END
>  <CHROM.1>
-14.46281722,54.98082556,116.64207760,-85.44802100,-71.53579360,107.02181173
67.21850744,-14.14930704,-6.20866198,30.86076264,1.17276548,-1.05425529,-1.86015891

>  <Name>
ligand

>  <RI>
0

>  <Rbt.Current_Directory>
/home/itssahil/PROJECTS/Mol_Feturizer/New_Systems/rnas/3GX6

>  <Rbt.Executable>
rbdock ($Id: //depot/dev/client3/rdock/2013.1/src/exe/rbdock.cxx#4 $)

>  <Rbt.Library>
libRbt.so (2013.1, Build901 2013/11/27)

>  <Rbt.Parameter_File>
/export/apps/rDock/src/rDock_2013.1_src/data/scripts/dock_solv.prm

>  <Rbt.Receptor>
prm/pocket_docking_5.prm

>  <SCORE>
-19.4699

>  <SCORE.INTER>
-13.5123

>  <SCORE.INTER.CONST>
1

>  <SCORE.INTER.POLAR>
0

>  <SCORE.INTER.ROT>
7

>  <SCORE.INTER.SOLV>
15.8244

>  <SCORE.INTER.VDW>
-22.5496

>  <SCORE.INTER.norm>
-0.500454

>  <SCORE.INTRA>
-5.95766

>  <SCORE.INTRA.DIHEDRAL>
-0.720993

>  <SCORE.INTRA.DIHEDRAL.0>
15.0182

>  <SCORE.INTRA.POLAR>
0

>  <SCORE.INTRA.POLAR.0>
0

>  <SCORE.INTRA.REPUL>
0

>  <SCORE.INTRA.REPUL.0>
0

>  <SCORE.INTRA.SOLV>
-0.921096

>  <SCORE.INTRA.SOLV.lig_0>
-47.9129

>  <SCORE.INTRA.VDW>
-5.13662

>  <SCORE.INTRA.VDW.0>
2.00851

>  <SCORE.INTRA.norm>
-0.220654

>  <SCORE.RESTR>
0

>  <SCORE.RESTR.CAVITY>
0

>  <SCORE.RESTR.norm>
0

>  <SCORE.SYSTEM>
0

>  <SCORE.SYSTEM.CONST>
0

>  <SCORE.SYSTEM.DIHEDRAL>
0

>  <SCORE.SYSTEM.SOLV>
0

>  <SCORE.SYSTEM.norm>
0

>  <SCORE.heavy>
27

>  <SCORE.norm>
-0.721108

>  <RMSD>
4.819

$$$$
ligand
 OpenBabel11021811483D
libRbt.so/2013.1/901 2013/11/27
 27 29  0  0  0  0  0  0  0  0999 V2000
  -11.5721   -9.6042   28.7022 N   0  0  0  0  0  0  0  0  0  0  0  0
  -11.6657   -8.2043   29.1076 C   0  0  2  0  0  0  0  0  0  0  0  0
  -12.5377   -8.0279   30.3480 C   0  0  0  0  0  0  0  0  0  0  0  0
  -12.1853   -7.2957   31.2753 O   0  0  0  0  0  0  0  0  0  0  0  0
  -12.1577   -7.3350   27.9542 C   0  0  0  0  0  0  0  0  0  0  0  0
  -12.2833   -5.8640   28.3195 C   0  0  0  0  0  0  0  0  0  0  0  0
  -13.7480   -5.4785   29.3107 S   0  0  2  0  0  0  0  0  0  0  0  0
  -15.0514   -5.7220   28.0785 C   0  0  0  0  0  0  0  0  0  0  0  0
  -13.6541   -3.6687   29.3750 C   0  0  0  0  0  0  0  0  0  0  0  0
  -13.7012   -3.2124   30.8262 C   0  0  1  0  0  0  0  0  0  0  0  0
  -14.9783   -3.5050   31.3411 O   0  0  0  0  0  0  0  0  0  0  0  0
  -12.7407   -3.9139   31.7682 C   0  0  1  0  0  0  0  0  0  0  0  0
  -11.5597   -3.1617   31.9357 O   0  0  0  0  0  0  0  0  0  0  0  0
  -13.5143   -3.9641   33.0701 C   0  0  1  0  0  0  0  0  0  0  0  0
  -12.9702   -3.0096   33.9480 O   0  0  0  0  0  0  0  0  0  0  0  0
  -14.9538   -3.5911   32.7429 C   0  0  2  0  0  0  0  0  0  0  0  0
  -13.6120   -8.6208   30.4479 O   0  0  0  0  0  0  0  0  0  0  0  0
  -15.3021   -8.5874   34.3834 N   0  0  0  0  0  0  0  0  0  0  0  0
  -14.1641   -7.8721   34.0667 C   0  0  0  0  0  0  0  0  0  0  0  0
  -14.2533   -6.5585   33.6462 N   0  0  0  0  0  0  0  0  0  0  0  0
  -15.4615   -5.9569   33.5351 C   0  0  0  0  0  0  0  0  0  0  0  0
  -16.6168   -6.6582   33.8576 C   0  0  0  0  0  0  0  0  0  0  0  0
  -16.5346   -7.9800   34.2784 C   0  0  0  0  0  0  0  0  0  0  0  0
  -17.6420   -8.6545   34.5782 N   0  0  0  0  0  0  0  0  0  0  0  0
  -17.6688   -5.8328   33.6686 N   0  0  0  0  0  0  0  0  0  0  0  0
  -17.2065   -4.6299   33.2539 C   0  0  0  0  0  0  0  0  0  0  0  0
  -15.8407   -4.6880   33.1659 N   0  0  0  0  0  0  0  0  0  0  0  0
  2  1  1  6  0  0  0
  2  3  1  0  0  0  0
  2  5  1  0  0  0  0
  3  4  1  0  0  0  0
  3 17  1  0  0  0  0
  5  6  1  0  0  0  0
  7  6  1  6  0  0  0
  7  8  1  0  0  0  0
  7  9  1  0  0  0  0
 10  9  1  6  0  0  0
 10 11  1  0  0  0  0
 10 12  1  0  0  0  0
 11 16  1  0  0  0  0
 12 13  1  1  0  0  0
 12 14  1  0  0  0  0
 14 15  1  1  0  0  0
 14 16  1  0  0  0  0
 16 27  1  6  0  0  0
 18 19  2  0  0  0  0
 18 23  1  0  0  0  0
 19 20  1  0  0  0  0
 20 21  2  0  0  0  0
 21 22  1  0  0  0  0
 21 27  1  0  0  0  0
 22 23  2  0  0  0  0
 22 25  1  0  0  0  0
 23 24  1  0  0  0  0
 25 26  2  0  0  0  0
 26 27  1  0  0  0  0
M  END
>  <CHROM.1>
135.54209401,179.67152843,-76.79556816,-70.01315090,-126.27337732,-67.29737207
100.38511001,-14.13211149,-5.92993811,31.57645756,0.18872861,-0.92789917
-2.99571349

>  <Name>
ligand

>  <RI>
0

>  <Rbt.Current_Directory>
/home/itssahil/PROJECTS/Mol_Feturizer/New_Systems/rnas/3GX6

>  <Rbt.Executable>
rbdock ($Id: //depot/dev/client3/rdock/2013.1/src/exe/rbdock.cxx#4 $)

>  <Rbt.Library>
libRbt.so (2013.1, Build901 2013/11/27)

>  <Rbt.Parameter_File>
/export/apps/rDock/src/rDock_2013.1_src/data/scripts/dock_solv.prm

>  <Rbt.Receptor>
prm/pocket_docking_4.prm

>  <SCORE>
-21.8083

>  <SCORE.INTER>
-12.8311

>  <SCORE.INTER.CONST>
1

>  <SCORE.INTER.POLAR>
0

>  <SCORE.INTER.ROT>
7

>  <SCORE.INTER.SOLV>
14.7328

>  <SCORE.INTER.VDW>
-21.7317

>  <SCORE.INTER.norm>
-0.475228

>  <SCORE.INTRA>
-8.97721

>  <SCORE.INTRA.DIHEDRAL>
-6.31783

>  <SCORE.INTRA.DIHEDRAL.0>
15.0182

>  <SCORE.INTRA.POLAR>
0

>  <SCORE.INTRA.POLAR.0>
0

>  <SCORE.INTRA.REPUL>
0

>  <SCORE.INTRA.REPUL.0>
0

>  <SCORE.INTRA.SOLV>
-1.48494

>  <SCORE.INTRA.SOLV.lig_0>
-47.9129

>  <SCORE.INTRA.VDW>
-5.07582

>  <SCORE.INTRA.VDW.0>
2.00851

>  <SCORE.INTRA.norm>
-0.332489

>  <SCORE.RESTR>
0

>  <SCORE.RESTR.CAVITY>
0

>  <SCORE.RESTR.norm>
0

>  <SCORE.SYSTEM>
0

>  <SCORE.SYSTEM.CONST>
0

>  <SCORE.SYSTEM.DIHEDRAL>
0

>  <SCORE.SYSTEM.SOLV>
0

>  <SCORE.SYSTEM.norm>
0

>  <SCORE.heavy>
27

>  <SCORE.norm>
-0.807717

>  <RMSD>
4.834

$$$$
ligand
 OpenBabel11021811483D
libRbt.so/2013.1/901 2013/11/27
 27 29  0  0  0  0  0  0  0  0999 V2000
  -15.3823   -5.0409   26.7628 N   0  0  0  0  0  0  0  0  0  0  0  0
  -14.2908   -5.8300   26.1982 C   0  0  2  0  0  0  0  0  0  0  0  0
  -14.7937   -6.8528   25.1829 C   0  0  0  0  0  0  0  0  0  0  0  0
  -14.4451   -6.8018   24.0013 O   0  0  0  0  0  0  0  0  0  0  0  0
  -13.4739   -6.4968   27.3009 C   0  0  0  0  0  0  0  0  0  0  0  0
  -12.5541   -5.5338   28.0355 C   0  0  0  0  0  0  0  0  0  0  0  0
  -11.4603   -6.3366   29.2335 S   0  0  2  0  0  0  0  0  0  0  0  0
  -10.8038   -7.6882   28.2242 C   0  0  0  0  0  0  0  0  0  0  0  0
  -12.6649   -7.2164   30.2647 C   0  0  0  0  0  0  0  0  0  0  0  0
  -13.5959   -6.2089   30.9238 C   0  0  1  0  0  0  0  0  0  0  0  0
  -14.6264   -6.9161   31.5716 O   0  0  0  0  0  0  0  0  0  0  0  0
  -12.9761   -5.3551   32.0140 C   0  0  1  0  0  0  0  0  0  0  0  0
  -12.5596   -4.1087   31.5023 O   0  0  0  0  0  0  0  0  0  0  0  0
  -14.1202   -5.1611   32.9883 C   0  0  1  0  0  0  0  0  0  0  0  0
  -14.6001   -3.8459   32.8548 O   0  0  0  0  0  0  0  0  0  0  0  0
  -15.2124   -6.1435   32.5878 C   0  0  2  0  0  0  0  0  0  0  0  0
  -15.5647   -7.7492   25.5261 O   0  0  0  0  0  0  0  0  0  0  0  0
  -13.3378   -8.6371   36.8355 N   0  0  0  0  0  0  0  0  0  0  0  0
  -12.6492   -7.8397   35.9427 C   0  0  0  0  0  0  0  0  0  0  0  0
  -13.3007   -7.2589   34.8711 N   0  0  0  0  0  0  0  0  0  0  0  0
  -14.6249   -7.4692   34.6806 C   0  0  0  0  0  0  0  0  0  0  0  0
  -15.3359   -8.2616   35.5734 C   0  0  0  0  0  0  0  0  0  0  0  0
  -14.6867   -8.8507   36.6515 C   0  0  0  0  0  0  0  0  0  0  0  0
  -15.3660   -9.6174   37.5011 N   0  0  0  0  0  0  0  0  0  0  0  0
  -16.6212   -8.2995   35.1607 N   0  0  0  0  0  0  0  0  0  0  0  0
  -16.7408   -7.5408   34.0460 C   0  0  0  0  0  0  0  0  0  0  0  0
  -15.5138   -7.0178   33.7338 N   0  0  0  0  0  0  0  0  0  0  0  0
  2  1  1  1  0  0  0
  2  3  1  0  0  0  0
  2  5  1  0  0  0  0
  3  4  1  0  0  0  0
  3 17  1  0  0  0  0
  5  6  1  0  0  0  0
  7  6  1  6  0  0  0
  7  8  1  0  0  0  0
  7  9  1  0  0  0  0
 10  9  1  1  0  0  0
 10 11  1  0  0  0  0
 10 12  1  0  0  0  0
 11 16  1  0  0  0  0
 12 13  1  6  0  0  0
 12 14  1  0  0  0  0
 14 15  1  6  0  0  0
 14 16  1  0  0  0  0
 16 27  1  1  0  0  0
 18 19  2  0  0  0  0
 18 23  1  0  0  0  0
 19 20  1  0  0  0  0
 20 21  2  0  0  0  0
 21 22  1  0  0  0  0
 21 27  1  0  0  0  0
 22 23  2  0  0  0  0
 22 25  1  0  0  0  0
 23 24  1  0  0  0  0
 25 26  2  0  0  0  0
 26 27  1  0  0  0  0
M  END
>  <CHROM.1>
117.48772641,-75.26143777,-174.26148349,48.49080465,-61.66067322,172.25952286
78.99657620,-13.97638514,-6.75731426,31.25293300,1.46361194,-0.38348687,-1.45045146

>  <Name>
ligand

>  <RI>
0

>  <Rbt.Current_Directory>
/home/itssahil/PROJECTS/Mol_Feturizer/New_Systems/rnas/3GX6

>  <Rbt.Executable>
rbdock ($Id: //depot/dev/client3/rdock/2013.1/src/exe/rbdock.cxx#4 $)

>  <Rbt.Library>
libRbt.so (2013.1, Build901 2013/11/27)

>  <Rbt.Parameter_File>
/export/apps/rDock/src/rDock_2013.1_src/data/scripts/dock_solv.prm

>  <Rbt.Receptor>
prm/pocket_docking_7.prm

>  <SCORE>
-20.9996

>  <SCORE.INTER>
-11.9404

>  <SCORE.INTER.CONST>
1

>  <SCORE.INTER.POLAR>
0

>  <SCORE.INTER.ROT>
7

>  <SCORE.INTER.SOLV>
16.1487

>  <SCORE.INTER.VDW>
-21.6098

>  <SCORE.INTER.norm>
-0.442236

>  <SCORE.INTRA>
-9.05924

>  <SCORE.INTRA.DIHEDRAL>
-10.4466

>  <SCORE.INTRA.DIHEDRAL.0>
15.0182

>  <SCORE.INTRA.POLAR>
0

>  <SCORE.INTRA.POLAR.0>
0

>  <SCORE.INTRA.REPUL>
0

>  <SCORE.INTRA.REPUL.0>
0

>  <SCORE.INTRA.SOLV>
-1.03295

>  <SCORE.INTRA.SOLV.lig_0>
-47.9129

>  <SCORE.INTRA.VDW>
-3.31946

>  <SCORE.INTRA.VDW.0>
2.00851

>  <SCORE.INTRA.norm>
-0.335527

>  <SCORE.RESTR>
0

>  <SCORE.RESTR.CAVITY>
0

>  <SCORE.RESTR.norm>
0

>  <SCORE.SYSTEM>
0

>  <SCORE.SYSTEM.CONST>
0

>  <SCORE.SYSTEM.DIHEDRAL>
0

>  <SCORE.SYSTEM.SOLV>
0

>  <SCORE.SYSTEM.norm>
0

>  <SCORE.heavy>
27

>  <SCORE.norm>
-0.777763

>  <RMSD>
4.837

$$$$
ligand
 OpenBabel11021811483D
libRbt.so/2013.1/901 2013/11/27
 27 29  0  0  0  0  0  0  0  0999 V2000
  -12.2062   -9.7451   29.8931 N   0  0  0  0  0  0  0  0  0  0  0  0
  -12.6121   -8.3691   30.1663 C   0  0  2  0  0  0  0  0  0  0  0  0
  -14.1050   -8.2651   30.4673 C   0  0  0  0  0  0  0  0  0  0  0  0
  -14.5179   -7.5983   31.4187 O   0  0  0  0  0  0  0  0  0  0  0  0
  -12.2105   -7.4452   29.0204 C   0  0  0  0  0  0  0  0  0  0  0  0
  -12.4310   -5.9723   29.3286 C   0  0  0  0  0  0  0  0  0  0  0  0
  -14.1666   -5.4626   29.2625 S   0  0  2  0  0  0  0  0  0  0  0  0
  -14.4907   -5.6309   27.4896 C   0  0  0  0  0  0  0  0  0  0  0  0
  -14.0041   -3.6638   29.4244 C   0  0  0  0  0  0  0  0  0  0  0  0
  -13.9713   -3.2910   30.8996 C   0  0  1  0  0  0  0  0  0  0  0  0
  -15.2256   -3.5958   31.4613 O   0  0  0  0  0  0  0  0  0  0  0  0
  -12.9763   -4.0580   31.7503 C   0  0  1  0  0  0  0  0  0  0  0  0
  -11.7765   -3.3323   31.9001 O   0  0  0  0  0  0  0  0  0  0  0  0
  -13.6846   -4.1727   33.0849 C   0  0  1  0  0  0  0  0  0  0  0  0
  -13.0821   -3.2774   33.9867 O   0  0  0  0  0  0  0  0  0  0  0  0
  -15.1325   -3.7626   32.8529 C   0  0  2  0  0  0  0  0  0  0  0  0
  -14.9280   -8.8524   29.7649 O   0  0  0  0  0  0  0  0  0  0  0  0
  -15.4538   -8.6423   34.8176 N   0  0  0  0  0  0  0  0  0  0  0  0
  -14.3184   -7.8948   34.5746 C   0  0  0  0  0  0  0  0  0  0  0  0
  -14.4146   -6.6202   34.0490 N   0  0  0  0  0  0  0  0  0  0  0  0
  -15.6266   -6.0894   33.7608 C   0  0  0  0  0  0  0  0  0  0  0  0
  -16.7805   -6.8234   34.0066 C   0  0  0  0  0  0  0  0  0  0  0  0
  -16.6909   -8.1065   34.5324 C   0  0  0  0  0  0  0  0  0  0  0  0
  -17.7958   -8.8130   34.7588 N   0  0  0  0  0  0  0  0  0  0  0  0
  -17.8381   -6.0672   33.6414 N   0  0  0  0  0  0  0  0  0  0  0  0
  -17.3829   -4.8747   33.1904 C   0  0  0  0  0  0  0  0  0  0  0  0
  -16.0146   -4.8701   33.2575 N   0  0  0  0  0  0  0  0  0  0  0  0
  2  1  1  6  0  0  0
  2  3  1  0  0  0  0
  2  5  1  0  0  0  0
  3  4  1  0  0  0  0
  3 17  1  0  0  0  0
  5  6  1  0  0  0  0
  7  6  1  6  0  0  0
  7  8  1  0  0  0  0
  7  9  1  0  0  0  0
 10  9  1  6  0  0  0
 10 11  1  0  0  0  0
 10 12  1  0  0  0  0
 11 16  1  0  0  0  0
 12 13  1  1  0  0  0
 12 14  1  0  0  0  0
 14 15  1  1  0  0  0
 14 16  1  0  0  0  0
 16 27  1  6  0  0  0
 18 19  2  0  0  0  0
 18 23  1  0  0  0  0
 19 20  1  0  0  0  0
 20 21  2  0  0  0  0
 21 22  1  0  0  0  0
 21 27  1  0  0  0  0
 22 23  2  0  0  0  0
 22 25  1  0  0  0  0
 23 24  1  0  0  0  0
 25 26  2  0  0  0  0
 26 27  1  0  0  0  0
M  END
>  <CHROM.1>
134.24282442,-171.96871438,-75.19302227,-68.07924977,-86.90250395,-66.06863896
112.80636886,-14.52302238,-6.06043325,31.76867799,0.02083210,-1.00551184
-2.87251597

>  <Name>
ligand

>  <RI>
0

>  <Rbt.Current_Directory>
/home/itssahil/PROJECTS/Mol_Feturizer/New_Systems/rnas/3GX6

>  <Rbt.Executable>
rbdock ($Id: //depot/dev/client3/rdock/2013.1/src/exe/rbdock.cxx#4 $)

>  <Rbt.Library>
libRbt.so (2013.1, Build901 2013/11/27)

>  <Rbt.Parameter_File>
/export/apps/rDock/src/rDock_2013.1_src/data/scripts/dock_solv.prm

>  <Rbt.Receptor>
prm/pocket_docking_6.prm

>  <SCORE>
-21.498

>  <SCORE.INTER>
-10.6507

>  <SCORE.INTER.CONST>
1

>  <SCORE.INTER.POLAR>
0

>  <SCORE.INTER.ROT>
7

>  <SCORE.INTER.SOLV>
15.3703

>  <SCORE.INTER.VDW>
-20.4905

>  <SCORE.INTER.norm>
-0.394469

>  <SCORE.INTRA>
-10.852

>  <SCORE.INTRA.DIHEDRAL>
-9.7104

>  <SCORE.INTRA.DIHEDRAL.0>
15.0182

>  <SCORE.INTRA.POLAR>
0

>  <SCORE.INTRA.POLAR.0>
0

>  <SCORE.INTRA.REPUL>
0

>  <SCORE.INTRA.REPUL.0>
0

>  <SCORE.INTRA.SOLV>
-1.33164

>  <SCORE.INTRA.SOLV.lig_0>
-47.9129

>  <SCORE.INTRA.VDW>
-5.33097

>  <SCORE.INTRA.VDW.0>
2.00851

>  <SCORE.INTRA.norm>
-0.401925

>  <SCORE.RESTR>
0.00464116

>  <SCORE.RESTR.CAVITY>
0.00464116

>  <SCORE.RESTR.norm>
0.000171895

>  <SCORE.SYSTEM>
0

>  <SCORE.SYSTEM.CONST>
0

>  <SCORE.SYSTEM.DIHEDRAL>
0

>  <SCORE.SYSTEM.SOLV>
0

>  <SCORE.SYSTEM.norm>
0

>  <SCORE.heavy>
27

>  <SCORE.norm>
-0.796222

>  <RMSD>
4.844

$$$$
ligand
 OpenBabel11021811483D
libRbt.so/2013.1/901 2013/11/27
 27 29  0  0  0  0  0  0  0  0999 V2000
  -10.7864   -8.9732   29.0408 N   0  0  0  0  0  0  0  0  0  0  0  0
  -11.4123   -7.9346   28.2270 C   0  0  2  0  0  0  0  0  0  0  0  0
  -10.3766   -7.0610   27.5239 C   0  0  0  0  0  0  0  0  0  0  0  0
   -9.9482   -6.0319   28.0508 O   0  0  0  0  0  0  0  0  0  0  0  0
  -12.3736   -7.0939   29.0619 C   0  0  0  0  0  0  0  0  0  0  0  0
  -13.3742   -6.3128   28.2242 C   0  0  0  0  0  0  0  0  0  0  0  0
  -14.5528   -5.3484   29.2026 S   0  0  2  0  0  0  0  0  0  0  0  0
  -15.8032   -4.9852   27.9452 C   0  0  0  0  0  0  0  0  0  0  0  0
  -13.6887   -3.7580   29.3135 C   0  0  0  0  0  0  0  0  0  0  0  0
  -13.7357   -3.2575   30.7501 C   0  0  1  0  0  0  0  0  0  0  0  0
  -15.0239   -3.5023   31.2623 O   0  0  0  0  0  0  0  0  0  0  0  0
  -12.8010   -3.9545   31.7208 C   0  0  1  0  0  0  0  0  0  0  0  0
  -11.6025   -3.2277   31.8763 O   0  0  0  0  0  0  0  0  0  0  0  0
  -13.5859   -3.9463   33.0169 C   0  0  1  0  0  0  0  0  0  0  0  0
  -13.0247   -2.9800   33.8707 O   0  0  0  0  0  0  0  0  0  0  0  0
  -15.0128   -3.5471   32.6661 C   0  0  2  0  0  0  0  0  0  0  0  0
   -9.9518   -7.3670   26.4096 O   0  0  0  0  0  0  0  0  0  0  0  0
  -15.5305   -8.5629   34.1986 N   0  0  0  0  0  0  0  0  0  0  0  0
  -14.3764   -7.8988   33.8324 C   0  0  0  0  0  0  0  0  0  0  0  0
  -14.4199   -6.5710   33.4512 N   0  0  0  0  0  0  0  0  0  0  0  0
  -15.5987   -5.9049   33.4276 C   0  0  0  0  0  0  0  0  0  0  0  0
  -16.7689   -6.5543   33.8010 C   0  0  0  0  0  0  0  0  0  0  0  0
  -16.7329   -7.8899   34.1828 C   0  0  0  0  0  0  0  0  0  0  0  0
  -17.8552   -8.5144   34.5312 N   0  0  0  0  0  0  0  0  0  0  0  0
  -17.7847   -5.6706   33.6960 N   0  0  0  0  0  0  0  0  0  0  0  0
  -17.2840   -4.4820   33.2847 C   0  0  0  0  0  0  0  0  0  0  0  0
  -15.9306   -4.6081   33.1137 N   0  0  0  0  0  0  0  0  0  0  0  0
  2  1  1  1  0  0  0
  2  3  1  0  0  0  0
  2  5  1  0  0  0  0
  3  4  1  0  0  0  0
  3 17  1  0  0  0  0
  5  6  1  0  0  0  0
  7  6  1  6  0  0  0
  7  8  1  0  0  0  0
  7  9  1  0  0  0  0
 10  9  1  6  0  0  0
 10 11  1  0  0  0  0
 10 12  1  0  0  0  0
 11 16  1  0  0  0  0
 12 13  1  1  0  0  0
 12 14  1  0  0  0  0
 14 15  1  1  0  0  0
 14 16  1  0  0  0  0
 16 27  1  6  0  0  0
 18 19  2  0  0  0  0
 18 23  1  0  0  0  0
 19 20  1  0  0  0  0
 20 21  2  0  0  0  0
 21 22  1  0  0  0  0
 21 27  1  0  0  0  0
 22 23  2  0  0  0  0
 22 25  1  0  0  0  0
 23 24  1  0  0  0  0
 25 26  2  0  0  0  0
 26 27  1  0  0  0  0
M  END
>  <CHROM.1>
-91.00144307,-161.36497229,178.30163695,-164.52861383,-133.91963470,-41.52217371
95.10568610,-13.99701916,-5.71371350,31.14709650,0.16177769,-0.85050957,-3.02934024

>  <Name>
ligand

>  <RI>
0

>  <Rbt.Current_Directory>
/home/itssahil/PROJECTS/Mol_Feturizer/New_Systems/rnas/3GX6

>  <Rbt.Executable>
rbdock ($Id: //depot/dev/client3/rdock/2013.1/src/exe/rbdock.cxx#4 $)

>  <Rbt.Library>
libRbt.so (2013.1, Build901 2013/11/27)

>  <Rbt.Parameter_File>
/export/apps/rDock/src/rDock_2013.1_src/data/scripts/dock_solv.prm

>  <Rbt.Receptor>
prm/pocket_docking_7.prm

>  <SCORE>
-19.8339

>  <SCORE.INTER>
-12.924

>  <SCORE.INTER.CONST>
1

>  <SCORE.INTER.POLAR>
0

>  <SCORE.INTER.ROT>
7

>  <SCORE.INTER.SOLV>
17.1677

>  <SCORE.INTER.VDW>
-22.6052

>  <SCORE.INTER.norm>
-0.478666

>  <SCORE.INTRA>
-6.9099

>  <SCORE.INTRA.DIHEDRAL>
-3.74553

>  <SCORE.INTRA.DIHEDRAL.0>
15.0182

>  <SCORE.INTRA.POLAR>
0

>  <SCORE.INTRA.POLAR.0>
0

>  <SCORE.INTRA.REPUL>
0

>  <SCORE.INTRA.REPUL.0>
0

>  <SCORE.INTRA.SOLV>
-1.65471

>  <SCORE.INTRA.SOLV.lig_0>
-47.9129

>  <SCORE.INTRA.VDW>
-4.20978

>  <SCORE.INTRA.VDW.0>
2.00851

>  <SCORE.INTRA.norm>
-0.255922

>  <SCORE.RESTR>
0

>  <SCORE.RESTR.CAVITY>
0

>  <SCORE.RESTR.norm>
0

>  <SCORE.SYSTEM>
0

>  <SCORE.SYSTEM.CONST>
0

>  <SCORE.SYSTEM.DIHEDRAL>
0

>  <SCORE.SYSTEM.SOLV>
0

>  <SCORE.SYSTEM.norm>
0

>  <SCORE.heavy>
27

>  <SCORE.norm>
-0.734588

>  <RMSD>
4.845

$$$$
ligand
 OpenBabel11021811483D
libRbt.so/2013.1/901 2013/11/27
 27 29  0  0  0  0  0  0  0  0999 V2000
  -15.2573   -4.1904   26.1667 N   0  0  0  0  0  0  0  0  0  0  0  0
  -14.6917   -5.4170   26.7219 C   0  0  2  0  0  0  0  0  0  0  0  0
  -14.7632   -6.5761   25.7313 C   0  0  0  0  0  0  0  0  0  0  0  0
  -13.9802   -6.6516   24.7818 O   0  0  0  0  0  0  0  0  0  0  0  0
  -15.3611   -5.7750   28.0454 C   0  0  0  0  0  0  0  0  0  0  0  0
  -15.3212   -4.6473   29.0651 C   0  0  0  0  0  0  0  0  0  0  0  0
  -16.1803   -5.0286   30.6120 S   0  0  2  0  0  0  0  0  0  0  0  0
  -17.8939   -5.0806   30.0314 C   0  0  0  0  0  0  0  0  0  0  0  0
  -16.1344   -3.4152   31.4386 C   0  0  0  0  0  0  0  0  0  0  0  0
  -14.8536   -3.3017   32.2528 C   0  0  1  0  0  0  0  0  0  0  0  0
  -14.9341   -4.2014   33.3325 O   0  0  0  0  0  0  0  0  0  0  0  0
  -13.5773   -3.6882   31.5291 C   0  0  1  0  0  0  0  0  0  0  0  0
  -12.9307   -2.5498   31.0050 O   0  0  0  0  0  0  0  0  0  0  0  0
  -12.7351   -4.3051   32.6273 C   0  0  1  0  0  0  0  0  0  0  0  0
  -11.7257   -3.3917   32.9801 O   0  0  0  0  0  0  0  0  0  0  0  0
  -13.6573   -4.5282   33.8182 C   0  0  2  0  0  0  0  0  0  0  0  0
  -15.6118   -7.4587   25.8601 O   0  0  0  0  0  0  0  0  0  0  0  0
  -16.4795   -8.9113   34.5923 N   0  0  0  0  0  0  0  0  0  0  0  0
  -16.9330   -7.6598   34.2247 C   0  0  0  0  0  0  0  0  0  0  0  0
  -16.0485   -6.6097   34.0662 N   0  0  0  0  0  0  0  0  0  0  0  0
  -14.7233   -6.7949   34.2746 C   0  0  0  0  0  0  0  0  0  0  0  0
  -14.2476   -8.0492   34.6365 C   0  0  0  0  0  0  0  0  0  0  0  0
  -15.1316   -9.1087   34.8002 C   0  0  0  0  0  0  0  0  0  0  0  0
  -14.6768  -10.3077   35.1562 N   0  0  0  0  0  0  0  0  0  0  0  0
  -12.9069   -7.9605   34.7717 N   0  0  0  0  0  0  0  0  0  0  0  0
  -12.5258   -6.6928   34.4885 C   0  0  0  0  0  0  0  0  0  0  0  0
  -13.6382   -5.9561   34.1777 N   0  0  0  0  0  0  0  0  0  0  0  0
  2  1  1  6  0  0  0
  2  3  1  0  0  0  0
  2  5  1  0  0  0  0
  3  4  1  0  0  0  0
  3 17  1  0  0  0  0
  5  6  1  0  0  0  0
  7  6  1  6  0  0  0
  7  8  1  0  0  0  0
  7  9  1  0  0  0  0
 10  9  1  6  0  0  0
 10 11  1  0  0  0  0
 10 12  1  0  0  0  0
 11 16  1  0  0  0  0
 12 13  1  1  0  0  0
 12 14  1  0  0  0  0
 14 15  1  1  0  0  0
 14 16  1  0  0  0  0
 16 27  1  6  0  0  0
 18 19  2  0  0  0  0
 18 23  1  0  0  0  0
 19 20  1  0  0  0  0
 20 21  2  0  0  0  0
 21 22  1  0  0  0  0
 21 27  1  0  0  0  0
 22 23  2  0  0  0  0
 22 25  1  0  0  0  0
 23 24  1  0  0  0  0
 25 26  2  0  0  0  0
 26 27  1  0  0  0  0
M  END
>  <CHROM.1>
76.31049313,-54.41551975,177.24301231,-68.16851358,-88.70333555,-68.74150718
-11.33115094,-14.76512183,-5.76557159,31.38531749,-1.77080637,1.15507091
1.96781157

>  <Name>
ligand

>  <RI>
0

>  <Rbt.Current_Directory>
/home/itssahil/PROJECTS/Mol_Feturizer/New_Systems/rnas/3GX6

>  <Rbt.Executable>
rbdock ($Id: //depot/dev/client3/rdock/2013.1/src/exe/rbdock.cxx#4 $)

>  <Rbt.Library>
libRbt.so (2013.1, Build901 2013/11/27)

>  <Rbt.Parameter_File>
/export/apps/rDock/src/rDock_2013.1_src/data/scripts/dock_solv.prm

>  <Rbt.Receptor>
prm/pocket_docking_3.prm

>  <SCORE>
-17.693

>  <SCORE.INTER>
-8.43774

>  <SCORE.INTER.CONST>
1

>  <SCORE.INTER.POLAR>
0

>  <SCORE.INTER.ROT>
7

>  <SCORE.INTER.SOLV>
25.7319

>  <SCORE.INTER.VDW>
-22.4691

>  <SCORE.INTER.norm>
-0.312509

>  <SCORE.INTRA>
-9.25522

>  <SCORE.INTRA.DIHEDRAL>
-10.3397

>  <SCORE.INTRA.DIHEDRAL.0>
15.0182

>  <SCORE.INTRA.POLAR>
0

>  <SCORE.INTRA.POLAR.0>
0

>  <SCORE.INTRA.REPUL>
0

>  <SCORE.INTRA.REPUL.0>
0

>  <SCORE.INTRA.SOLV>
-0.726646

>  <SCORE.INTRA.SOLV.lig_0>
-47.9129

>  <SCORE.INTRA.VDW>
-3.72204

>  <SCORE.INTRA.VDW.0>
2.00851

>  <SCORE.INTRA.norm>
-0.342786

>  <SCORE.RESTR>
0

>  <SCORE.RESTR.CAVITY>
0

>  <SCORE.RESTR.norm>
0

>  <SCORE.SYSTEM>
0

>  <SCORE.SYSTEM.CONST>
0

>  <SCORE.SYSTEM.DIHEDRAL>
0

>  <SCORE.SYSTEM.SOLV>
0

>  <SCORE.SYSTEM.norm>
0

>  <SCORE.heavy>
27

>  <SCORE.norm>
-0.655295

>  <RMSD>
4.848

$$$$
ligand
 OpenBabel11021811483D
libRbt.so/2013.1/901 2013/11/27
 27 29  0  0  0  0  0  0  0  0999 V2000
  -15.7723   -8.9363   31.0506 N   0  0  0  0  0  0  0  0  0  0  0  0
  -16.2282   -8.4244   29.7610 C   0  0  2  0  0  0  0  0  0  0  0  0
  -16.2248   -9.5074   28.6853 C   0  0  0  0  0  0  0  0  0  0  0  0
  -15.2644  -10.2690   28.5513 O   0  0  0  0  0  0  0  0  0  0  0  0
  -15.4038   -7.2139   29.3334 C   0  0  0  0  0  0  0  0  0  0  0  0
  -13.9627   -7.5574   28.9894 C   0  0  0  0  0  0  0  0  0  0  0  0
  -12.8970   -6.1104   28.7734 S   0  0  2  0  0  0  0  0  0  0  0  0
  -11.4004   -6.8985   28.1287 C   0  0  0  0  0  0  0  0  0  0  0  0
  -12.4128   -5.7796   30.4894 C   0  0  0  0  0  0  0  0  0  0  0  0
  -13.2969   -4.6801   31.0599 C   0  0  1  0  0  0  0  0  0  0  0  0
  -14.5882   -5.2061   31.2538 O   0  0  0  0  0  0  0  0  0  0  0  0
  -12.8924   -4.1513   32.4232 C   0  0  1  0  0  0  0  0  0  0  0  0
  -12.1163   -2.9803   32.2996 O   0  0  0  0  0  0  0  0  0  0  0  0
  -14.2225   -3.8272   33.0727 C   0  0  1  0  0  0  0  0  0  0  0  0
  -14.3863   -2.4305   33.0783 O   0  0  0  0  0  0  0  0  0  0  0  0
  -15.3025   -4.4620   32.2072 C   0  0  2  0  0  0  0  0  0  0  0  0
  -17.1839   -9.6375   27.9244 O   0  0  0  0  0  0  0  0  0  0  0  0
  -15.5007   -9.1438   34.6189 N   0  0  0  0  0  0  0  0  0  0  0  0
  -14.4649   -8.6106   33.8775 C   0  0  0  0  0  0  0  0  0  0  0  0
  -14.5810   -7.3572   33.3067 N   0  0  0  0  0  0  0  0  0  0  0  0
  -15.7169   -6.6370   33.4641 C   0  0  0  0  0  0  0  0  0  0  0  0
  -16.7664   -7.1537   34.2140 C   0  0  0  0  0  0  0  0  0  0  0  0
  -16.6574   -8.4142   34.7884 C   0  0  0  0  0  0  0  0  0  0  0  0
  -17.6664   -8.9129   35.4986 N   0  0  0  0  0  0  0  0  0  0  0  0
  -17.7614   -6.2407   34.2181 N   0  0  0  0  0  0  0  0  0  0  0  0
  -17.3606   -5.1600   33.5079 C   0  0  0  0  0  0  0  0  0  0  0  0
  -16.0958   -5.3875   33.0334 N   0  0  0  0  0  0  0  0  0  0  0  0
  2  1  1  1  0  0  0
  2  3  1  0  0  0  0
  2  5  1  0  0  0  0
  3  4  1  0  0  0  0
  3 17  1  0  0  0  0
  5  6  1  0  0  0  0
  7  6  1  1  0  0  0
  7  8  1  0  0  0  0
  7  9  1  0  0  0  0
 10  9  1  1  0  0  0
 10 11  1  0  0  0  0
 10 12  1  0  0  0  0
 11 16  1  0  0  0  0
 12 13  1  6  0  0  0
 12 14  1  0  0  0  0
 14 15  1  6  0  0  0
 14 16  1  0  0  0  0
 16 27  1  1  0  0  0
 18 19  2  0  0  0  0
 18 23  1  0  0  0  0
 19 20  1  0  0  0  0
 20 21  2  0  0  0  0
 21 22  1  0  0  0  0
 21 27  1  0  0  0  0
 22 23  2  0  0  0  0
 22 25  1  0  0  0  0
 23 24  1  0  0  0  0
 25 26  2  0  0  0  0
 26 27  1  0  0  0  0
M  END
>  <CHROM.1>
-45.55936308,68.34106876,-169.48486175,-171.26419888,-97.92821608,71.30675360
37.52095819,-14.89705115,-6.65800612,31.54603476,1.07658863,-0.85974496,-2.24167005

>  <Name>
ligand

>  <RI>
0

>  <Rbt.Current_Directory>
/home/itssahil/PROJECTS/Mol_Feturizer/New_Systems/rnas/3GX6

>  <Rbt.Executable>
rbdock ($Id: //depot/dev/client3/rdock/2013.1/src/exe/rbdock.cxx#4 $)

>  <Rbt.Library>
libRbt.so (2013.1, Build901 2013/11/27)

>  <Rbt.Parameter_File>
/export/apps/rDock/src/rDock_2013.1_src/data/scripts/dock_solv.prm

>  <Rbt.Receptor>
prm/pocket_docking_5.prm

>  <SCORE>
-20.9246

>  <SCORE.INTER>
-11.1668

>  <SCORE.INTER.CONST>
1

>  <SCORE.INTER.POLAR>
0

>  <SCORE.INTER.ROT>
7

>  <SCORE.INTER.SOLV>
12.9454

>  <SCORE.INTER.VDW>
-20.0263

>  <SCORE.INTER.norm>
-0.413585

>  <SCORE.INTRA>
-9.7578

>  <SCORE.INTRA.DIHEDRAL>
-7.8048

>  <SCORE.INTRA.DIHEDRAL.0>
15.0182

>  <SCORE.INTRA.POLAR>
0

>  <SCORE.INTRA.POLAR.0>
0

>  <SCORE.INTRA.REPUL>
0

>  <SCORE.INTRA.REPUL.0>
0

>  <SCORE.INTRA.SOLV>
1.12125

>  <SCORE.INTRA.SOLV.lig_0>
-47.9129

>  <SCORE.INTRA.VDW>
-6.41603

>  <SCORE.INTRA.VDW.0>
2.00851

>  <SCORE.INTRA.norm>
-0.3614

>  <SCORE.RESTR>
0

>  <SCORE.RESTR.CAVITY>
0

>  <SCORE.RESTR.norm>
0

>  <SCORE.SYSTEM>
0

>  <SCORE.SYSTEM.CONST>
0

>  <SCORE.SYSTEM.DIHEDRAL>
0

>  <SCORE.SYSTEM.SOLV>
0

>  <SCORE.SYSTEM.norm>
0

>  <SCORE.heavy>
27

>  <SCORE.norm>
-0.774985

>  <RMSD>
4.863

$$$$
ligand
 OpenBabel11021811483D
libRbt.so/2013.1/901 2013/11/27
 27 29  0  0  0  0  0  0  0  0999 V2000
  -11.3580   -9.3103   28.6772 N   0  0  0  0  0  0  0  0  0  0  0  0
  -11.6220   -7.9462   29.1269 C   0  0  2  0  0  0  0  0  0  0  0  0
  -12.4878   -7.9187   30.3838 C   0  0  0  0  0  0  0  0  0  0  0  0
  -13.4545   -8.6740   30.5079 O   0  0  0  0  0  0  0  0  0  0  0  0
  -12.2405   -7.1139   28.0077 C   0  0  0  0  0  0  0  0  0  0  0  0
  -12.5246   -5.6757   28.4129 C   0  0  0  0  0  0  0  0  0  0  0  0
  -14.1004   -5.4562   29.2760 S   0  0  2  0  0  0  0  0  0  0  0  0
  -15.2609   -5.7149   27.9111 C   0  0  0  0  0  0  0  0  0  0  0  0
  -14.1510   -3.6516   29.4476 C   0  0  0  0  0  0  0  0  0  0  0  0
  -14.0668   -3.2825   30.9217 C   0  0  1  0  0  0  0  0  0  0  0  0
  -15.2834   -3.6343   31.5364 O   0  0  0  0  0  0  0  0  0  0  0  0
  -13.0084   -4.0157   31.7243 C   0  0  1  0  0  0  0  0  0  0  0  0
  -11.8301   -3.2475   31.8248 O   0  0  0  0  0  0  0  0  0  0  0  0
  -13.6527   -4.1602   33.0881 C   0  0  1  0  0  0  0  0  0  0  0  0
  -13.0439   -3.2464   33.9669 O   0  0  0  0  0  0  0  0  0  0  0  0
  -15.1233   -3.8020   32.9217 C   0  0  2  0  0  0  0  0  0  0  0  0
  -12.2386   -7.1340   31.2991 O   0  0  0  0  0  0  0  0  0  0  0  0
  -15.2255   -8.8927   34.2819 N   0  0  0  0  0  0  0  0  0  0  0  0
  -14.1357   -8.1338   33.9029 C   0  0  0  0  0  0  0  0  0  0  0  0
  -14.2877   -6.8002   33.5732 N   0  0  0  0  0  0  0  0  0  0  0  0
  -15.5113   -6.2214   33.6134 C   0  0  0  0  0  0  0  0  0  0  0  0
  -16.6180   -6.9670   34.0007 C   0  0  0  0  0  0  0  0  0  0  0  0
  -16.4728   -8.3089   34.3309 C   0  0  0  0  0  0  0  0  0  0  0  0
  -17.5344   -9.0253   34.6925 N   0  0  0  0  0  0  0  0  0  0  0  0
  -17.6975   -6.1565   33.9623 N   0  0  0  0  0  0  0  0  0  0  0  0
  -17.2982   -4.9210   33.5795 C   0  0  0  0  0  0  0  0  0  0  0  0
  -15.9463   -4.9421   33.3594 N   0  0  0  0  0  0  0  0  0  0  0  0
  2  1  1  6  0  0  0
  2  3  1  0  0  0  0
  2  5  1  0  0  0  0
  3  4  1  0  0  0  0
  3 17  1  0  0  0  0
  5  6  1  0  0  0  0
  7  6  1  6  0  0  0
  7  8  1  0  0  0  0
  7  9  1  0  0  0  0
 10  9  1  6  0  0  0
 10 11  1  0  0  0  0
 10 12  1  0  0  0  0
 11 16  1  0  0  0  0
 12 13  1  1  0  0  0
 12 14  1  0  0  0  0
 14 15  1  1  0  0  0
 14 16  1  0  0  0  0
 16 27  1  6  0  0  0
 18 19  2  0  0  0  0
 18 23  1  0  0  0  0
 19 20  1  0  0  0  0
 20 21  2  0  0  0  0
 21 22  1  0  0  0  0
 21 27  1  0  0  0  0
 22 23  2  0  0  0  0
 22 25  1  0  0  0  0
 23 24  1  0  0  0  0
 25 26  2  0  0  0  0
 26 27  1  0  0  0  0
M  END
>  <CHROM.1>
-41.81980250,-179.36455657,-83.78763337,-71.22087963,-114.22934438,-71.27396321
100.38685311,-14.24274048,-6.02181259,31.62057751,-0.02465299,-0.95623910
-3.12893428

>  <Name>
ligand

>  <RI>
0

>  <Rbt.Current_Directory>
/home/itssahil/PROJECTS/Mol_Feturizer/New_Systems/rnas/3GX6

>  <Rbt.Executable>
rbdock ($Id: //depot/dev/client3/rdock/2013.1/src/exe/rbdock.cxx#4 $)

>  <Rbt.Library>
libRbt.so (2013.1, Build901 2013/11/27)

>  <Rbt.Parameter_File>
/export/apps/rDock/src/rDock_2013.1_src/data/scripts/dock_solv.prm

>  <Rbt.Receptor>
prm/pocket_docking_6.prm

>  <SCORE>
-21.3624

>  <SCORE.INTER>
-12.378

>  <SCORE.INTER.CONST>
1

>  <SCORE.INTER.POLAR>
0

>  <SCORE.INTER.ROT>
7

>  <SCORE.INTER.SOLV>
14.7353

>  <SCORE.INTER.VDW>
-21.4304

>  <SCORE.INTER.norm>
-0.458444

>  <SCORE.INTRA>
-8.99971

>  <SCORE.INTRA.DIHEDRAL>
-5.74784

>  <SCORE.INTRA.DIHEDRAL.0>
15.0182

>  <SCORE.INTRA.POLAR>
0

>  <SCORE.INTRA.POLAR.0>
0

>  <SCORE.INTRA.REPUL>
0

>  <SCORE.INTRA.REPUL.0>
0

>  <SCORE.INTRA.SOLV>
-1.4569

>  <SCORE.INTRA.SOLV.lig_0>
-47.9129

>  <SCORE.INTRA.VDW>
-5.39734

>  <SCORE.INTRA.VDW.0>
2.00851

>  <SCORE.INTRA.norm>
-0.333322

>  <SCORE.RESTR>
0.0152615

>  <SCORE.RESTR.CAVITY>
0.0152615

>  <SCORE.RESTR.norm>
0.00056524

>  <SCORE.SYSTEM>
0

>  <SCORE.SYSTEM.CONST>
0

>  <SCORE.SYSTEM.DIHEDRAL>
0

>  <SCORE.SYSTEM.SOLV>
0

>  <SCORE.SYSTEM.norm>
0

>  <SCORE.heavy>
27

>  <SCORE.norm>
-0.791201

>  <RMSD>
4.880

$$$$
ligand
 OpenBabel11021811483D
libRbt.so/2013.1/901 2013/11/27
 27 29  0  0  0  0  0  0  0  0999 V2000
  -15.1969   -5.8635   25.8789 N   0  0  0  0  0  0  0  0  0  0  0  0
  -13.8495   -6.4162   25.7695 C   0  0  2  0  0  0  0  0  0  0  0  0
  -13.5239   -6.8436   24.3408 C   0  0  0  0  0  0  0  0  0  0  0  0
  -12.3675   -6.8112   23.9141 O   0  0  0  0  0  0  0  0  0  0  0  0
  -13.6510   -7.5660   26.7525 C   0  0  0  0  0  0  0  0  0  0  0  0
  -13.5959   -7.1151   28.2039 C   0  0  0  0  0  0  0  0  0  0  0  0
  -12.3918   -5.8003   28.5166 S   0  0  2  0  0  0  0  0  0  0  0  0
  -10.8565   -6.6485   28.0695 C   0  0  0  0  0  0  0  0  0  0  0  0
  -12.3034   -5.8373   30.3275 C   0  0  0  0  0  0  0  0  0  0  0  0
  -13.4716   -5.0517   30.9057 C   0  0  1  0  0  0  0  0  0  0  0  0
  -14.4309   -5.9676   31.3775 O   0  0  0  0  0  0  0  0  0  0  0  0
  -13.1502   -4.1835   32.1077 C   0  0  1  0  0  0  0  0  0  0  0  0
  -12.9029   -2.8517   31.7158 O   0  0  0  0  0  0  0  0  0  0  0  0
  -14.4202   -4.2559   32.9311 C   0  0  1  0  0  0  0  0  0  0  0  0
  -15.1064   -3.0355   32.7987 O   0  0  0  0  0  0  0  0  0  0  0  0
  -15.2637   -5.3793   32.3436 C   0  0  2  0  0  0  0  0  0  0  0  0
  -14.4155   -7.2257   23.5826 O   0  0  0  0  0  0  0  0  0  0  0  0
  -13.2672   -8.4811   36.1076 N   0  0  0  0  0  0  0  0  0  0  0  0
  -12.5913   -7.6193   35.2664 C   0  0  0  0  0  0  0  0  0  0  0  0
  -13.2759   -6.8746   34.3247 N   0  0  0  0  0  0  0  0  0  0  0  0
  -14.6209   -6.9848   34.2121 C   0  0  0  0  0  0  0  0  0  0  0  0
  -15.3189   -7.8403   35.0556 C   0  0  0  0  0  0  0  0  0  0  0  0
  -14.6366   -8.5940   36.0029 C   0  0  0  0  0  0  0  0  0  0  0  0
  -15.3043   -9.4205   36.8043 N   0  0  0  0  0  0  0  0  0  0  0  0
  -16.6292   -7.7545   34.7407 N   0  0  0  0  0  0  0  0  0  0  0  0
  -16.7758   -6.8581   33.7369 C   0  0  0  0  0  0  0  0  0  0  0  0
  -15.5417   -6.3703   33.3966 N   0  0  0  0  0  0  0  0  0  0  0  0
  2  1  1  6  0  0  0
  2  3  1  0  0  0  0
  2  5  1  0  0  0  0
  3  4  1  0  0  0  0
  3 17  1  0  0  0  0
  5  6  1  0  0  0  0
  7  6  1  1  0  0  0
  7  8  1  0  0  0  0
  7  9  1  0  0  0  0
 10  9  1  1  0  0  0
 10 11  1  0  0  0  0
 10 12  1  0  0  0  0
 11 16  1  0  0  0  0
 12 13  1  6  0  0  0
 12 14  1  0  0  0  0
 14 15  1  6  0  0  0
 14 16  1  0  0  0  0
 16 27  1  1  0  0  0
 18 19  2  0  0  0  0
 18 23  1  0  0  0  0
 19 20  1  0  0  0  0
 20 21  2  0  0  0  0
 21 22  1  0  0  0  0
 21 27  1  0  0  0  0
 22 23  2  0  0  0  0
 22 25  1  0  0  0  0
 23 24  1  0  0  0  0
 25 26  2  0  0  0  0
 26 27  1  0  0  0  0
M  END
>  <CHROM.1>
150.08075598,-70.11692229,-52.62757242,-62.36625046,-81.74031538,103.59398892
60.89001544,-13.92597991,-6.35688430,30.83401104,0.96331989,-1.30482642,-2.09140620

>  <Name>
ligand

>  <RI>
0

>  <Rbt.Current_Directory>
/home/itssahil/PROJECTS/Mol_Feturizer/New_Systems/rnas/3GX6

>  <Rbt.Executable>
rbdock ($Id: //depot/dev/client3/rdock/2013.1/src/exe/rbdock.cxx#4 $)

>  <Rbt.Library>
libRbt.so (2013.1, Build901 2013/11/27)

>  <Rbt.Parameter_File>
/export/apps/rDock/src/rDock_2013.1_src/data/scripts/dock_solv.prm

>  <Rbt.Receptor>
prm/pocket_docking_8.prm

>  <SCORE>
-20.0959

>  <SCORE.INTER>
-11.8412

>  <SCORE.INTER.CONST>
1

>  <SCORE.INTER.POLAR>
0

>  <SCORE.INTER.ROT>
7

>  <SCORE.INTER.SOLV>
16.574

>  <SCORE.INTER.VDW>
-21.6855

>  <SCORE.INTER.norm>
-0.438563

>  <SCORE.INTRA>
-8.25469

>  <SCORE.INTRA.DIHEDRAL>
-6.25748

>  <SCORE.INTRA.DIHEDRAL.0>
15.0182

>  <SCORE.INTRA.POLAR>
0

>  <SCORE.INTRA.POLAR.0>
0

>  <SCORE.INTRA.REPUL>
0

>  <SCORE.INTRA.REPUL.0>
0

>  <SCORE.INTRA.SOLV>
-0.582582

>  <SCORE.INTRA.SOLV.lig_0>
-47.9129

>  <SCORE.INTRA.VDW>
-4.83465

>  <SCORE.INTRA.VDW.0>
2.00851

>  <SCORE.INTRA.norm>
-0.305729

>  <SCORE.RESTR>
0

>  <SCORE.RESTR.CAVITY>
0

>  <SCORE.RESTR.norm>
0

>  <SCORE.SYSTEM>
0

>  <SCORE.SYSTEM.CONST>
0

>  <SCORE.SYSTEM.DIHEDRAL>
0

>  <SCORE.SYSTEM.SOLV>
0

>  <SCORE.SYSTEM.norm>
0

>  <SCORE.heavy>
27

>  <SCORE.norm>
-0.744292

>  <RMSD>
4.884

$$$$
ligand
 OpenBabel11021811483D
libRbt.so/2013.1/901 2013/11/27
 27 29  0  0  0  0  0  0  0  0999 V2000
  -11.8786   -8.3020   27.3984 N   0  0  0  0  0  0  0  0  0  0  0  0
  -13.1664   -7.6148   27.3518 C   0  0  2  0  0  0  0  0  0  0  0  0
  -14.0813   -8.1925   26.2752 C   0  0  0  0  0  0  0  0  0  0  0  0
  -13.6553   -8.4456   25.1461 O   0  0  0  0  0  0  0  0  0  0  0  0
  -12.9755   -6.1119   27.1709 C   0  0  0  0  0  0  0  0  0  0  0  0
  -14.2782   -5.3287   27.2211 C   0  0  0  0  0  0  0  0  0  0  0  0
  -14.8928   -5.0372   28.8985 S   0  0  2  0  0  0  0  0  0  0  0  0
  -15.5032   -6.6894   29.3159 C   0  0  0  0  0  0  0  0  0  0  0  0
  -16.4433   -4.1635   28.5506 C   0  0  0  0  0  0  0  0  0  0  0  0
  -17.0187   -3.6201   29.8505 C   0  0  1  0  0  0  0  0  0  0  0  0
  -17.2363   -4.7017   30.7248 O   0  0  0  0  0  0  0  0  0  0  0  0
  -16.1171   -2.6784   30.6265 C   0  0  1  0  0  0  0  0  0  0  0  0
  -16.4244   -1.3331   30.3363 O   0  0  0  0  0  0  0  0  0  0  0  0
  -16.4582   -2.9901   32.0696 C   0  0  1  0  0  0  0  0  0  0  0  0
  -17.2408   -1.9384   32.5788 O   0  0  0  0  0  0  0  0  0  0  0  0
  -17.2761   -4.2744   32.0623 C   0  0  2  0  0  0  0  0  0  0  0  0
  -15.2688   -8.4127   26.5142 O   0  0  0  0  0  0  0  0  0  0  0  0
  -12.7227   -5.9303   34.1357 N   0  0  0  0  0  0  0  0  0  0  0  0
  -12.9411   -4.8329   33.3265 C   0  0  0  0  0  0  0  0  0  0  0  0
  -14.2105   -4.5416   32.8640 N   0  0  0  0  0  0  0  0  0  0  0  0
  -15.2575   -5.3337   33.1960 C   0  0  0  0  0  0  0  0  0  0  0  0
  -15.0583   -6.4373   34.0163 C   0  0  0  0  0  0  0  0  0  0  0  0
  -13.7843   -6.7376   34.4827 C   0  0  0  0  0  0  0  0  0  0  0  0
  -13.5921   -7.8002   35.2606 N   0  0  0  0  0  0  0  0  0  0  0  0
  -16.2527   -7.0417   34.1949 N   0  0  0  0  0  0  0  0  0  0  0  0
  -17.1975   -6.3403   33.5255 C   0  0  0  0  0  0  0  0  0  0  0  0
  -16.5992   -5.2780   32.9008 N   0  0  0  0  0  0  0  0  0  0  0  0
  2  1  1  6  0  0  0
  2  3  1  0  0  0  0
  2  5  1  0  0  0  0
  3  4  1  0  0  0  0
  3 17  1  0  0  0  0
  5  6  1  0  0  0  0
  7  6  1  6  0  0  0
  7  8  1  0  0  0  0
  7  9  1  0  0  0  0
 10  9  1  6  0  0  0
 10 11  1  0  0  0  0
 10 12  1  0  0  0  0
 11 16  1  0  0  0  0
 12 13  1  6  0  0  0
 12 14  1  0  0  0  0
 14 15  1  6  0  0  0
 14 16  1  0  0  0  0
 16 27  1  1  0  0  0
 18 19  2  0  0  0  0
 18 23  1  0  0  0  0
 19 20  1  0  0  0  0
 20 21  2  0  0  0  0
 21 22  1  0  0  0  0
 21 27  1  0  0  0  0
 22 23  2  0  0  0  0
 22 25  1  0  0  0  0
 23 24  1  0  0  0  0
 25 26  2  0  0  0  0
 26 27  1  0  0  0  0
M  END
>  <CHROM.1>
-44.71246434,-175.61135705,79.44028428,-74.07152818,-170.81533308,-58.98596139
87.87037340,-15.10759526,-5.51683605,30.55957057,-1.14309753,-0.96089409
1.56424694

>  <Name>
ligand

>  <RI>
0

>  <Rbt.Current_Directory>
/home/itssahil/PROJECTS/Mol_Feturizer/New_Systems/rnas/3GX6

>  <Rbt.Executable>
rbdock ($Id: //depot/dev/client3/rdock/2013.1/src/exe/rbdock.cxx#4 $)

>  <Rbt.Library>
libRbt.so (2013.1, Build901 2013/11/27)

>  <Rbt.Parameter_File>
/export/apps/rDock/src/rDock_2013.1_src/data/scripts/dock_solv.prm

>  <Rbt.Receptor>
prm/pocket_docking_5.prm

>  <SCORE>
-18.2825

>  <SCORE.INTER>
-8.2867

>  <SCORE.INTER.CONST>
1

>  <SCORE.INTER.POLAR>
0

>  <SCORE.INTER.ROT>
7

>  <SCORE.INTER.SOLV>
12.5099

>  <SCORE.INTER.VDW>
-17.9611

>  <SCORE.INTER.norm>
-0.306915

>  <SCORE.INTRA>
-9.99581

>  <SCORE.INTRA.DIHEDRAL>
-9.50807

>  <SCORE.INTRA.DIHEDRAL.0>
15.0182

>  <SCORE.INTRA.POLAR>
0

>  <SCORE.INTRA.POLAR.0>
0

>  <SCORE.INTRA.REPUL>
0

>  <SCORE.INTRA.REPUL.0>
0

>  <SCORE.INTRA.SOLV>
-1.22863

>  <SCORE.INTRA.SOLV.lig_0>
-47.9129

>  <SCORE.INTRA.VDW>
-4.62746

>  <SCORE.INTRA.VDW.0>
2.00851

>  <SCORE.INTRA.norm>
-0.370215

>  <SCORE.RESTR>
0

>  <SCORE.RESTR.CAVITY>
0

>  <SCORE.RESTR.norm>
0

>  <SCORE.SYSTEM>
0

>  <SCORE.SYSTEM.CONST>
0

>  <SCORE.SYSTEM.DIHEDRAL>
0

>  <SCORE.SYSTEM.SOLV>
0

>  <SCORE.SYSTEM.norm>
0

>  <SCORE.heavy>
27

>  <SCORE.norm>
-0.67713

>  <RMSD>
4.886

$$$$
ligand
 OpenBabel11021811483D
libRbt.so/2013.1/901 2013/11/27
 27 29  0  0  0  0  0  0  0  0999 V2000
  -11.2088   -9.2741   26.8251 N   0  0  0  0  0  0  0  0  0  0  0  0
  -11.7585   -9.8381   28.0549 C   0  0  2  0  0  0  0  0  0  0  0  0
  -13.2086  -10.2814   27.8794 C   0  0  0  0  0  0  0  0  0  0  0  0
  -13.9273  -10.5099   28.8549 O   0  0  0  0  0  0  0  0  0  0  0  0
  -11.6135   -8.8585   29.2156 C   0  0  0  0  0  0  0  0  0  0  0  0
  -12.1308   -7.4645   28.8957 C   0  0  0  0  0  0  0  0  0  0  0  0
  -12.6718   -6.5330   30.3503 S   0  0  2  0  0  0  0  0  0  0  0  0
  -14.2967   -7.2792   30.6321 C   0  0  0  0  0  0  0  0  0  0  0  0
  -13.1341   -4.9509   29.5941 C   0  0  0  0  0  0  0  0  0  0  0  0
  -13.6582   -4.0113   30.6705 C   0  0  1  0  0  0  0  0  0  0  0  0
  -14.9293   -4.4636   31.0724 O   0  0  0  0  0  0  0  0  0  0  0  0
  -12.8484   -3.9624   31.9526 C   0  0  1  0  0  0  0  0  0  0  0  0
  -11.9470   -2.8780   31.9382 O   0  0  0  0  0  0  0  0  0  0  0  0
  -13.9053   -3.7457   33.0165 C   0  0  1  0  0  0  0  0  0  0  0  0
  -13.8329   -2.4098   33.4500 O   0  0  0  0  0  0  0  0  0  0  0  0
  -15.2545   -3.9926   32.3551 C   0  0  2  0  0  0  0  0  0  0  0  0
  -13.6880  -10.4247   26.7546 O   0  0  0  0  0  0  0  0  0  0  0  0
  -14.8593   -8.6078   34.8689 N   0  0  0  0  0  0  0  0  0  0  0  0
  -13.8537   -7.8753   34.2696 C   0  0  0  0  0  0  0  0  0  0  0  0
  -14.1344   -6.6743   33.6458 N   0  0  0  0  0  0  0  0  0  0  0  0
  -15.4033   -6.2026   33.6107 C   0  0  0  0  0  0  0  0  0  0  0  0
  -16.4267   -6.9216   34.2158 C   0  0  0  0  0  0  0  0  0  0  0  0
  -16.1520   -8.1311   34.8424 C   0  0  0  0  0  0  0  0  0  0  0  0
  -17.1339   -8.8244   35.4136 N   0  0  0  0  0  0  0  0  0  0  0  0
  -17.5752   -6.2327   34.0432 N   0  0  0  0  0  0  0  0  0  0  0  0
  -17.2999   -5.0949   33.3632 C   0  0  0  0  0  0  0  0  0  0  0  0
  -15.9586   -5.0589   33.0871 N   0  0  0  0  0  0  0  0  0  0  0  0
  2  1  1  6  0  0  0
  2  3  1  0  0  0  0
  2  5  1  0  0  0  0
  3  4  1  0  0  0  0
  3 17  1  0  0  0  0
  5  6  1  0  0  0  0
  7  6  1  6  0  0  0
  7  8  1  0  0  0  0
  7  9  1  0  0  0  0
 10  9  1  6  0  0  0
 10 11  1  0  0  0  0
 10 12  1  0  0  0  0
 11 16  1  0  0  0  0
 12 13  1  6  0  0  0
 12 14  1  0  0  0  0
 14 15  1  6  0  0  0
 14 16  1  0  0  0  0
 16 27  1  1  0  0  0
 18 19  2  0  0  0  0
 18 23  1  0  0  0  0
 19 20  1  0  0  0  0
 20 21  2  0  0  0  0
 21 22  1  0  0  0  0
 21 27  1  0  0  0  0
 22 23  2  0  0  0  0
 22 25  1  0  0  0  0
 23 24  1  0  0  0  0
 25 26  2  0  0  0  0
 26 27  1  0  0  0  0
M  END
>  <CHROM.1>
-164.23002942,50.59708965,153.75330801,-78.54704501,178.74438788,-72.23000089
73.35804995,-14.06700163,-6.66329552,31.45832058,-0.87155346,0.92195646,0.37794693

>  <Name>
ligand

>  <RI>
0

>  <Rbt.Current_Directory>
/home/itssahil/PROJECTS/Mol_Feturizer/New_Systems/rnas/3GX6

>  <Rbt.Executable>
rbdock ($Id: //depot/dev/client3/rdock/2013.1/src/exe/rbdock.cxx#4 $)

>  <Rbt.Library>
libRbt.so (2013.1, Build901 2013/11/27)

>  <Rbt.Parameter_File>
/export/apps/rDock/src/rDock_2013.1_src/data/scripts/dock_solv.prm

>  <Rbt.Receptor>
prm/pocket_docking_4.prm

>  <SCORE>
-22.82

>  <SCORE.INTER>
-13.8704

>  <SCORE.INTER.CONST>
1

>  <SCORE.INTER.POLAR>
0

>  <SCORE.INTER.ROT>
7

>  <SCORE.INTER.SOLV>
13.2777

>  <SCORE.INTER.VDW>
-21.9395

>  <SCORE.INTER.norm>
-0.513719

>  <SCORE.INTRA>
-8.94964

>  <SCORE.INTRA.DIHEDRAL>
-8.28649

>  <SCORE.INTRA.DIHEDRAL.0>
15.0182

>  <SCORE.INTRA.POLAR>
0

>  <SCORE.INTRA.POLAR.0>
0

>  <SCORE.INTRA.REPUL>
0

>  <SCORE.INTRA.REPUL.0>
0

>  <SCORE.INTRA.SOLV>
-0.777549

>  <SCORE.INTRA.SOLV.lig_0>
-47.9129

>  <SCORE.INTRA.VDW>
-4.41762

>  <SCORE.INTRA.VDW.0>
2.00851

>  <SCORE.INTRA.norm>
-0.331468

>  <SCORE.RESTR>
0

>  <SCORE.RESTR.CAVITY>
0

>  <SCORE.RESTR.norm>
0

>  <SCORE.SYSTEM>
0

>  <SCORE.SYSTEM.CONST>
0

>  <SCORE.SYSTEM.DIHEDRAL>
0

>  <SCORE.SYSTEM.SOLV>
0

>  <SCORE.SYSTEM.norm>
0

>  <SCORE.heavy>
27

>  <SCORE.norm>
-0.845187

>  <RMSD>
4.900

$$$$
ligand
 OpenBabel11021811483D
libRbt.so/2013.1/901 2013/11/27
 27 29  0  0  0  0  0  0  0  0999 V2000
  -14.7623   -9.9886   25.8484 N   0  0  0  0  0  0  0  0  0  0  0  0
  -14.4268   -9.6770   27.2352 C   0  0  2  0  0  0  0  0  0  0  0  0
  -15.5716  -10.0134   28.1872 C   0  0  0  0  0  0  0  0  0  0  0  0
  -16.7447   -9.9820   27.8088 O   0  0  0  0  0  0  0  0  0  0  0  0
  -13.9959   -8.2203   27.3771 C   0  0  0  0  0  0  0  0  0  0  0  0
  -13.5417   -7.8606   28.7834 C   0  0  0  0  0  0  0  0  0  0  0  0
  -12.7519   -6.2365   28.9045 S   0  0  2  0  0  0  0  0  0  0  0  0
  -11.1143   -6.6173   28.2338 C   0  0  0  0  0  0  0  0  0  0  0  0
  -12.3980   -6.1569   30.6812 C   0  0  0  0  0  0  0  0  0  0  0  0
  -13.2052   -5.0281   31.3062 C   0  0  1  0  0  0  0  0  0  0  0  0
  -14.5397   -5.4570   31.4353 O   0  0  0  0  0  0  0  0  0  0  0  0
  -12.7965   -4.6264   32.7111 C   0  0  1  0  0  0  0  0  0  0  0  0
  -11.9248   -3.5183   32.6849 O   0  0  0  0  0  0  0  0  0  0  0  0
  -14.1132   -4.2371   33.3520 C   0  0  1  0  0  0  0  0  0  0  0  0
  -14.1631   -2.8350   33.4495 O   0  0  0  0  0  0  0  0  0  0  0  0
  -15.2171   -4.7212   32.4216 C   0  0  2  0  0  0  0  0  0  0  0  0
  -15.3436  -10.3188   29.3579 O   0  0  0  0  0  0  0  0  0  0  0  0
  -15.7270   -9.3773   34.8374 N   0  0  0  0  0  0  0  0  0  0  0  0
  -14.6112   -8.8617   34.2080 C   0  0  0  0  0  0  0  0  0  0  0  0
  -14.6509   -7.6129   33.6173 N   0  0  0  0  0  0  0  0  0  0  0  0
  -15.7892   -6.8797   33.6447 C   0  0  0  0  0  0  0  0  0  0  0  0
  -16.9192   -7.3784   34.2809 C   0  0  0  0  0  0  0  0  0  0  0  0
  -16.8871   -8.6344   34.8746 C   0  0  0  0  0  0  0  0  0  0  0  0
  -17.9724   -9.1159   35.4756 N   0  0  0  0  0  0  0  0  0  0  0  0
  -17.8986   -6.4553   34.1695 N   0  0  0  0  0  0  0  0  0  0  0  0
  -17.4114   -5.3857   33.4978 C   0  0  0  0  0  0  0  0  0  0  0  0
  -16.1053   -5.6306   33.1649 N   0  0  0  0  0  0  0  0  0  0  0  0
  2  1  1  6  0  0  0
  2  3  1  0  0  0  0
  2  5  1  0  0  0  0
  3  4  1  0  0  0  0
  3 17  1  0  0  0  0
  5  6  1  0  0  0  0
  7  6  1  1  0  0  0
  7  8  1  0  0  0  0
  7  9  1  0  0  0  0
 10  9  1  1  0  0  0
 10 11  1  0  0  0  0
 10 12  1  0  0  0  0
 11 16  1  0  0  0  0
 12 13  1  6  0  0  0
 12 14  1  0  0  0  0
 14 15  1  6  0  0  0
 14 16  1  0  0  0  0
 16 27  1  1  0  0  0
 18 19  2  0  0  0  0
 18 23  1  0  0  0  0
 19 20  1  0  0  0  0
 20 21  2  0  0  0  0
 21 22  1  0  0  0  0
 21 27  1  0  0  0  0
 22 23  2  0  0  0  0
 22 25  1  0  0  0  0
 23 24  1  0  0  0  0
 25 26  2  0  0  0  0
 26 27  1  0  0  0  0
M  END
>  <CHROM.1>
-28.65971969,-176.03279241,169.59990925,-77.44822516,-115.48042543,76.25168762
45.20800061,-14.69189790,-7.00515856,31.34614227,1.22331833,-0.82402262,-2.20609992

>  <Name>
ligand

>  <RI>
0

>  <Rbt.Current_Directory>
/home/itssahil/PROJECTS/Mol_Feturizer/New_Systems/rnas/3GX6

>  <Rbt.Executable>
rbdock ($Id: //depot/dev/client3/rdock/2013.1/src/exe/rbdock.cxx#4 $)

>  <Rbt.Library>
libRbt.so (2013.1, Build901 2013/11/27)

>  <Rbt.Parameter_File>
/export/apps/rDock/src/rDock_2013.1_src/data/scripts/dock_solv.prm

>  <Rbt.Receptor>
prm/pocket_docking_5.prm

>  <SCORE>
-21.4846

>  <SCORE.INTER>
-12.558

>  <SCORE.INTER.CONST>
1

>  <SCORE.INTER.POLAR>
0

>  <SCORE.INTER.ROT>
7

>  <SCORE.INTER.SOLV>
12.7717

>  <SCORE.INTER.VDW>
-20.8959

>  <SCORE.INTER.norm>
-0.46511

>  <SCORE.INTRA>
-8.92661

>  <SCORE.INTRA.DIHEDRAL>
-6.35972

>  <SCORE.INTRA.DIHEDRAL.0>
15.0182

>  <SCORE.INTRA.POLAR>
0

>  <SCORE.INTRA.POLAR.0>
0

>  <SCORE.INTRA.REPUL>
0

>  <SCORE.INTRA.REPUL.0>
0

>  <SCORE.INTRA.SOLV>
-1.81816

>  <SCORE.INTRA.SOLV.lig_0>
-47.9129

>  <SCORE.INTRA.VDW>
-4.83767

>  <SCORE.INTRA.VDW.0>
2.00851

>  <SCORE.INTRA.norm>
-0.330615

>  <SCORE.RESTR>
0

>  <SCORE.RESTR.CAVITY>
0

>  <SCORE.RESTR.norm>
0

>  <SCORE.SYSTEM>
0

>  <SCORE.SYSTEM.CONST>
0

>  <SCORE.SYSTEM.DIHEDRAL>
0

>  <SCORE.SYSTEM.SOLV>
0

>  <SCORE.SYSTEM.norm>
0

>  <SCORE.heavy>
27

>  <SCORE.norm>
-0.795725

>  <RMSD>
4.907

$$$$
ligand
 OpenBabel11021811483D
libRbt.so/2013.1/901 2013/11/27
 27 29  0  0  0  0  0  0  0  0999 V2000
  -13.1233  -10.1981   27.3054 N   0  0  0  0  0  0  0  0  0  0  0  0
  -13.0605  -10.1299   28.7629 C   0  0  2  0  0  0  0  0  0  0  0  0
  -14.3562   -9.5914   29.3640 C   0  0  0  0  0  0  0  0  0  0  0  0
  -15.3371   -9.3551   28.6552 O   0  0  0  0  0  0  0  0  0  0  0  0
  -11.8550   -9.3130   29.2184 C   0  0  0  0  0  0  0  0  0  0  0  0
  -11.8028   -7.9225   28.6044 C   0  0  0  0  0  0  0  0  0  0  0  0
  -13.0969   -6.8084   29.2046 S   0  0  2  0  0  0  0  0  0  0  0  0
  -12.7480   -5.3354   28.2122 C   0  0  0  0  0  0  0  0  0  0  0  0
  -12.4148   -6.3224   30.8130 C   0  0  0  0  0  0  0  0  0  0  0  0
  -13.2356   -5.1745   31.3830 C   0  0  1  0  0  0  0  0  0  0  0  0
  -14.5695   -5.6054   31.5123 O   0  0  0  0  0  0  0  0  0  0  0  0
  -12.8468   -4.7155   32.7759 C   0  0  1  0  0  0  0  0  0  0  0  0
  -11.9804   -3.6044   32.7169 O   0  0  0  0  0  0  0  0  0  0  0  0
  -14.1734   -4.3087   33.3845 C   0  0  1  0  0  0  0  0  0  0  0  0
  -14.2317   -2.9042   33.4261 O   0  0  0  0  0  0  0  0  0  0  0  0
  -15.2630   -4.8352   32.4603 C   0  0  2  0  0  0  0  0  0  0  0  0
  -14.4442   -9.3773   30.5731 O   0  0  0  0  0  0  0  0  0  0  0  0
  -15.8257   -9.4611   34.9219 N   0  0  0  0  0  0  0  0  0  0  0  0
  -14.7116   -8.9746   34.2669 C   0  0  0  0  0  0  0  0  0  0  0  0
  -14.7359   -7.7295   33.6673 N   0  0  0  0  0  0  0  0  0  0  0  0
  -15.8574   -6.9717   33.7112 C   0  0  0  0  0  0  0  0  0  0  0  0
  -16.9852   -7.4410   34.3731 C   0  0  0  0  0  0  0  0  0  0  0  0
  -16.9685   -8.6930   34.9757 C   0  0  0  0  0  0  0  0  0  0  0  0
  -18.0521   -9.1464   35.6014 N   0  0  0  0  0  0  0  0  0  0  0  0
  -17.9465   -6.4978   34.2735 N   0  0  0  0  0  0  0  0  0  0  0  0
  -17.4496   -5.4440   33.5841 C   0  0  0  0  0  0  0  0  0  0  0  0
  -16.1559   -5.7196   33.2278 N   0  0  0  0  0  0  0  0  0  0  0  0
  2  1  1  6  0  0  0
  2  3  1  0  0  0  0
  2  5  1  0  0  0  0
  3  4  1  0  0  0  0
  3 17  1  0  0  0  0
  5  6  1  0  0  0  0
  7  6  1  6  0  0  0
  7  8  1  0  0  0  0
  7  9  1  0  0  0  0
 10  9  1  1  0  0  0
 10 11  1  0  0  0  0
 10 12  1  0  0  0  0
 11 16  1  0  0  0  0
 12 13  1  6  0  0  0
 12 14  1  0  0  0  0
 14 15  1  6  0  0  0
 14 16  1  0  0  0  0
 16 27  1  1  0  0  0
 18 19  2  0  0  0  0
 18 23  1  0  0  0  0
 19 20  1  0  0  0  0
 20 21  2  0  0  0  0
 21 22  1  0  0  0  0
 21 27  1  0  0  0  0
 22 23  2  0  0  0  0
 22 25  1  0  0  0  0
 23 24  1  0  0  0  0
 25 26  2  0  0  0  0
 26 27  1  0  0  0  0
M  END
>  <CHROM.1>
4.93098805,54.33805124,69.32307717,-177.57410922,169.58655876,58.99750917
42.19591580,-14.44444285,-7.04687018,31.69674461,0.66416349,-0.87567655,-2.61950944

>  <Name>
ligand

>  <RI>
0

>  <Rbt.Current_Directory>
/home/itssahil/PROJECTS/Mol_Feturizer/New_Systems/rnas/3GX6

>  <Rbt.Executable>
rbdock ($Id: //depot/dev/client3/rdock/2013.1/src/exe/rbdock.cxx#4 $)

>  <Rbt.Library>
libRbt.so (2013.1, Build901 2013/11/27)

>  <Rbt.Parameter_File>
/export/apps/rDock/src/rDock_2013.1_src/data/scripts/dock_solv.prm

>  <Rbt.Receptor>
prm/pocket_docking_7.prm

>  <SCORE>
-24.0917

>  <SCORE.INTER>
-13.0387

>  <SCORE.INTER.CONST>
1

>  <SCORE.INTER.POLAR>
0

>  <SCORE.INTER.ROT>
7

>  <SCORE.INTER.SOLV>
13.2425

>  <SCORE.INTER.VDW>
-21.3733

>  <SCORE.INTER.norm>
-0.482916

>  <SCORE.INTRA>
-11.053

>  <SCORE.INTRA.DIHEDRAL>
-11.0164

>  <SCORE.INTRA.DIHEDRAL.0>
15.0182

>  <SCORE.INTRA.POLAR>
0

>  <SCORE.INTRA.POLAR.0>
0

>  <SCORE.INTRA.REPUL>
0

>  <SCORE.INTRA.REPUL.0>
0

>  <SCORE.INTRA.SOLV>
-0.384088

>  <SCORE.INTRA.SOLV.lig_0>
-47.9129

>  <SCORE.INTRA.VDW>
-5.35272

>  <SCORE.INTRA.VDW.0>
2.00851

>  <SCORE.INTRA.norm>
-0.409369

>  <SCORE.RESTR>
0

>  <SCORE.RESTR.CAVITY>
0

>  <SCORE.RESTR.norm>
0

>  <SCORE.SYSTEM>
0

>  <SCORE.SYSTEM.CONST>
0

>  <SCORE.SYSTEM.DIHEDRAL>
0

>  <SCORE.SYSTEM.SOLV>
0

>  <SCORE.SYSTEM.norm>
0

>  <SCORE.heavy>
27

>  <SCORE.norm>
-0.892285

>  <RMSD>
4.915

$$$$
ligand
 OpenBabel11021811483D
libRbt.so/2013.1/901 2013/11/27
 27 29  0  0  0  0  0  0  0  0999 V2000
  -14.3908   -9.1715   24.9618 N   0  0  0  0  0  0  0  0  0  0  0  0
  -14.1517   -8.3822   26.1672 C   0  0  2  0  0  0  0  0  0  0  0  0
  -15.4274   -8.1875   26.9824 C   0  0  0  0  0  0  0  0  0  0  0  0
  -15.5588   -8.7064   28.0932 O   0  0  0  0  0  0  0  0  0  0  0  0
  -13.5028   -7.0450   25.8227 C   0  0  0  0  0  0  0  0  0  0  0  0
  -12.9194   -6.3294   27.0313 C   0  0  0  0  0  0  0  0  0  0  0  0
  -14.1658   -5.7315   28.1998 S   0  0  2  0  0  0  0  0  0  0  0  0
  -14.9209   -4.4066   27.2247 C   0  0  0  0  0  0  0  0  0  0  0  0
  -13.1333   -4.7820   29.3492 C   0  0  0  0  0  0  0  0  0  0  0  0
  -14.0261   -4.0289   30.3249 C   0  0  1  0  0  0  0  0  0  0  0  0
  -14.8951   -4.9536   30.9342 O   0  0  0  0  0  0  0  0  0  0  0  0
  -13.3141   -3.3551   31.4829 C   0  0  1  0  0  0  0  0  0  0  0  0
  -13.0692   -1.9951   31.2013 O   0  0  0  0  0  0  0  0  0  0  0  0
  -14.3116   -3.4798   32.6167 C   0  0  1  0  0  0  0  0  0  0  0  0
  -14.8995   -2.2206   32.8326 O   0  0  0  0  0  0  0  0  0  0  0  0
  -15.3776   -4.4666   32.1601 C   0  0  2  0  0  0  0  0  0  0  0  0
  -16.3554   -7.5095   26.5412 O   0  0  0  0  0  0  0  0  0  0  0  0
  -12.6810   -8.0240   34.9617 N   0  0  0  0  0  0  0  0  0  0  0  0
  -12.1860   -7.0662   34.0988 C   0  0  0  0  0  0  0  0  0  0  0  0
  -13.0418   -6.2064   33.4365 N   0  0  0  0  0  0  0  0  0  0  0  0
  -14.3802   -6.2964   33.6228 C   0  0  0  0  0  0  0  0  0  0  0  0
  -14.8959   -7.2483   34.4937 C   0  0  0  0  0  0  0  0  0  0  0  0
  -14.0414   -8.1175   35.1608 C   0  0  0  0  0  0  0  0  0  0  0  0
  -14.5363   -9.0355   35.9876 N   0  0  0  0  0  0  0  0  0  0  0  0
  -16.2401   -7.1185   34.5003 N   0  0  0  0  0  0  0  0  0  0  0  0
  -16.5813   -6.1026   33.6732 C   0  0  0  0  0  0  0  0  0  0  0  0
  -15.4415   -5.5808   33.1208 N   0  0  0  0  0  0  0  0  0  0  0  0
  2  1  1  6  0  0  0
  2  3  1  0  0  0  0
  2  5  1  0  0  0  0
  3  4  1  0  0  0  0
  3 17  1  0  0  0  0
  5  6  1  0  0  0  0
  7  6  1  6  0  0  0
  7  8  1  0  0  0  0
  7  9  1  0  0  0  0
 10  9  1  6  0  0  0
 10 11  1  0  0  0  0
 10 12  1  0  0  0  0
 11 16  1  0  0  0  0
 12 13  1  6  0  0  0
 12 14  1  0  0  0  0
 14 15  1  6  0  0  0
 14 16  1  0  0  0  0
 16 27  1  1  0  0  0
 18 19  2  0  0  0  0
 18 23  1  0  0  0  0
 19 20  1  0  0  0  0
 20 21  2  0  0  0  0
 21 22  1  0  0  0  0
 21 27  1  0  0  0  0
 22 23  2  0  0  0  0
 22 25  1  0  0  0  0
 23 24  1  0  0  0  0
 25 26  2  0  0  0  0
 26 27  1  0  0  0  0
M  END
>  <CHROM.1>
112.65417483,-165.80350925,-68.39330459,-69.36346613,172.45689412,54.08278579
65.08161147,-14.38819340,-6.06714195,30.70423340,-1.74292505,1.44988717,1.62255343

>  <Name>
ligand

>  <RI>
0

>  <Rbt.Current_Directory>
/home/itssahil/PROJECTS/Mol_Feturizer/New_Systems/rnas/3GX6

>  <Rbt.Executable>
rbdock ($Id: //depot/dev/client3/rdock/2013.1/src/exe/rbdock.cxx#4 $)

>  <Rbt.Library>
libRbt.so (2013.1, Build901 2013/11/27)

>  <Rbt.Parameter_File>
/export/apps/rDock/src/rDock_2013.1_src/data/scripts/dock_solv.prm

>  <Rbt.Receptor>
prm/pocket_docking_4.prm

>  <SCORE>
-21.5881

>  <SCORE.INTER>
-10.5644

>  <SCORE.INTER.CONST>
1

>  <SCORE.INTER.POLAR>
0

>  <SCORE.INTER.ROT>
7

>  <SCORE.INTER.SOLV>
13.2823

>  <SCORE.INTER.VDW>
-19.737

>  <SCORE.INTER.norm>
-0.391273

>  <SCORE.INTRA>
-11.0237

>  <SCORE.INTRA.DIHEDRAL>
-10.7304

>  <SCORE.INTRA.DIHEDRAL.0>
15.0182

>  <SCORE.INTRA.POLAR>
0

>  <SCORE.INTRA.POLAR.0>
0

>  <SCORE.INTRA.REPUL>
0

>  <SCORE.INTRA.REPUL.0>
0

>  <SCORE.INTRA.SOLV>
-1.63878

>  <SCORE.INTRA.SOLV.lig_0>
-47.9129

>  <SCORE.INTRA.VDW>
-4.83914

>  <SCORE.INTRA.VDW.0>
2.00851

>  <SCORE.INTRA.norm>
-0.408286

>  <SCORE.RESTR>
0

>  <SCORE.RESTR.CAVITY>
0

>  <SCORE.RESTR.norm>
0

>  <SCORE.SYSTEM>
0

>  <SCORE.SYSTEM.CONST>
0

>  <SCORE.SYSTEM.DIHEDRAL>
0

>  <SCORE.SYSTEM.SOLV>
0

>  <SCORE.SYSTEM.norm>
0

>  <SCORE.heavy>
27

>  <SCORE.norm>
-0.799558

>  <RMSD>
4.926

$$$$
ligand
 OpenBabel11021811483D
libRbt.so/2013.1/901 2013/11/27
 27 29  0  0  0  0  0  0  0  0999 V2000
  -14.5770   -8.4241   29.9430 N   0  0  0  0  0  0  0  0  0  0  0  0
  -13.2821   -8.6243   29.2980 C   0  0  2  0  0  0  0  0  0  0  0  0
  -12.1281   -8.5101   30.2905 C   0  0  0  0  0  0  0  0  0  0  0  0
  -12.1574   -7.6886   31.2095 O   0  0  0  0  0  0  0  0  0  0  0  0
  -13.1036   -7.6646   28.1253 C   0  0  0  0  0  0  0  0  0  0  0  0
  -13.0099   -6.2069   28.5488 C   0  0  0  0  0  0  0  0  0  0  0  0
  -14.5226   -5.5670   29.3095 S   0  0  2  0  0  0  0  0  0  0  0  0
  -15.6548   -5.6387   27.8990 C   0  0  0  0  0  0  0  0  0  0  0  0
  -14.1511   -3.7934   29.3766 C   0  0  0  0  0  0  0  0  0  0  0  0
  -14.0775   -3.3480   30.8301 C   0  0  1  0  0  0  0  0  0  0  0  0
  -15.2953   -3.6756   31.4557 O   0  0  0  0  0  0  0  0  0  0  0  0
  -13.0190   -4.0316   31.6751 C   0  0  1  0  0  0  0  0  0  0  0  0
  -11.8462   -3.2515   31.7418 O   0  0  0  0  0  0  0  0  0  0  0  0
  -13.6699   -4.1097   33.0411 C   0  0  1  0  0  0  0  0  0  0  0  0
  -13.0718   -3.1478   33.8746 O   0  0  0  0  0  0  0  0  0  0  0  0
  -15.1418   -3.7704   32.8487 C   0  0  2  0  0  0  0  0  0  0  0  0
  -11.1394   -9.2365   30.1879 O   0  0  0  0  0  0  0  0  0  0  0  0
  -15.2457   -8.8283   34.3260 N   0  0  0  0  0  0  0  0  0  0  0  0
  -14.1626   -8.0895   33.8922 C   0  0  0  0  0  0  0  0  0  0  0  0
  -14.3131   -6.7621   33.5380 N   0  0  0  0  0  0  0  0  0  0  0  0
  -15.5289   -6.1696   33.6079 C   0  0  0  0  0  0  0  0  0  0  0  0
  -16.6284   -6.8947   34.0503 C   0  0  0  0  0  0  0  0  0  0  0  0
  -16.4848   -8.2305   34.4054 C   0  0  0  0  0  0  0  0  0  0  0  0
  -17.5400   -8.9274   34.8200 N   0  0  0  0  0  0  0  0  0  0  0  0
  -17.7007   -6.0740   34.0314 N   0  0  0  0  0  0  0  0  0  0  0  0
  -17.3031   -4.8515   33.6072 C   0  0  0  0  0  0  0  0  0  0  0  0
  -15.9599   -4.8917   33.3405 N   0  0  0  0  0  0  0  0  0  0  0  0
  2  1  1  1  0  0  0
  2  3  1  0  0  0  0
  2  5  1  0  0  0  0
  3  4  1  0  0  0  0
  3 17  1  0  0  0  0
  5  6  1  0  0  0  0
  7  6  1  6  0  0  0
  7  8  1  0  0  0  0
  7  9  1  0  0  0  0
 10  9  1  6  0  0  0
 10 11  1  0  0  0  0
 10 12  1  0  0  0  0
 11 16  1  0  0  0  0
 12 13  1  1  0  0  0
 12 14  1  0  0  0  0
 14 15  1  1  0  0  0
 14 16  1  0  0  0  0
 16 27  1  6  0  0  0
 18 19  2  0  0  0  0
 18 23  1  0  0  0  0
 19 20  1  0  0  0  0
 20 21  2  0  0  0  0
 21 22  1  0  0  0  0
 21 27  1  0  0  0  0
 22 23  2  0  0  0  0
 22 25  1  0  0  0  0
 23 24  1  0  0  0  0
 25 26  2  0  0  0  0
 26 27  1  0  0  0  0
M  END
>  <CHROM.1>
-37.03722657,66.56697347,-64.72252904,-65.93876468,-115.68026330,-56.62806890
97.36766653,-14.41145075,-6.10285252,31.65257553,0.01626192,-1.00139867,3.14091279

>  <Name>
ligand

>  <RI>
0

>  <Rbt.Current_Directory>
/home/itssahil/PROJECTS/Mol_Feturizer/New_Systems/rnas/3GX6

>  <Rbt.Executable>
rbdock ($Id: //depot/dev/client3/rdock/2013.1/src/exe/rbdock.cxx#4 $)

>  <Rbt.Library>
libRbt.so (2013.1, Build901 2013/11/27)

>  <Rbt.Parameter_File>
/export/apps/rDock/src/rDock_2013.1_src/data/scripts/dock_solv.prm

>  <Rbt.Receptor>
prm/pocket_docking_6.prm

>  <SCORE>
-20.0504

>  <SCORE.INTER>
-11.8543

>  <SCORE.INTER.CONST>
1

>  <SCORE.INTER.POLAR>
0

>  <SCORE.INTER.ROT>
7

>  <SCORE.INTER.SOLV>
11.5252

>  <SCORE.INTER.VDW>
-20.0113

>  <SCORE.INTER.norm>
-0.439047

>  <SCORE.INTRA>
-8.21254

>  <SCORE.INTRA.DIHEDRAL>
-7.68984

>  <SCORE.INTRA.DIHEDRAL.0>
15.0182

>  <SCORE.INTRA.POLAR>
0

>  <SCORE.INTRA.POLAR.0>
0

>  <SCORE.INTRA.REPUL>
0

>  <SCORE.INTRA.REPUL.0>
0

>  <SCORE.INTRA.SOLV>
1.13891

>  <SCORE.INTRA.SOLV.lig_0>
-47.9129

>  <SCORE.INTRA.VDW>
-4.93708

>  <SCORE.INTRA.VDW.0>
2.00851

>  <SCORE.INTRA.norm>
-0.304168

>  <SCORE.RESTR>
0.0164137

>  <SCORE.RESTR.CAVITY>
0.0164137

>  <SCORE.RESTR.norm>
0.000607914

>  <SCORE.SYSTEM>
0

>  <SCORE.SYSTEM.CONST>
0

>  <SCORE.SYSTEM.DIHEDRAL>
0

>  <SCORE.SYSTEM.SOLV>
0

>  <SCORE.SYSTEM.norm>
0

>  <SCORE.heavy>
27

>  <SCORE.norm>
-0.742608

>  <RMSD>
4.926

$$$$
ligand
 OpenBabel11021811483D
libRbt.so/2013.1/901 2013/11/27
 27 29  0  0  0  0  0  0  0  0999 V2000
  -18.0314   -5.0217   27.5550 N   0  0  0  0  0  0  0  0  0  0  0  0
  -16.8696   -4.3356   28.1138 C   0  0  2  0  0  0  0  0  0  0  0  0
  -15.5606   -5.0011   27.6972 C   0  0  0  0  0  0  0  0  0  0  0  0
  -14.6914   -4.3720   27.0897 O   0  0  0  0  0  0  0  0  0  0  0  0
  -16.9793   -4.2270   29.6318 C   0  0  0  0  0  0  0  0  0  0  0  0
  -15.7896   -3.5300   30.2735 C   0  0  0  0  0  0  0  0  0  0  0  0
  -16.0198   -3.1571   32.0297 S   0  0  2  0  0  0  0  0  0  0  0  0
  -16.8162   -1.5354   31.9192 C   0  0  0  0  0  0  0  0  0  0  0  0
  -14.3333   -2.6924   32.5073 C   0  0  0  0  0  0  0  0  0  0  0  0
  -13.5035   -3.9509   32.7172 C   0  0  1  0  0  0  0  0  0  0  0  0
  -14.0412   -4.6589   33.8087 O   0  0  0  0  0  0  0  0  0  0  0  0
  -13.5177   -4.9469   31.5728 C   0  0  1  0  0  0  0  0  0  0  0  0
  -12.3966   -4.7691   30.7360 O   0  0  0  0  0  0  0  0  0  0  0  0
  -13.4305   -6.2833   32.2816 C   0  0  1  0  0  0  0  0  0  0  0  0
  -12.1301   -6.7918   32.1141 O   0  0  0  0  0  0  0  0  0  0  0  0
  -13.6853   -6.0168   33.7590 C   0  0  2  0  0  0  0  0  0  0  0  0
  -15.3499   -6.1859   27.9570 O   0  0  0  0  0  0  0  0  0  0  0  0
  -18.8757   -6.8545   33.3945 N   0  0  0  0  0  0  0  0  0  0  0  0
  -18.1194   -5.8987   32.7453 C   0  0  0  0  0  0  0  0  0  0  0  0
  -16.7565   -5.8154   32.9596 N   0  0  0  0  0  0  0  0  0  0  0  0
  -16.1456   -6.6695   33.8147 C   0  0  0  0  0  0  0  0  0  0  0  0
  -16.8890   -7.6433   34.4703 C   0  0  0  0  0  0  0  0  0  0  0  0
  -18.2600   -7.7309   34.2616 C   0  0  0  0  0  0  0  0  0  0  0  0
  -18.9733   -8.6575   34.8969 N   0  0  0  0  0  0  0  0  0  0  0  0
  -16.0448   -8.3561   35.2467 N   0  0  0  0  0  0  0  0  0  0  0  0
  -14.7919   -7.8698   35.0844 C   0  0  0  0  0  0  0  0  0  0  0  0
  -14.8349   -6.8244   34.2000 N   0  0  0  0  0  0  0  0  0  0  0  0
  2  1  1  1  0  0  0
  2  3  1  0  0  0  0
  2  5  1  0  0  0  0
  3  4  1  0  0  0  0
  3 17  1  0  0  0  0
  5  6  1  0  0  0  0
  7  6  1  6  0  0  0
  7  8  1  0  0  0  0
  7  9  1  0  0  0  0
 10  9  1  6  0  0  0
 10 11  1  0  0  0  0
 10 12  1  0  0  0  0
 11 16  1  0  0  0  0
 12 13  1  6  0  0  0
 12 14  1  0  0  0  0
 14 15  1  1  0  0  0
 14 16  1  0  0  0  0
 16 27  1  6  0  0  0
 18 19  2  0  0  0  0
 18 23  1  0  0  0  0
 19 20  1  0  0  0  0
 20 21  2  0  0  0  0
 21 22  1  0  0  0  0
 21 27  1  0  0  0  0
 22 23  2  0  0  0  0
 22 25  1  0  0  0  0
 23 24  1  0  0  0  0
 25 26  2  0  0  0  0
 26 27  1  0  0  0  0
M  END
>  <CHROM.1>
121.85377588,179.52807564,170.76777511,-87.92265206,-79.49406876,-64.60353698
45.33664975,-15.61959146,-5.38875520,31.88981103,1.42541721,-0.26604051,-1.09677663

>  <Name>
ligand

>  <RI>
0

>  <Rbt.Current_Directory>
/home/itssahil/PROJECTS/Mol_Feturizer/New_Systems/rnas/3GX6

>  <Rbt.Executable>
rbdock ($Id: //depot/dev/client3/rdock/2013.1/src/exe/rbdock.cxx#4 $)

>  <Rbt.Library>
libRbt.so (2013.1, Build901 2013/11/27)

>  <Rbt.Parameter_File>
/export/apps/rDock/src/rDock_2013.1_src/data/scripts/dock_solv.prm

>  <Rbt.Receptor>
prm/pocket_docking_6.prm

>  <SCORE>
-25.9065

>  <SCORE.INTER>
-14.786

>  <SCORE.INTER.CONST>
1

>  <SCORE.INTER.POLAR>
0

>  <SCORE.INTER.ROT>
7

>  <SCORE.INTER.SOLV>
17.3886

>  <SCORE.INTER.VDW>
-23.9202

>  <SCORE.INTER.norm>
-0.54763

>  <SCORE.INTRA>
-11.1649

>  <SCORE.INTRA.DIHEDRAL>
-10.0014

>  <SCORE.INTRA.DIHEDRAL.0>
15.0182

>  <SCORE.INTRA.POLAR>
0

>  <SCORE.INTRA.POLAR.0>
0

>  <SCORE.INTRA.REPUL>
0

>  <SCORE.INTRA.REPUL.0>
0

>  <SCORE.INTRA.SOLV>
-1.40688

>  <SCORE.INTRA.SOLV.lig_0>
-47.9129

>  <SCORE.INTRA.VDW>
-5.46079

>  <SCORE.INTRA.VDW.0>
2.00851

>  <SCORE.INTRA.norm>
-0.413516

>  <SCORE.RESTR>
0.0444674

>  <SCORE.RESTR.CAVITY>
0.0444674

>  <SCORE.RESTR.norm>
0.00164694

>  <SCORE.SYSTEM>
0

>  <SCORE.SYSTEM.CONST>
0

>  <SCORE.SYSTEM.DIHEDRAL>
0

>  <SCORE.SYSTEM.SOLV>
0

>  <SCORE.SYSTEM.norm>
0

>  <SCORE.heavy>
27

>  <SCORE.norm>
-0.9595

>  <RMSD>
4.935

$$$$
ligand
 OpenBabel11021811483D
libRbt.so/2013.1/901 2013/11/27
 27 29  0  0  0  0  0  0  0  0999 V2000
  -15.3771   -5.5718   27.0105 N   0  0  0  0  0  0  0  0  0  0  0  0
  -14.2823   -6.0817   26.1894 C   0  0  2  0  0  0  0  0  0  0  0  0
  -14.6392   -7.4090   25.5253 C   0  0  0  0  0  0  0  0  0  0  0  0
  -14.0890   -7.7671   24.4815 O   0  0  0  0  0  0  0  0  0  0  0  0
  -12.9977   -6.1959   27.0046 C   0  0  0  0  0  0  0  0  0  0  0  0
  -13.1598   -7.0206   28.2721 C   0  0  0  0  0  0  0  0  0  0  0  0
  -11.6511   -7.1410   29.2649 S   0  0  2  0  0  0  0  0  0  0  0  0
  -10.8203   -8.5178   28.4337 C   0  0  0  0  0  0  0  0  0  0  0  0
  -12.2838   -7.9565   30.7560 C   0  0  0  0  0  0  0  0  0  0  0  0
  -13.2574   -7.0262   31.4651 C   0  0  1  0  0  0  0  0  0  0  0  0
  -13.8408   -7.7290   32.5363 O   0  0  0  0  0  0  0  0  0  0  0  0
  -12.6436   -5.7957   32.1061 C   0  0  1  0  0  0  0  0  0  0  0  0
  -12.7444   -4.6788   31.2511 O   0  0  0  0  0  0  0  0  0  0  0  0
  -13.5021   -5.5871   33.3371 C   0  0  1  0  0  0  0  0  0  0  0  0
  -14.3519   -4.4906   33.1064 O   0  0  0  0  0  0  0  0  0  0  0  0
  -14.3367   -6.8487   33.5120 C   0  0  2  0  0  0  0  0  0  0  0  0
  -15.4911   -8.1476   26.0196 O   0  0  0  0  0  0  0  0  0  0  0  0
  -16.2331   -9.6174   37.5757 N   0  0  0  0  0  0  0  0  0  0  0  0
  -16.8776   -9.2748   36.4034 C   0  0  0  0  0  0  0  0  0  0  0  0
  -16.2275   -8.5353   35.4335 N   0  0  0  0  0  0  0  0  0  0  0  0
  -14.9486   -8.1327   35.6237 C   0  0  0  0  0  0  0  0  0  0  0  0
  -14.2811   -8.4753   36.7932 C   0  0  0  0  0  0  0  0  0  0  0  0
  -14.9296   -9.2164   37.7736 C   0  0  0  0  0  0  0  0  0  0  0  0
  -14.2933   -9.5362   38.8978 N   0  0  0  0  0  0  0  0  0  0  0  0
  -13.0342   -7.9616   36.7241 N   0  0  0  0  0  0  0  0  0  0  0  0
  -12.8941   -7.3222   35.5392 C   0  0  0  0  0  0  0  0  0  0  0  0
  -14.0703   -7.4182   34.8436 N   0  0  0  0  0  0  0  0  0  0  0  0
  2  1  1  1  0  0  0
  2  3  1  0  0  0  0
  2  5  1  0  0  0  0
  3  4  1  0  0  0  0
  3 17  1  0  0  0  0
  5  6  1  0  0  0  0
  7  6  1  6  0  0  0
  7  8  1  0  0  0  0
  7  9  1  0  0  0  0
 10  9  1  1  0  0  0
 10 11  1  0  0  0  0
 10 12  1  0  0  0  0
 11 16  1  0  0  0  0
 12 13  1  6  0  0  0
 12 14  1  0  0  0  0
 14 15  1  6  0  0  0
 14 16  1  0  0  0  0
 16 27  1  1  0  0  0
 18 19  2  0  0  0  0
 18 23  1  0  0  0  0
 19 20  1  0  0  0  0
 20 21  2  0  0  0  0
 21 22  1  0  0  0  0
 21 27  1  0  0  0  0
 22 23  2  0  0  0  0
 22 25  1  0  0  0  0
 23 24  1  0  0  0  0
 25 26  2  0  0  0  0
 26 27  1  0  0  0  0
M  END
>  <CHROM.1>
154.85195831,54.29821326,-178.98842983,-84.09592175,-65.68872890,173.88692550
-97.67422040,-13.84046309,-7.34373431,31.79521628,1.43604289,-0.54788896
-1.49483220

>  <Name>
ligand

>  <RI>
0

>  <Rbt.Current_Directory>
/home/itssahil/PROJECTS/Mol_Feturizer/New_Systems/rnas/3GX6

>  <Rbt.Executable>
rbdock ($Id: //depot/dev/client3/rdock/2013.1/src/exe/rbdock.cxx#4 $)

>  <Rbt.Library>
libRbt.so (2013.1, Build901 2013/11/27)

>  <Rbt.Parameter_File>
/export/apps/rDock/src/rDock_2013.1_src/data/scripts/dock_solv.prm

>  <Rbt.Receptor>
prm/pocket_docking_7.prm

>  <SCORE>
-22.4086

>  <SCORE.INTER>
-12.5006

>  <SCORE.INTER.CONST>
1

>  <SCORE.INTER.POLAR>
0

>  <SCORE.INTER.ROT>
7

>  <SCORE.INTER.SOLV>
15.0726

>  <SCORE.INTER.VDW>
-21.6246

>  <SCORE.INTER.norm>
-0.462984

>  <SCORE.INTRA>
-9.90806

>  <SCORE.INTRA.DIHEDRAL>
-10.7891

>  <SCORE.INTRA.DIHEDRAL.0>
15.0182

>  <SCORE.INTRA.POLAR>
0

>  <SCORE.INTRA.POLAR.0>
0

>  <SCORE.INTRA.REPUL>
0

>  <SCORE.INTRA.REPUL.0>
0

>  <SCORE.INTRA.SOLV>
-0.916716

>  <SCORE.INTRA.SOLV.lig_0>
-47.9129

>  <SCORE.INTRA.VDW>
-4.05517

>  <SCORE.INTRA.VDW.0>
2.00851

>  <SCORE.INTRA.norm>
-0.366965

>  <SCORE.RESTR>
0

>  <SCORE.RESTR.CAVITY>
0

>  <SCORE.RESTR.norm>
0

>  <SCORE.SYSTEM>
0

>  <SCORE.SYSTEM.CONST>
0

>  <SCORE.SYSTEM.DIHEDRAL>
0

>  <SCORE.SYSTEM.SOLV>
0

>  <SCORE.SYSTEM.norm>
0

>  <SCORE.heavy>
27

>  <SCORE.norm>
-0.82995

>  <RMSD>
4.944

$$$$
ligand
 OpenBabel11021811483D
libRbt.so/2013.1/901 2013/11/27
 27 29  0  0  0  0  0  0  0  0999 V2000
  -14.4133   -7.3680   24.5477 N   0  0  0  0  0  0  0  0  0  0  0  0
  -13.8929   -8.1297   25.6799 C   0  0  2  0  0  0  0  0  0  0  0  0
  -14.6005   -9.4732   25.8357 C   0  0  0  0  0  0  0  0  0  0  0  0
  -14.0655  -10.4092   26.4339 O   0  0  0  0  0  0  0  0  0  0  0  0
  -13.9646   -7.3114   26.9657 C   0  0  0  0  0  0  0  0  0  0  0  0
  -13.3125   -5.9427   26.8460 C   0  0  0  0  0  0  0  0  0  0  0  0
  -12.9977   -5.1402   28.4376 S   0  0  2  0  0  0  0  0  0  0  0  0
  -11.9260   -6.3717   29.2196 C   0  0  0  0  0  0  0  0  0  0  0  0
  -14.5681   -5.4423   29.2926 C   0  0  0  0  0  0  0  0  0  0  0  0
  -14.6033   -4.6358   30.5827 C   0  0  1  0  0  0  0  0  0  0  0  0
  -15.8064   -4.9258   31.2535 O   0  0  0  0  0  0  0  0  0  0  0  0
  -13.5171   -4.9598   31.5913 C   0  0  1  0  0  0  0  0  0  0  0  0
  -12.4350   -4.0635   31.4719 O   0  0  0  0  0  0  0  0  0  0  0  0
  -14.2146   -4.7585   32.9214 C   0  0  1  0  0  0  0  0  0  0  0  0
  -13.7552   -3.5557   33.4871 O   0  0  0  0  0  0  0  0  0  0  0  0
  -15.7040   -4.6446   32.6259 C   0  0  2  0  0  0  0  0  0  0  0  0
  -15.7222   -9.6493   25.3597 O   0  0  0  0  0  0  0  0  0  0  0  0
  -15.4267   -9.3405   35.0022 N   0  0  0  0  0  0  0  0  0  0  0  0
  -14.4194   -8.6525   34.3549 C   0  0  0  0  0  0  0  0  0  0  0  0
  -14.6668   -7.4209   33.7785 N   0  0  0  0  0  0  0  0  0  0  0  0
  -15.9046   -6.8748   33.8378 C   0  0  0  0  0  0  0  0  0  0  0  0
  -16.9284   -7.5484   34.4924 C   0  0  0  0  0  0  0  0  0  0  0  0
  -16.6873   -8.7882   35.0718 C   0  0  0  0  0  0  0  0  0  0  0  0
  -17.6704   -9.4377   35.6904 N   0  0  0  0  0  0  0  0  0  0  0  0
  -18.0420   -6.7890   34.4115 N   0  0  0  0  0  0  0  0  0  0  0  0
  -17.7430   -5.6515   33.7411 C   0  0  0  0  0  0  0  0  0  0  0  0
  -16.4225   -5.6869   33.3781 N   0  0  0  0  0  0  0  0  0  0  0  0
  2  1  1  6  0  0  0
  2  3  1  0  0  0  0
  2  5  1  0  0  0  0
  3  4  1  0  0  0  0
  3 17  1  0  0  0  0
  5  6  1  0  0  0  0
  7  6  1  6  0  0  0
  7  8  1  0  0  0  0
  7  9  1  0  0  0  0
 10  9  1  6  0  0  0
 10 11  1  0  0  0  0
 10 12  1  0  0  0  0
 11 16  1  0  0  0  0
 12 13  1  1  0  0  0
 12 14  1  0  0  0  0
 14 15  1  6  0  0  0
 14 16  1  0  0  0  0
 16 27  1  1  0  0  0
 18 19  2  0  0  0  0
 18 23  1  0  0  0  0
 19 20  1  0  0  0  0
 20 21  2  0  0  0  0
 21 22  1  0  0  0  0
 21 27  1  0  0  0  0
 22 23  2  0  0  0  0
 22 25  1  0  0  0  0
 23 24  1  0  0  0  0
 25 26  2  0  0  0  0
 26 27  1  0  0  0  0
M  END
>  <CHROM.1>
157.50839714,-52.76521080,-164.80752355,58.81849410,-170.40810033,-177.74544015
89.13591763,-14.80131489,-6.67810710,30.76196760,1.03379917,-1.03351847,-2.13614246

>  <Name>
ligand

>  <RI>
0

>  <Rbt.Current_Directory>
/home/itssahil/PROJECTS/Mol_Feturizer/New_Systems/rnas/3GX6

>  <Rbt.Executable>
rbdock ($Id: //depot/dev/client3/rdock/2013.1/src/exe/rbdock.cxx#4 $)

>  <Rbt.Library>
libRbt.so (2013.1, Build901 2013/11/27)

>  <Rbt.Parameter_File>
/export/apps/rDock/src/rDock_2013.1_src/data/scripts/dock_solv.prm

>  <Rbt.Receptor>
prm/pocket_docking_6.prm

>  <SCORE>
-17.6377

>  <SCORE.INTER>
-9.92969

>  <SCORE.INTER.CONST>
1

>  <SCORE.INTER.POLAR>
0

>  <SCORE.INTER.ROT>
7

>  <SCORE.INTER.SOLV>
12.2779

>  <SCORE.INTER.VDW>
-18.9791

>  <SCORE.INTER.norm>
-0.367766

>  <SCORE.INTRA>
-7.70802

>  <SCORE.INTRA.DIHEDRAL>
-9.76375

>  <SCORE.INTRA.DIHEDRAL.0>
15.0182

>  <SCORE.INTRA.POLAR>
0

>  <SCORE.INTRA.POLAR.0>
0

>  <SCORE.INTRA.REPUL>
0

>  <SCORE.INTRA.REPUL.0>
0

>  <SCORE.INTRA.SOLV>
-0.771907

>  <SCORE.INTRA.SOLV.lig_0>
-47.9129

>  <SCORE.INTRA.VDW>
-2.44019

>  <SCORE.INTRA.VDW.0>
2.00851

>  <SCORE.INTRA.norm>
-0.285482

>  <SCORE.RESTR>
0

>  <SCORE.RESTR.CAVITY>
0

>  <SCORE.RESTR.norm>
0

>  <SCORE.SYSTEM>
0

>  <SCORE.SYSTEM.CONST>
0

>  <SCORE.SYSTEM.DIHEDRAL>
0

>  <SCORE.SYSTEM.SOLV>
0

>  <SCORE.SYSTEM.norm>
0

>  <SCORE.heavy>
27

>  <SCORE.norm>
-0.653249

>  <RMSD>
4.949

$$$$
ligand
 OpenBabel11021811483D
libRbt.so/2013.1/901 2013/11/27
 27 29  0  0  0  0  0  0  0  0999 V2000
  -14.1631   -6.6075   28.6692 N   0  0  0  0  0  0  0  0  0  0  0  0
  -14.4137   -5.1787   28.5003 C   0  0  2  0  0  0  0  0  0  0  0  0
  -14.6330   -4.8085   27.0358 C   0  0  0  0  0  0  0  0  0  0  0  0
  -15.4213   -3.9160   26.7156 O   0  0  0  0  0  0  0  0  0  0  0  0
  -13.2914   -4.3518   29.1205 C   0  0  0  0  0  0  0  0  0  0  0  0
  -13.1363   -4.5733   30.6172 C   0  0  0  0  0  0  0  0  0  0  0  0
  -14.5981   -4.1133   31.5804 S   0  0  2  0  0  0  0  0  0  0  0  0
  -14.5193   -2.3093   31.4551 C   0  0  0  0  0  0  0  0  0  0  0  0
  -13.9950   -4.3784   33.2700 C   0  0  0  0  0  0  0  0  0  0  0  0
  -14.0587   -5.8624   33.6013 C   0  0  1  0  0  0  0  0  0  0  0  0
  -15.2646   -6.3788   33.0907 O   0  0  0  0  0  0  0  0  0  0  0  0
  -12.9792   -6.7239   32.9733 C   0  0  1  0  0  0  0  0  0  0  0  0
  -11.9107   -6.9269   33.8710 O   0  0  0  0  0  0  0  0  0  0  0  0
  -13.6953   -8.0335   32.7128 C   0  0  1  0  0  0  0  0  0  0  0  0
  -13.2626   -8.9742   33.6644 O   0  0  0  0  0  0  0  0  0  0  0  0
  -15.1829   -7.7681   32.9008 C   0  0  2  0  0  0  0  0  0  0  0  0
  -14.0274   -5.4008   26.1425 O   0  0  0  0  0  0  0  0  0  0  0  0
  -14.8997  -10.0702   28.1684 N   0  0  0  0  0  0  0  0  0  0  0  0
  -13.9045   -9.9499   29.1182 C   0  0  0  0  0  0  0  0  0  0  0  0
  -14.1502   -9.3073   30.3169 N   0  0  0  0  0  0  0  0  0  0  0  0
  -15.3719   -8.7824   30.5732 C   0  0  0  0  0  0  0  0  0  0  0  0
  -16.3880   -8.9012   29.6330 C   0  0  0  0  0  0  0  0  0  0  0  0
  -16.1471   -9.5437   28.4246 C   0  0  0  0  0  0  0  0  0  0  0  0
  -17.1178   -9.6491   27.5203 N   0  0  0  0  0  0  0  0  0  0  0  0
  -17.4904   -8.3061   30.1370 N   0  0  0  0  0  0  0  0  0  0  0  0
  -17.2011   -7.8330   31.3719 C   0  0  0  0  0  0  0  0  0  0  0  0
  -15.8926   -8.1194   31.6593 N   0  0  0  0  0  0  0  0  0  0  0  0
  2  1  1  6  0  0  0
  2  3  1  0  0  0  0
  2  5  1  0  0  0  0
  3  4  1  0  0  0  0
  3 17  1  0  0  0  0
  5  6  1  0  0  0  0
  7  6  1  6  0  0  0
  7  8  1  0  0  0  0
  7  9  1  0  0  0  0
 10  9  1  6  0  0  0
 10 11  1  0  0  0  0
 10 12  1  0  0  0  0
 11 16  1  0  0  0  0
 12 13  1  1  0  0  0
 12 14  1  0  0  0  0
 14 15  1  1  0  0  0
 14 16  1  0  0  0  0
 16 27  1  6  0  0  0
 18 19  2  0  0  0  0
 18 23  1  0  0  0  0
 19 20  1  0  0  0  0
 20 21  2  0  0  0  0
 21 22  1  0  0  0  0
 21 27  1  0  0  0  0
 22 23  2  0  0  0  0
 22 25  1  0  0  0  0
 23 24  1  0  0  0  0
 25 26  2  0  0  0  0
 26 27  1  0  0  0  0
M  END
>  <CHROM.1>
145.56006632,-61.04750009,-61.54529337,-71.71862799,-79.97860737,-41.23396788
123.00193989,-14.66410437,-6.71994788,30.54829991,-2.77064967,1.23643743
2.34869090

>  <Name>
ligand

>  <RI>
0

>  <Rbt.Current_Directory>
/home/itssahil/PROJECTS/Mol_Feturizer/New_Systems/rnas/3GX6

>  <Rbt.Executable>
rbdock ($Id: //depot/dev/client3/rdock/2013.1/src/exe/rbdock.cxx#4 $)

>  <Rbt.Library>
libRbt.so (2013.1, Build901 2013/11/27)

>  <Rbt.Parameter_File>
/export/apps/rDock/src/rDock_2013.1_src/data/scripts/dock_solv.prm

>  <Rbt.Receptor>
prm/pocket_docking_4.prm

>  <SCORE>
-19.9646

>  <SCORE.INTER>
-10.8532

>  <SCORE.INTER.CONST>
1

>  <SCORE.INTER.POLAR>
0

>  <SCORE.INTER.ROT>
7

>  <SCORE.INTER.SOLV>
11.3585

>  <SCORE.INTER.VDW>
-19.2883

>  <SCORE.INTER.norm>
-0.401971

>  <SCORE.INTRA>
-9.11135

>  <SCORE.INTRA.DIHEDRAL>
-10.1983

>  <SCORE.INTRA.DIHEDRAL.0>
15.0182

>  <SCORE.INTRA.POLAR>
0

>  <SCORE.INTRA.POLAR.0>
0

>  <SCORE.INTRA.REPUL>
0

>  <SCORE.INTRA.REPUL.0>
0

>  <SCORE.INTRA.SOLV>
2.23248

>  <SCORE.INTRA.SOLV.lig_0>
-47.9129

>  <SCORE.INTRA.VDW>
-5.12844

>  <SCORE.INTRA.VDW.0>
2.00851

>  <SCORE.INTRA.norm>
-0.337457

>  <SCORE.RESTR>
0

>  <SCORE.RESTR.CAVITY>
0

>  <SCORE.RESTR.norm>
0

>  <SCORE.SYSTEM>
0

>  <SCORE.SYSTEM.CONST>
0

>  <SCORE.SYSTEM.DIHEDRAL>
0

>  <SCORE.SYSTEM.SOLV>
0

>  <SCORE.SYSTEM.norm>
0

>  <SCORE.heavy>
27

>  <SCORE.norm>
-0.739429

>  <RMSD>
4.952

$$$$
ligand
 OpenBabel11021811483D
libRbt.so/2013.1/901 2013/11/27
 27 29  0  0  0  0  0  0  0  0999 V2000
  -14.4696   -6.2399   28.7706 N   0  0  0  0  0  0  0  0  0  0  0  0
  -14.9790   -4.8773   28.8994 C   0  0  2  0  0  0  0  0  0  0  0  0
  -15.8009   -4.4594   27.6829 C   0  0  0  0  0  0  0  0  0  0  0  0
  -15.2668   -4.2705   26.5878 O   0  0  0  0  0  0  0  0  0  0  0  0
  -13.8432   -3.8943   29.1669 C   0  0  0  0  0  0  0  0  0  0  0  0
  -13.2118   -4.0625   30.5403 C   0  0  0  0  0  0  0  0  0  0  0  0
  -14.3231   -3.6596   31.9110 S   0  0  2  0  0  0  0  0  0  0  0  0
  -14.4226   -1.8608   31.7348 C   0  0  0  0  0  0  0  0  0  0  0  0
  -13.1980   -3.8160   33.3245 C   0  0  0  0  0  0  0  0  0  0  0  0
  -13.2572   -5.2389   33.8613 C   0  0  1  0  0  0  0  0  0  0  0  0
  -14.6062   -5.5704   34.0892 O   0  0  0  0  0  0  0  0  0  0  0  0
  -12.7532   -6.3183   32.9218 C   0  0  1  0  0  0  0  0  0  0  0  0
  -11.4093   -6.6421   33.2008 O   0  0  0  0  0  0  0  0  0  0  0  0
  -13.6494   -7.4971   33.2432 C   0  0  1  0  0  0  0  0  0  0  0  0
  -12.9072   -8.4299   33.9894 O   0  0  0  0  0  0  0  0  0  0  0  0
  -14.7942   -6.9623   34.0929 C   0  0  2  0  0  0  0  0  0  0  0  0
  -17.0179   -4.2976   27.7748 O   0  0  0  0  0  0  0  0  0  0  0  0
  -19.3670   -9.5720   34.3255 N   0  0  0  0  0  0  0  0  0  0  0  0
  -18.3486   -9.5530   35.2579 C   0  0  0  0  0  0  0  0  0  0  0  0
  -17.2049   -8.8096   35.0353 N   0  0  0  0  0  0  0  0  0  0  0  0
  -17.0670   -8.0927   33.8947 C   0  0  0  0  0  0  0  0  0  0  0  0
  -18.0848   -8.0930   32.9489 C   0  0  0  0  0  0  0  0  0  0  0  0
  -19.2362   -8.8402   33.1652 C   0  0  0  0  0  0  0  0  0  0  0  0
  -20.2070   -8.8479   32.2548 N   0  0  0  0  0  0  0  0  0  0  0  0
  -17.6992   -7.3012   31.9252 N   0  0  0  0  0  0  0  0  0  0  0  0
  -16.4778   -6.7908   32.2085 C   0  0  0  0  0  0  0  0  0  0  0  0
  -16.0703   -7.2700   33.4255 N   0  0  0  0  0  0  0  0  0  0  0  0
  2  1  1  6  0  0  0
  2  3  1  0  0  0  0
  2  5  1  0  0  0  0
  3  4  1  0  0  0  0
  3 17  1  0  0  0  0
  5  6  1  0  0  0  0
  7  6  1  6  0  0  0
  7  8  1  0  0  0  0
  7  9  1  0  0  0  0
 10  9  1  6  0  0  0
 10 11  1  0  0  0  0
 10 12  1  0  0  0  0
 11 16  1  0  0  0  0
 12 13  1  1  0  0  0
 12 14  1  0  0  0  0
 14 15  1  1  0  0  0
 14 16  1  0  0  0  0
 16 27  1  6  0  0  0
 18 19  2  0  0  0  0
 18 23  1  0  0  0  0
 19 20  1  0  0  0  0
 20 21  2  0  0  0  0
 21 22  1  0  0  0  0
 21 27  1  0  0  0  0
 22 23  2  0  0  0  0
 22 25  1  0  0  0  0
 23 24  1  0  0  0  0
 25 26  2  0  0  0  0
 26 27  1  0  0  0  0
M  END
>  <CHROM.1>
-69.43655540,-68.83145280,-66.04013079,-70.92899468,-91.23030052,-51.92267531
-131.06557009,-15.41134877,-6.15651996,32.02912516,1.00185837,-0.47741651
-1.03329801

>  <Name>
ligand

>  <RI>
0

>  <Rbt.Current_Directory>
/home/itssahil/PROJECTS/Mol_Feturizer/New_Systems/rnas/3GX6

>  <Rbt.Executable>
rbdock ($Id: //depot/dev/client3/rdock/2013.1/src/exe/rbdock.cxx#4 $)

>  <Rbt.Library>
libRbt.so (2013.1, Build901 2013/11/27)

>  <Rbt.Parameter_File>
/export/apps/rDock/src/rDock_2013.1_src/data/scripts/dock_solv.prm

>  <Rbt.Receptor>
prm/pocket_docking_7.prm

>  <SCORE>
-24.4684

>  <SCORE.INTER>
-14.1885

>  <SCORE.INTER.CONST>
1

>  <SCORE.INTER.POLAR>
0

>  <SCORE.INTER.ROT>
7

>  <SCORE.INTER.SOLV>
8.14417

>  <SCORE.INTER.VDW>
-20.4404

>  <SCORE.INTER.norm>
-0.525501

>  <SCORE.INTRA>
-10.2799

>  <SCORE.INTRA.DIHEDRAL>
-9.74277

>  <SCORE.INTRA.DIHEDRAL.0>
15.0182

>  <SCORE.INTRA.POLAR>
0

>  <SCORE.INTRA.POLAR.0>
0

>  <SCORE.INTRA.REPUL>
0

>  <SCORE.INTRA.REPUL.0>
0

>  <SCORE.INTRA.SOLV>
-0.479589

>  <SCORE.INTRA.SOLV.lig_0>
-47.9129

>  <SCORE.INTRA.VDW>
-5.16868

>  <SCORE.INTRA.VDW.0>
2.00851

>  <SCORE.INTRA.norm>
-0.380736

>  <SCORE.RESTR>
0

>  <SCORE.RESTR.CAVITY>
0

>  <SCORE.RESTR.norm>
0

>  <SCORE.SYSTEM>
0

>  <SCORE.SYSTEM.CONST>
0

>  <SCORE.SYSTEM.DIHEDRAL>
0

>  <SCORE.SYSTEM.SOLV>
0

>  <SCORE.SYSTEM.norm>
0

>  <SCORE.heavy>
27

>  <SCORE.norm>
-0.906236

>  <RMSD>
4.978

$$$$
ligand
 OpenBabel11021811483D
libRbt.so/2013.1/901 2013/11/27
 27 29  0  0  0  0  0  0  0  0999 V2000
  -12.5560   -8.2226   29.3208 N   0  0  0  0  0  0  0  0  0  0  0  0
  -14.0040   -8.0715   29.2047 C   0  0  2  0  0  0  0  0  0  0  0  0
  -14.7523   -9.0407   30.1160 C   0  0  0  0  0  0  0  0  0  0  0  0
  -15.1372   -8.6944   31.2350 O   0  0  0  0  0  0  0  0  0  0  0  0
  -14.4518   -8.2152   27.7532 C   0  0  0  0  0  0  0  0  0  0  0  0
  -15.8245   -7.6182   27.4844 C   0  0  0  0  0  0  0  0  0  0  0  0
  -15.7908   -5.8503   27.0974 S   0  0  2  0  0  0  0  0  0  0  0  0
  -14.4469   -5.8053   25.8856 C   0  0  0  0  0  0  0  0  0  0  0  0
  -14.9631   -5.1908   28.5699 C   0  0  0  0  0  0  0  0  0  0  0  0
  -16.0022   -4.8905   29.6407 C   0  0  1  0  0  0  0  0  0  0  0  0
  -16.0781   -5.9976   30.5069 O   0  0  0  0  0  0  0  0  0  0  0  0
  -15.6902   -3.7164   30.5495 C   0  0  1  0  0  0  0  0  0  0  0  0
  -16.3297   -2.5442   30.0959 O   0  0  0  0  0  0  0  0  0  0  0  0
  -16.2767   -4.1475   31.8785 C   0  0  1  0  0  0  0  0  0  0  0  0
  -17.4621   -3.4232   32.0976 O   0  0  0  0  0  0  0  0  0  0  0  0
  -16.6023   -5.6300   31.7571 C   0  0  2  0  0  0  0  0  0  0  0  0
  -14.9820  -10.1936   29.7504 O   0  0  0  0  0  0  0  0  0  0  0  0
  -11.9291   -6.8159   33.8854 N   0  0  0  0  0  0  0  0  0  0  0  0
  -12.1889   -6.0053   32.7981 C   0  0  0  0  0  0  0  0  0  0  0  0
  -13.4860   -5.8018   32.3665 N   0  0  0  0  0  0  0  0  0  0  0  0
  -14.5202   -6.4002   33.0038 C   0  0  0  0  0  0  0  0  0  0  0  0
  -14.2788   -7.2123   34.1050 C   0  0  0  0  0  0  0  0  0  0  0  0
  -12.9769   -7.4235   34.5426 C   0  0  0  0  0  0  0  0  0  0  0  0
  -12.7452   -8.2090   35.5916 N   0  0  0  0  0  0  0  0  0  0  0  0
  -15.4684   -7.6708   34.5504 N   0  0  0  0  0  0  0  0  0  0  0  0
  -16.4496   -7.1567   33.7722 C   0  0  0  0  0  0  0  0  0  0  0  0
  -15.8808   -6.3664   32.8086 N   0  0  0  0  0  0  0  0  0  0  0  0
  2  1  1  6  0  0  0
  2  3  1  0  0  0  0
  2  5  1  0  0  0  0
  3  4  1  0  0  0  0
  3 17  1  0  0  0  0
  5  6  1  0  0  0  0
  7  6  1  1  0  0  0
  7  8  1  0  0  0  0
  7  9  1  0  0  0  0
 10  9  1  6  0  0  0
 10 11  1  0  0  0  0
 10 12  1  0  0  0  0
 11 16  1  0  0  0  0
 12 13  1  6  0  0  0
 12 14  1  0  0  0  0
 14 15  1  6  0  0  0
 14 16  1  0  0  0  0
 16 27  1  1  0  0  0
 18 19  2  0  0  0  0
 18 23  1  0  0  0  0
 19 20  1  0  0  0  0
 20 21  2  0  0  0  0
 21 22  1  0  0  0  0
 21 27  1  0  0  0  0
 22 23  2  0  0  0  0
 22 25  1  0  0  0  0
 23 24  1  0  0  0  0
 25 26  2  0  0  0  0
 26 27  1  0  0  0  0
M  END
>  <CHROM.1>
95.32406968,-160.42893167,86.29800519,46.83500119,-87.93206277,95.43172817
54.35122937,-14.94256579,-6.48261871,30.86162094,-2.02367843,-1.04960204
1.33511902

>  <Name>
ligand

>  <RI>
0

>  <Rbt.Current_Directory>
/home/itssahil/PROJECTS/Mol_Feturizer/New_Systems/rnas/3GX6

>  <Rbt.Executable>
rbdock ($Id: //depot/dev/client3/rdock/2013.1/src/exe/rbdock.cxx#4 $)

>  <Rbt.Library>
libRbt.so (2013.1, Build901 2013/11/27)

>  <Rbt.Parameter_File>
/export/apps/rDock/src/rDock_2013.1_src/data/scripts/dock_solv.prm

>  <Rbt.Receptor>
prm/pocket_docking_2.prm

>  <SCORE>
-10.2513

>  <SCORE.INTER>
-3.38699

>  <SCORE.INTER.CONST>
1

>  <SCORE.INTER.POLAR>
0

>  <SCORE.INTER.ROT>
7

>  <SCORE.INTER.SOLV>
15.4289

>  <SCORE.INTER.VDW>
-15.6676

>  <SCORE.INTER.norm>
-0.125444

>  <SCORE.INTRA>
-8.02545

>  <SCORE.INTRA.DIHEDRAL>
-3.79546

>  <SCORE.INTRA.DIHEDRAL.0>
15.0182

>  <SCORE.INTRA.POLAR>
0

>  <SCORE.INTRA.POLAR.0>
0

>  <SCORE.INTRA.REPUL>
0

>  <SCORE.INTRA.REPUL.0>
0

>  <SCORE.INTRA.SOLV>
-0.727989

>  <SCORE.INTRA.SOLV.lig_0>
-47.9129

>  <SCORE.INTRA.VDW>
-5.76373

>  <SCORE.INTRA.VDW.0>
2.00851

>  <SCORE.INTRA.norm>
-0.297239

>  <SCORE.RESTR>
1.16115

>  <SCORE.RESTR.CAVITY>
1.16115

>  <SCORE.RESTR.norm>
0.0430054

>  <SCORE.SYSTEM>
0

>  <SCORE.SYSTEM.CONST>
0

>  <SCORE.SYSTEM.DIHEDRAL>
0

>  <SCORE.SYSTEM.SOLV>
0

>  <SCORE.SYSTEM.norm>
0

>  <SCORE.heavy>
27

>  <SCORE.norm>
-0.379678

>  <RMSD>
4.979

$$$$
ligand
 OpenBabel11021811483D
libRbt.so/2013.1/901 2013/11/27
 27 29  0  0  0  0  0  0  0  0999 V2000
  -14.5059   -2.7855   31.4966 N   0  0  0  0  0  0  0  0  0  0  0  0
  -15.7036   -3.5713   31.2118 C   0  0  2  0  0  0  0  0  0  0  0  0
  -16.5922   -2.8973   30.1698 C   0  0  0  0  0  0  0  0  0  0  0  0
  -16.9006   -1.7076   30.2693 O   0  0  0  0  0  0  0  0  0  0  0  0
  -16.4769   -3.8689   32.4929 C   0  0  0  0  0  0  0  0  0  0  0  0
  -17.6116   -4.8621   32.2948 C   0  0  0  0  0  0  0  0  0  0  0  0
  -17.0554   -6.5570   31.9879 S   0  0  2  0  0  0  0  0  0  0  0  0
  -18.6469   -7.4161   31.9128 C   0  0  0  0  0  0  0  0  0  0  0  0
  -16.4728   -7.0327   33.6380 C   0  0  0  0  0  0  0  0  0  0  0  0
  -14.9546   -7.1379   33.6261 C   0  0  1  0  0  0  0  0  0  0  0  0
  -14.5889   -8.1645   32.7350 O   0  0  0  0  0  0  0  0  0  0  0  0
  -14.2140   -5.9137   33.1215 C   0  0  1  0  0  0  0  0  0  0  0  0
  -13.7994   -5.0978   34.1944 O   0  0  0  0  0  0  0  0  0  0  0  0
  -13.0073   -6.5076   32.4236 C   0  0  1  0  0  0  0  0  0  0  0  0
  -11.8776   -6.3012   33.2353 O   0  0  0  0  0  0  0  0  0  0  0  0
  -13.2679   -8.0015   32.2861 C   0  0  2  0  0  0  0  0  0  0  0  0
  -17.0239   -3.5339   29.2085 O   0  0  0  0  0  0  0  0  0  0  0  0
  -15.2685   -7.3005   27.4610 N   0  0  0  0  0  0  0  0  0  0  0  0
  -15.6583   -6.6978   28.6407 C   0  0  0  0  0  0  0  0  0  0  0  0
  -15.0214   -7.0008   29.8293 N   0  0  0  0  0  0  0  0  0  0  0  0
  -14.0078   -7.8985   29.8521 C   0  0  0  0  0  0  0  0  0  0  0  0
  -13.5961   -8.5086   28.6736 C   0  0  0  0  0  0  0  0  0  0  0  0
  -14.2337   -8.2106   27.4755 C   0  0  0  0  0  0  0  0  0  0  0  0
  -13.8456   -8.8022   26.3483 N   0  0  0  0  0  0  0  0  0  0  0  0
  -12.5769   -9.3424   28.9729 N   0  0  0  0  0  0  0  0  0  0  0  0
  -12.3257   -9.2604   30.3006 C   0  0  0  0  0  0  0  0  0  0  0  0
  -13.2025   -8.3700   30.8619 N   0  0  0  0  0  0  0  0  0  0  0  0
  2  1  1  1  0  0  0
  2  3  1  0  0  0  0
  2  5  1  0  0  0  0
  3  4  1  0  0  0  0
  3 17  1  0  0  0  0
  5  6  1  0  0  0  0
  7  6  1  1  0  0  0
  7  8  1  0  0  0  0
  7  9  1  0  0  0  0
 10  9  1  6  0  0  0
 10 11  1  0  0  0  0
 10 12  1  0  0  0  0
 11 16  1  0  0  0  0
 12 13  1  1  0  0  0
 12 14  1  0  0  0  0
 14 15  1  1  0  0  0
 14 16  1  0  0  0  0
 16 27  1  6  0  0  0
 18 19  2  0  0  0  0
 18 23  1  0  0  0  0
 19 20  1  0  0  0  0
 20 21  2  0  0  0  0
 21 22  1  0  0  0  0
 21 27  1  0  0  0  0
 22 23  2  0  0  0  0
 22 25  1  0  0  0  0
 23 24  1  0  0  0  0
 25 26  2  0  0  0  0
 26 27  1  0  0  0  0
M  END
>  <CHROM.1>
-48.88596461,-171.00656441,70.84022549,176.70790379,-109.52648019,-63.07897114
51.81101538,-15.03688707,-6.34744205,31.02653175,2.47963829,-0.89054869,1.31579040

>  <Name>
ligand

>  <RI>
0

>  <Rbt.Current_Directory>
/home/itssahil/PROJECTS/Mol_Feturizer/New_Systems/rnas/3GX6

>  <Rbt.Executable>
rbdock ($Id: //depot/dev/client3/rdock/2013.1/src/exe/rbdock.cxx#4 $)

>  <Rbt.Library>
libRbt.so (2013.1, Build901 2013/11/27)

>  <Rbt.Parameter_File>
/export/apps/rDock/src/rDock_2013.1_src/data/scripts/dock_solv.prm

>  <Rbt.Receptor>
prm/pocket_docking_6.prm

>  <SCORE>
-16.5511

>  <SCORE.INTER>
-5.81221

>  <SCORE.INTER.CONST>
1

>  <SCORE.INTER.POLAR>
0

>  <SCORE.INTER.ROT>
7

>  <SCORE.INTER.SOLV>
6.73804

>  <SCORE.INTER.VDW>
-14.3875

>  <SCORE.INTER.norm>
-0.215267

>  <SCORE.INTRA>
-10.7389

>  <SCORE.INTRA.DIHEDRAL>
-7.64982

>  <SCORE.INTRA.DIHEDRAL.0>
15.0182

>  <SCORE.INTRA.POLAR>
0

>  <SCORE.INTRA.POLAR.0>
0

>  <SCORE.INTRA.REPUL>
0

>  <SCORE.INTRA.REPUL.0>
0

>  <SCORE.INTRA.SOLV>
0.603338

>  <SCORE.INTRA.SOLV.lig_0>
-47.9129

>  <SCORE.INTRA.VDW>
-7.2157

>  <SCORE.INTRA.VDW.0>
2.00851

>  <SCORE.INTRA.norm>
-0.397738

>  <SCORE.RESTR>
0

>  <SCORE.RESTR.CAVITY>
0

>  <SCORE.RESTR.norm>
0

>  <SCORE.SYSTEM>
0

>  <SCORE.SYSTEM.CONST>
0

>  <SCORE.SYSTEM.DIHEDRAL>
0

>  <SCORE.SYSTEM.SOLV>
0

>  <SCORE.SYSTEM.norm>
0

>  <SCORE.heavy>
27

>  <SCORE.norm>
-0.613006

>  <RMSD>
4.992

$$$$
ligand
 OpenBabel11021811483D
libRbt.so/2013.1/901 2013/11/27
 27 29  0  0  0  0  0  0  0  0999 V2000
  -14.6192   -6.8179   28.4336 N   0  0  0  0  0  0  0  0  0  0  0  0
  -14.7787   -5.4561   28.9368 C   0  0  2  0  0  0  0  0  0  0  0  0
  -15.4318   -4.5407   27.9046 C   0  0  0  0  0  0  0  0  0  0  0  0
  -14.9408   -4.3928   26.7833 O   0  0  0  0  0  0  0  0  0  0  0  0
  -13.4438   -4.8921   29.4143 C   0  0  0  0  0  0  0  0  0  0  0  0
  -13.5680   -3.5279   30.0749 C   0  0  0  0  0  0  0  0  0  0  0  0
  -14.4450   -3.5585   31.6580 S   0  0  2  0  0  0  0  0  0  0  0  0
  -14.7617   -1.7917   31.8918 C   0  0  0  0  0  0  0  0  0  0  0  0
  -13.0698   -3.8278   32.8089 C   0  0  0  0  0  0  0  0  0  0  0  0
  -13.1012   -5.2664   33.3047 C   0  0  1  0  0  0  0  0  0  0  0  0
  -14.2843   -5.4541   34.0441 O   0  0  0  0  0  0  0  0  0  0  0  0
  -13.1523   -6.3330   32.2269 C   0  0  1  0  0  0  0  0  0  0  0  0
  -11.8619   -6.8272   31.9454 O   0  0  0  0  0  0  0  0  0  0  0  0
  -13.9982   -7.4189   32.8603 C   0  0  1  0  0  0  0  0  0  0  0  0
  -13.1531   -8.4779   33.2375 O   0  0  0  0  0  0  0  0  0  0  0  0
  -14.6377   -6.8123   34.1020 C   0  0  2  0  0  0  0  0  0  0  0  0
  -16.4634   -3.9261   28.1761 O   0  0  0  0  0  0  0  0  0  0  0  0
  -18.9252   -9.6778   35.1887 N   0  0  0  0  0  0  0  0  0  0  0  0
  -17.6105   -9.9583   35.5047 C   0  0  0  0  0  0  0  0  0  0  0  0
  -16.5986   -9.0911   35.1383 N   0  0  0  0  0  0  0  0  0  0  0  0
  -16.8847   -7.9550   34.4590 C   0  0  0  0  0  0  0  0  0  0  0  0
  -18.2026   -7.6519   34.1398 C   0  0  0  0  0  0  0  0  0  0  0  0
  -19.2245   -8.5207   34.5028 C   0  0  0  0  0  0  0  0  0  0  0  0
  -20.4858   -8.2349   34.1886 N   0  0  0  0  0  0  0  0  0  0  0  0
  -18.2083   -6.4748   33.4781 N   0  0  0  0  0  0  0  0  0  0  0  0
  -16.9357   -6.0222   33.3881 C   0  0  0  0  0  0  0  0  0  0  0  0
  -16.1016   -6.9264   33.9910 N   0  0  0  0  0  0  0  0  0  0  0  0
  2  1  1  6  0  0  0
  2  3  1  0  0  0  0
  2  5  1  0  0  0  0
  3  4  1  0  0  0  0
  3 17  1  0  0  0  0
  5  6  1  0  0  0  0
  7  6  1  6  0  0  0
  7  8  1  0  0  0  0
  7  9  1  0  0  0  0
 10  9  1  6  0  0  0
 10 11  1  0  0  0  0
 10 12  1  0  0  0  0
 11 16  1  0  0  0  0
 12 13  1  1  0  0  0
 12 14  1  0  0  0  0
 14 15  1  1  0  0  0
 14 16  1  0  0  0  0
 16 27  1  6  0  0  0
 18 19  2  0  0  0  0
 18 23  1  0  0  0  0
 19 20  1  0  0  0  0
 20 21  2  0  0  0  0
 21 22  1  0  0  0  0
 21 27  1  0  0  0  0
 22 23  2  0  0  0  0
 22 25  1  0  0  0  0
 23 24  1  0  0  0  0
 25 26  2  0  0  0  0
 26 27  1  0  0  0  0
M  END
>  <CHROM.1>
-56.57960106,-174.36161288,67.84961760,-165.97380947,-105.52360867,-64.29404431
-155.12242165,-15.39027972,-6.10463332,32.18925770,1.05174781,-0.29042904
-1.04043363

>  <Name>
ligand

>  <RI>
0

>  <Rbt.Current_Directory>
/home/itssahil/PROJECTS/Mol_Feturizer/New_Systems/rnas/3GX6

>  <Rbt.Executable>
rbdock ($Id: //depot/dev/client3/rdock/2013.1/src/exe/rbdock.cxx#4 $)

>  <Rbt.Library>
libRbt.so (2013.1, Build901 2013/11/27)

>  <Rbt.Parameter_File>
/export/apps/rDock/src/rDock_2013.1_src/data/scripts/dock_solv.prm

>  <Rbt.Receptor>
prm/pocket_docking_7.prm

>  <SCORE>
-24.5783

>  <SCORE.INTER>
-14.8739

>  <SCORE.INTER.CONST>
1

>  <SCORE.INTER.POLAR>
0

>  <SCORE.INTER.ROT>
7

>  <SCORE.INTER.SOLV>
9.72393

>  <SCORE.INTER.VDW>
-21.4239

>  <SCORE.INTER.norm>
-0.550886

>  <SCORE.INTRA>
-9.70443

>  <SCORE.INTRA.DIHEDRAL>
-7.17986

>  <SCORE.INTRA.DIHEDRAL.0>
15.0182

>  <SCORE.INTRA.POLAR>
0

>  <SCORE.INTRA.POLAR.0>
0

>  <SCORE.INTRA.REPUL>
0

>  <SCORE.INTRA.REPUL.0>
0

>  <SCORE.INTRA.SOLV>
-0.847599

>  <SCORE.INTRA.SOLV.lig_0>
-47.9129

>  <SCORE.INTRA.VDW>
-5.6907

>  <SCORE.INTRA.VDW.0>
2.00851

>  <SCORE.INTRA.norm>
-0.359423

>  <SCORE.RESTR>
0

>  <SCORE.RESTR.CAVITY>
0

>  <SCORE.RESTR.norm>
0

>  <SCORE.SYSTEM>
0

>  <SCORE.SYSTEM.CONST>
0

>  <SCORE.SYSTEM.DIHEDRAL>
0

>  <SCORE.SYSTEM.SOLV>
0

>  <SCORE.SYSTEM.norm>
0

>  <SCORE.heavy>
27

>  <SCORE.norm>
-0.910309

>  <RMSD>
5.007

$$$$
ligand
 OpenBabel11021811483D
libRbt.so/2013.1/901 2013/11/27
 27 29  0  0  0  0  0  0  0  0999 V2000
  -11.6865  -10.2075   27.0715 N   0  0  0  0  0  0  0  0  0  0  0  0
  -11.6328   -8.7481   27.0691 C   0  0  2  0  0  0  0  0  0  0  0  0
  -10.4004   -8.2225   27.8005 C   0  0  0  0  0  0  0  0  0  0  0  0
   -9.8862   -7.1458   27.4895 O   0  0  0  0  0  0  0  0  0  0  0  0
  -12.9155   -8.1551   27.6445 C   0  0  0  0  0  0  0  0  0  0  0  0
  -13.0517   -6.6605   27.3980 C   0  0  0  0  0  0  0  0  0  0  0  0
  -14.1251   -5.8175   28.5869 S   0  0  2  0  0  0  0  0  0  0  0  0
  -14.2470   -4.1835   27.8177 C   0  0  0  0  0  0  0  0  0  0  0  0
  -12.9564   -5.4893   29.9341 C   0  0  0  0  0  0  0  0  0  0  0  0
  -13.5444   -4.4412   30.8679 C   0  0  1  0  0  0  0  0  0  0  0  0
  -14.8605   -4.8234   31.1897 O   0  0  0  0  0  0  0  0  0  0  0  0
  -12.8520   -4.2926   32.2097 C   0  0  1  0  0  0  0  0  0  0  0  0
  -11.9182   -3.2363   32.1806 O   0  0  0  0  0  0  0  0  0  0  0  0
  -13.9928   -3.9524   33.1472 C   0  0  1  0  0  0  0  0  0  0  0  0
  -13.9163   -2.5841   33.4628 O   0  0  0  0  0  0  0  0  0  0  0  0
  -15.2843   -4.2274   32.3889 C   0  0  2  0  0  0  0  0  0  0  0  0
   -9.8916   -8.8699   28.7157 O   0  0  0  0  0  0  0  0  0  0  0  0
  -15.5714   -9.1102   34.3514 N   0  0  0  0  0  0  0  0  0  0  0  0
  -14.5382   -8.5395   33.6345 C   0  0  0  0  0  0  0  0  0  0  0  0
  -14.6284   -7.2345   33.1884 N   0  0  0  0  0  0  0  0  0  0  0  0
  -15.7362   -6.4993   33.4456 C   0  0  0  0  0  0  0  0  0  0  0  0
  -16.7823   -7.0538   34.1728 C   0  0  0  0  0  0  0  0  0  0  0  0
  -16.6993   -8.3662   34.6221 C   0  0  0  0  0  0  0  0  0  0  0  0
  -17.7054   -8.9003   35.3103 N   0  0  0  0  0  0  0  0  0  0  0  0
  -17.7469   -6.1163   34.2916 N   0  0  0  0  0  0  0  0  0  0  0  0
  -17.3299   -4.9852   33.6758 C   0  0  0  0  0  0  0  0  0  0  0  0
  -16.0855   -5.2037   33.1461 N   0  0  0  0  0  0  0  0  0  0  0  0
  2  1  1  1  0  0  0
  2  3  1  0  0  0  0
  2  5  1  0  0  0  0
  3  4  1  0  0  0  0
  3 17  1  0  0  0  0
  5  6  1  0  0  0  0
  7  6  1  6  0  0  0
  7  8  1  0  0  0  0
  7  9  1  0  0  0  0
 10  9  1  6  0  0  0
 10 11  1  0  0  0  0
 10 12  1  0  0  0  0
 11 16  1  0  0  0  0
 12 13  1  6  0  0  0
 12 14  1  0  0  0  0
 14 15  1  6  0  0  0
 14 16  1  0  0  0  0
 16 27  1  1  0  0  0
 18 19  2  0  0  0  0
 18 23  1  0  0  0  0
 19 20  1  0  0  0  0
 20 21  2  0  0  0  0
 21 22  1  0  0  0  0
 21 27  1  0  0  0  0
 22 23  2  0  0  0  0
 22 25  1  0  0  0  0
 23 24  1  0  0  0  0
 25 26  2  0  0  0  0
 26 27  1  0  0  0  0
M  END
>  <CHROM.1>
151.12061224,-167.57543057,-155.97721219,-171.13721381,163.88537032,49.12189636
50.43362584,-13.99740393,-6.33867433,31.09017145,0.26332729,-0.92350463,-3.02591722

>  <Name>
ligand

>  <RI>
0

>  <Rbt.Current_Directory>
/home/itssahil/PROJECTS/Mol_Feturizer/New_Systems/rnas/3GX6

>  <Rbt.Executable>
rbdock ($Id: //depot/dev/client3/rdock/2013.1/src/exe/rbdock.cxx#4 $)

>  <Rbt.Library>
libRbt.so (2013.1, Build901 2013/11/27)

>  <Rbt.Parameter_File>
/export/apps/rDock/src/rDock_2013.1_src/data/scripts/dock_solv.prm

>  <Rbt.Receptor>
prm/pocket_docking_6.prm

>  <SCORE>
-21.7018

>  <SCORE.INTER>
-12.172

>  <SCORE.INTER.CONST>
1

>  <SCORE.INTER.POLAR>
0

>  <SCORE.INTER.ROT>
7

>  <SCORE.INTER.SOLV>
13.7999

>  <SCORE.INTER.VDW>
-20.9813

>  <SCORE.INTER.norm>
-0.450816

>  <SCORE.INTRA>
-9.54357

>  <SCORE.INTRA.DIHEDRAL>
-7.96548

>  <SCORE.INTRA.DIHEDRAL.0>
15.0182

>  <SCORE.INTRA.POLAR>
0

>  <SCORE.INTRA.POLAR.0>
0

>  <SCORE.INTRA.REPUL>
0

>  <SCORE.INTRA.REPUL.0>
0

>  <SCORE.INTRA.SOLV>
-1.71966

>  <SCORE.INTRA.SOLV.lig_0>
-47.9129

>  <SCORE.INTRA.VDW>
-4.701

>  <SCORE.INTRA.VDW.0>
2.00851

>  <SCORE.INTRA.norm>
-0.353466

>  <SCORE.RESTR>
0.0137958

>  <SCORE.RESTR.CAVITY>
0.0137958

>  <SCORE.RESTR.norm>
0.000510956

>  <SCORE.SYSTEM>
0

>  <SCORE.SYSTEM.CONST>
0

>  <SCORE.SYSTEM.DIHEDRAL>
0

>  <SCORE.SYSTEM.SOLV>
0

>  <SCORE.SYSTEM.norm>
0

>  <SCORE.heavy>
27

>  <SCORE.norm>
-0.803771

>  <RMSD>
5.011

$$$$
ligand
 OpenBabel11021811483D
libRbt.so/2013.1/901 2013/11/27
 27 29  0  0  0  0  0  0  0  0999 V2000
  -13.3088   -9.2977   27.0403 N   0  0  0  0  0  0  0  0  0  0  0  0
  -14.3932   -8.5020   26.4712 C   0  0  2  0  0  0  0  0  0  0  0  0
  -15.1972   -9.2900   25.4404 C   0  0  0  0  0  0  0  0  0  0  0  0
  -14.6548  -10.1239   24.7118 O   0  0  0  0  0  0  0  0  0  0  0  0
  -13.8614   -7.1985   25.8830 C   0  0  0  0  0  0  0  0  0  0  0  0
  -13.2193   -6.2881   26.9183 C   0  0  0  0  0  0  0  0  0  0  0  0
  -14.3796   -5.6513   28.1531 S   0  0  2  0  0  0  0  0  0  0  0  0
  -15.1927   -4.3468   27.1972 C   0  0  0  0  0  0  0  0  0  0  0  0
  -13.2660   -4.6797   29.2039 C   0  0  0  0  0  0  0  0  0  0  0  0
  -14.0807   -3.9460   30.2594 C   0  0  1  0  0  0  0  0  0  0  0  0
  -14.9098   -4.8808   30.9077 O   0  0  0  0  0  0  0  0  0  0  0  0
  -13.2822   -3.3044   31.3787 C   0  0  1  0  0  0  0  0  0  0  0  0
  -13.0488   -1.9393   31.1128 O   0  0  0  0  0  0  0  0  0  0  0  0
  -14.1960   -3.4516   32.5784 C   0  0  1  0  0  0  0  0  0  0  0  0
  -14.7579   -2.1950   32.8664 O   0  0  0  0  0  0  0  0  0  0  0  0
  -15.2991   -4.4213   32.1766 C   0  0  2  0  0  0  0  0  0  0  0  0
  -16.4073   -9.1026   25.3134 O   0  0  0  0  0  0  0  0  0  0  0  0
  -12.4154   -7.9540   34.8185 N   0  0  0  0  0  0  0  0  0  0  0  0
  -11.9749   -6.9619   33.9650 C   0  0  0  0  0  0  0  0  0  0  0  0
  -12.8754   -6.1149   33.3469 N   0  0  0  0  0  0  0  0  0  0  0  0
  -14.2044   -6.2512   33.5679 C   0  0  0  0  0  0  0  0  0  0  0  0
  -14.6656   -7.2383   34.4303 C   0  0  0  0  0  0  0  0  0  0  0  0
  -13.7660   -8.0949   35.0529 C   0  0  0  0  0  0  0  0  0  0  0  0
  -14.2086   -9.0464   35.8715 N   0  0  0  0  0  0  0  0  0  0  0  0
  -16.0124   -7.1512   34.4771 N   0  0  0  0  0  0  0  0  0  0  0  0
  -16.4082   -6.1282   33.6837 C   0  0  0  0  0  0  0  0  0  0  0  0
  -15.3012   -5.5584   33.1123 N   0  0  0  0  0  0  0  0  0  0  0  0
  2  1  1  6  0  0  0
  2  3  1  0  0  0  0
  2  5  1  0  0  0  0
  3  4  1  0  0  0  0
  3 17  1  0  0  0  0
  5  6  1  0  0  0  0
  7  6  1  6  0  0  0
  7  8  1  0  0  0  0
  7  9  1  0  0  0  0
 10  9  1  6  0  0  0
 10 11  1  0  0  0  0
 10 12  1  0  0  0  0
 11 16  1  0  0  0  0
 12 13  1  6  0  0  0
 12 14  1  0  0  0  0
 14 15  1  6  0  0  0
 14 16  1  0  0  0  0
 16 27  1  1  0  0  0
 18 19  2  0  0  0  0
 18 23  1  0  0  0  0
 19 20  1  0  0  0  0
 20 21  2  0  0  0  0
 21 22  1  0  0  0  0
 21 27  1  0  0  0  0
 22 23  2  0  0  0  0
 22 25  1  0  0  0  0
 23 24  1  0  0  0  0
 25 26  2  0  0  0  0
 26 27  1  0  0  0  0
M  END
>  <CHROM.1>
-34.15189518,-62.65815688,-65.66771052,-77.74152309,175.07570864,51.70759467
68.40386123,-14.28685964,-6.20137791,30.50646224,2.62252817,-1.50563598,-0.78561397

>  <Name>
ligand

>  <RI>
0

>  <Rbt.Current_Directory>
/home/itssahil/PROJECTS/Mol_Feturizer/New_Systems/rnas/3GX6

>  <Rbt.Executable>
rbdock ($Id: //depot/dev/client3/rdock/2013.1/src/exe/rbdock.cxx#4 $)

>  <Rbt.Library>
libRbt.so (2013.1, Build901 2013/11/27)

>  <Rbt.Parameter_File>
/export/apps/rDock/src/rDock_2013.1_src/data/scripts/dock_solv.prm

>  <Rbt.Receptor>
prm/pocket_docking_6.prm

>  <SCORE>
-22.248

>  <SCORE.INTER>
-11.8131

>  <SCORE.INTER.CONST>
1

>  <SCORE.INTER.POLAR>
0

>  <SCORE.INTER.ROT>
7

>  <SCORE.INTER.SOLV>
13.242

>  <SCORE.INTER.VDW>
-20.5561

>  <SCORE.INTER.norm>
-0.437522

>  <SCORE.INTRA>
-10.4349

>  <SCORE.INTRA.DIHEDRAL>
-11.1484

>  <SCORE.INTRA.DIHEDRAL.0>
15.0182

>  <SCORE.INTRA.POLAR>
0

>  <SCORE.INTRA.POLAR.0>
0

>  <SCORE.INTRA.REPUL>
0

>  <SCORE.INTRA.REPUL.0>
0

>  <SCORE.INTRA.SOLV>
-0.583128

>  <SCORE.INTRA.SOLV.lig_0>
-47.9129

>  <SCORE.INTRA.VDW>
-4.56918

>  <SCORE.INTRA.VDW.0>
2.00851

>  <SCORE.INTRA.norm>
-0.386479

>  <SCORE.RESTR>
0

>  <SCORE.RESTR.CAVITY>
0

>  <SCORE.RESTR.norm>
0

>  <SCORE.SYSTEM>
0

>  <SCORE.SYSTEM.CONST>
0

>  <SCORE.SYSTEM.DIHEDRAL>
0

>  <SCORE.SYSTEM.SOLV>
0

>  <SCORE.SYSTEM.norm>
0

>  <SCORE.heavy>
27

>  <SCORE.norm>
-0.824001

>  <RMSD>
5.029

$$$$
ligand
 OpenBabel11021811483D
libRbt.so/2013.1/901 2013/11/27
 27 29  0  0  0  0  0  0  0  0999 V2000
  -16.2304   -4.4235   29.4222 N   0  0  0  0  0  0  0  0  0  0  0  0
  -15.0641   -4.2916   28.5531 C   0  0  2  0  0  0  0  0  0  0  0  0
  -15.1708   -5.1824   27.3181 C   0  0  0  0  0  0  0  0  0  0  0  0
  -14.8908   -4.7528   26.1968 O   0  0  0  0  0  0  0  0  0  0  0  0
  -13.7763   -4.5635   29.3248 C   0  0  0  0  0  0  0  0  0  0  0  0
  -13.4064   -3.4490   30.2913 C   0  0  0  0  0  0  0  0  0  0  0  0
  -14.4711   -3.3643   31.7527 S   0  0  2  0  0  0  0  0  0  0  0  0
  -14.6969   -1.5736   31.8907 C   0  0  0  0  0  0  0  0  0  0  0  0
  -13.2682   -3.6732   33.0740 C   0  0  0  0  0  0  0  0  0  0  0  0
  -13.3342   -5.1373   33.4842 C   0  0  1  0  0  0  0  0  0  0  0  0
  -14.5887   -5.3749   34.0769 O   0  0  0  0  0  0  0  0  0  0  0  0
  -13.2518   -6.1426   32.3508 C   0  0  1  0  0  0  0  0  0  0  0  0
  -11.9315   -6.6105   32.1873 O   0  0  0  0  0  0  0  0  0  0  0  0
  -14.1472   -7.2686   32.8267 C   0  0  1  0  0  0  0  0  0  0  0  0
  -13.3343   -8.3404   33.2368 O   0  0  0  0  0  0  0  0  0  0  0  0
  -14.9276   -6.7369   34.0213 C   0  0  2  0  0  0  0  0  0  0  0  0
  -15.5454   -6.3508   27.4190 O   0  0  0  0  0  0  0  0  0  0  0  0
  -19.3636   -9.4561   34.8596 N   0  0  0  0  0  0  0  0  0  0  0  0
  -18.1023   -9.7077   35.3623 C   0  0  0  0  0  0  0  0  0  0  0  0
  -17.0387   -8.8875   35.0363 N   0  0  0  0  0  0  0  0  0  0  0  0
  -17.2204   -7.8270   34.2140 C   0  0  0  0  0  0  0  0  0  0  0  0
  -18.4842   -7.5532   33.7055 C   0  0  0  0  0  0  0  0  0  0  0  0
  -19.5573   -8.3753   34.0270 C   0  0  0  0  0  0  0  0  0  0  0  0
  -20.7658   -8.1185   33.5321 N   0  0  0  0  0  0  0  0  0  0  0  0
  -18.3892   -6.4512   32.9308 N   0  0  0  0  0  0  0  0  0  0  0  0
  -17.1075   -6.0157   32.9524 C   0  0  0  0  0  0  0  0  0  0  0  0
  -16.3687   -6.8558   33.7430 N   0  0  0  0  0  0  0  0  0  0  0  0
  2  1  1  1  0  0  0
  2  3  1  0  0  0  0
  2  5  1  0  0  0  0
  3  4  1  0  0  0  0
  3 17  1  0  0  0  0
  5  6  1  0  0  0  0
  7  6  1  6  0  0  0
  7  8  1  0  0  0  0
  7  9  1  0  0  0  0
 10  9  1  6  0  0  0
 10 11  1  0  0  0  0
 10 12  1  0  0  0  0
 11 16  1  0  0  0  0
 12 13  1  1  0  0  0
 12 14  1  0  0  0  0
 14 15  1  1  0  0  0
 14 16  1  0  0  0  0
 16 27  1  6  0  0  0
 18 19  2  0  0  0  0
 18 23  1  0  0  0  0
 19 20  1  0  0  0  0
 20 21  2  0  0  0  0
 21 22  1  0  0  0  0
 21 27  1  0  0  0  0
 22 23  2  0  0  0  0
 22 25  1  0  0  0  0
 23 24  1  0  0  0  0
 25 26  2  0  0  0  0
 26 27  1  0  0  0  0
M  END
>  <CHROM.1>
134.95616741,-72.41153551,72.21063203,-138.12840544,-98.38436226,-66.30620226
-145.91116036,-15.57859078,-5.99110115,32.05728676,0.93273370,-0.49784055
-1.21253970

>  <Name>
ligand

>  <RI>
0

>  <Rbt.Current_Directory>
/home/itssahil/PROJECTS/Mol_Feturizer/New_Systems/rnas/3GX6

>  <Rbt.Executable>
rbdock ($Id: //depot/dev/client3/rdock/2013.1/src/exe/rbdock.cxx#4 $)

>  <Rbt.Library>
libRbt.so (2013.1, Build901 2013/11/27)

>  <Rbt.Parameter_File>
/export/apps/rDock/src/rDock_2013.1_src/data/scripts/dock_solv.prm

>  <Rbt.Receptor>
prm/pocket_docking_7.prm

>  <SCORE>
-22.2758

>  <SCORE.INTER>
-14.8249

>  <SCORE.INTER.CONST>
1

>  <SCORE.INTER.POLAR>
0

>  <SCORE.INTER.ROT>
7

>  <SCORE.INTER.SOLV>
9.92725

>  <SCORE.INTER.VDW>
-21.459

>  <SCORE.INTER.norm>
-0.549072

>  <SCORE.INTRA>
-7.45083

>  <SCORE.INTRA.DIHEDRAL>
-4.30301

>  <SCORE.INTRA.DIHEDRAL.0>
15.0182

>  <SCORE.INTRA.POLAR>
0

>  <SCORE.INTRA.POLAR.0>
0

>  <SCORE.INTRA.REPUL>
0

>  <SCORE.INTRA.REPUL.0>
0

>  <SCORE.INTRA.SOLV>
0.839269

>  <SCORE.INTRA.SOLV.lig_0>
-47.9129

>  <SCORE.INTRA.VDW>
-5.71895

>  <SCORE.INTRA.VDW.0>
2.00851

>  <SCORE.INTRA.norm>
-0.275956

>  <SCORE.RESTR>
0

>  <SCORE.RESTR.CAVITY>
0

>  <SCORE.RESTR.norm>
0

>  <SCORE.SYSTEM>
0

>  <SCORE.SYSTEM.CONST>
0

>  <SCORE.SYSTEM.DIHEDRAL>
0

>  <SCORE.SYSTEM.SOLV>
0

>  <SCORE.SYSTEM.norm>
0

>  <SCORE.heavy>
27

>  <SCORE.norm>
-0.825028

>  <RMSD>
5.033

$$$$
ligand
 OpenBabel11021811483D
libRbt.so/2013.1/901 2013/11/27
 27 29  0  0  0  0  0  0  0  0999 V2000
  -17.7815   -8.0561   30.6174 N   0  0  0  0  0  0  0  0  0  0  0  0
  -16.8332   -7.7957   29.5377 C   0  0  2  0  0  0  0  0  0  0  0  0
  -16.7963   -8.9371   28.5249 C   0  0  0  0  0  0  0  0  0  0  0  0
  -16.6734   -8.7143   27.3184 O   0  0  0  0  0  0  0  0  0  0  0  0
  -15.4432   -7.5003   30.0931 C   0  0  0  0  0  0  0  0  0  0  0  0
  -14.4247   -7.1574   29.0168 C   0  0  0  0  0  0  0  0  0  0  0  0
  -14.6969   -5.5461   28.2384 S   0  0  2  0  0  0  0  0  0  0  0  0
  -13.8127   -5.7826   26.6768 C   0  0  0  0  0  0  0  0  0  0  0  0
  -13.5223   -4.5158   29.1588 C   0  0  0  0  0  0  0  0  0  0  0  0
  -14.2760   -3.6942   30.1948 C   0  0  1  0  0  0  0  0  0  0  0  0
  -15.2811   -4.5041   30.7564 O   0  0  0  0  0  0  0  0  0  0  0  0
  -13.4583   -3.2228   31.3827 C   0  0  1  0  0  0  0  0  0  0  0  0
  -12.9967   -1.9050   31.1857 O   0  0  0  0  0  0  0  0  0  0  0  0
  -14.4574   -3.2590   32.5213 C   0  0  1  0  0  0  0  0  0  0  0  0
  -14.8315   -1.9382   32.8271 O   0  0  0  0  0  0  0  0  0  0  0  0
  -15.6720   -4.0275   32.0186 C   0  0  2  0  0  0  0  0  0  0  0  0
  -16.8942  -10.1070   28.8957 O   0  0  0  0  0  0  0  0  0  0  0  0
  -13.5362   -7.9498   34.8165 N   0  0  0  0  0  0  0  0  0  0  0  0
  -12.8900   -6.9991   34.0513 C   0  0  0  0  0  0  0  0  0  0  0  0
  -13.6101   -6.0334   33.3737 N   0  0  0  0  0  0  0  0  0  0  0  0
  -14.9620   -6.0107   33.4486 C   0  0  0  0  0  0  0  0  0  0  0  0
  -15.6290   -6.9540   34.2205 C   0  0  0  0  0  0  0  0  0  0  0  0
  -14.9115   -7.9293   34.9022 C   0  0  0  0  0  0  0  0  0  0  0  0
  -15.5511   -8.8385   35.6339 N   0  0  0  0  0  0  0  0  0  0  0  0
  -16.9527   -6.7033   34.1287 N   0  0  0  0  0  0  0  0  0  0  0  0
  -17.1347   -5.6207   33.3365 C   0  0  0  0  0  0  0  0  0  0  0  0
  -15.9119   -5.1777   32.9061 N   0  0  0  0  0  0  0  0  0  0  0  0
  2  1  1  1  0  0  0
  2  3  1  0  0  0  0
  2  5  1  0  0  0  0
  3  4  1  0  0  0  0
  3 17  1  0  0  0  0
  5  6  1  0  0  0  0
  7  6  1  1  0  0  0
  7  8  1  0  0  0  0
  7  9  1  0  0  0  0
 10  9  1  6  0  0  0
 10 11  1  0  0  0  0
 10 12  1  0  0  0  0
 11 16  1  0  0  0  0
 12 13  1  6  0  0  0
 12 14  1  0  0  0  0
 14 15  1  6  0  0  0
 14 16  1  0  0  0  0
 16 27  1  1  0  0  0
 18 19  2  0  0  0  0
 18 23  1  0  0  0  0
 19 20  1  0  0  0  0
 20 21  2  0  0  0  0
 21 22  1  0  0  0  0
 21 27  1  0  0  0  0
 22 23  2  0  0  0  0
 22 25  1  0  0  0  0
 23 24  1  0  0  0  0
 25 26  2  0  0  0  0
 26 27  1  0  0  0  0
M  END
>  <CHROM.1>
142.19361451,-177.33717377,70.42471891,-158.15564366,-102.42707454,39.49461051
71.87054030,-15.12161057,-6.05464031,31.23331478,2.00282820,-1.16388555,-1.50588038

>  <Name>
ligand

>  <RI>
0

>  <Rbt.Current_Directory>
/home/itssahil/PROJECTS/Mol_Feturizer/New_Systems/rnas/3GX6

>  <Rbt.Executable>
rbdock ($Id: //depot/dev/client3/rdock/2013.1/src/exe/rbdock.cxx#4 $)

>  <Rbt.Library>
libRbt.so (2013.1, Build901 2013/11/27)

>  <Rbt.Parameter_File>
/export/apps/rDock/src/rDock_2013.1_src/data/scripts/dock_solv.prm

>  <Rbt.Receptor>
prm/pocket_docking_4.prm

>  <SCORE>
-18.022

>  <SCORE.INTER>
-8.7116

>  <SCORE.INTER.CONST>
1

>  <SCORE.INTER.POLAR>
0

>  <SCORE.INTER.ROT>
7

>  <SCORE.INTER.SOLV>
12.105

>  <SCORE.INTER.VDW>
-18.1094

>  <SCORE.INTER.norm>
-0.322652

>  <SCORE.INTRA>
-9.31039

>  <SCORE.INTRA.DIHEDRAL>
-5.25649

>  <SCORE.INTRA.DIHEDRAL.0>
15.0182

>  <SCORE.INTRA.POLAR>
0

>  <SCORE.INTRA.POLAR.0>
0

>  <SCORE.INTRA.REPUL>
0

>  <SCORE.INTRA.REPUL.0>
0

>  <SCORE.INTRA.SOLV>
-1.20293

>  <SCORE.INTRA.SOLV.lig_0>
-47.9129

>  <SCORE.INTRA.VDW>
-6.08068

>  <SCORE.INTRA.VDW.0>
2.00851

>  <SCORE.INTRA.norm>
-0.344829

>  <SCORE.RESTR>
0

>  <SCORE.RESTR.CAVITY>
0

>  <SCORE.RESTR.norm>
0

>  <SCORE.SYSTEM>
0

>  <SCORE.SYSTEM.CONST>
0

>  <SCORE.SYSTEM.DIHEDRAL>
0

>  <SCORE.SYSTEM.SOLV>
0

>  <SCORE.SYSTEM.norm>
0

>  <SCORE.heavy>
27

>  <SCORE.norm>
-0.667481

>  <RMSD>
5.038

$$$$
ligand
 OpenBabel11021811483D
libRbt.so/2013.1/901 2013/11/27
 27 29  0  0  0  0  0  0  0  0999 V2000
  -12.9863   -8.4163   26.6865 N   0  0  0  0  0  0  0  0  0  0  0  0
  -12.1779   -9.5719   27.0658 C   0  0  2  0  0  0  0  0  0  0  0  0
  -12.3422  -10.7287   26.0835 C   0  0  0  0  0  0  0  0  0  0  0  0
  -13.4574  -11.0727   25.6855 O   0  0  0  0  0  0  0  0  0  0  0  0
  -12.4878  -10.0079   28.4947 C   0  0  0  0  0  0  0  0  0  0  0  0
  -11.9168   -9.0708   29.5477 C   0  0  0  0  0  0  0  0  0  0  0  0
  -12.7605   -7.4721   29.6395 S   0  0  2  0  0  0  0  0  0  0  0  0
  -11.6537   -6.4585   28.6274 C   0  0  0  0  0  0  0  0  0  0  0  0
  -12.3034   -6.9364   31.3106 C   0  0  0  0  0  0  0  0  0  0  0  0
  -13.1230   -5.7113   31.6894 C   0  0  1  0  0  0  0  0  0  0  0  0
  -14.4831   -6.0743   31.6999 O   0  0  0  0  0  0  0  0  0  0  0  0
  -12.8674   -5.1516   33.0763 C   0  0  1  0  0  0  0  0  0  0  0  0
  -11.9449   -4.0861   33.0276 O   0  0  0  0  0  0  0  0  0  0  0  0
  -14.2308   -4.6400   33.4951 C   0  0  1  0  0  0  0  0  0  0  0  0
  -14.2224   -3.2359   33.4171 O   0  0  0  0  0  0  0  0  0  0  0  0
  -15.2371   -5.1982   32.4979 C   0  0  2  0  0  0  0  0  0  0  0  0
  -11.3594  -11.3459   25.6726 O   0  0  0  0  0  0  0  0  0  0  0  0
  -16.2880   -9.5457   35.2852 N   0  0  0  0  0  0  0  0  0  0  0  0
  -15.0836   -9.1594   34.7312 C   0  0  0  0  0  0  0  0  0  0  0  0
  -14.9826   -7.9777   34.0215 N   0  0  0  0  0  0  0  0  0  0  0  0
  -16.0679   -7.1847   33.8565 C   0  0  0  0  0  0  0  0  0  0  0  0
  -17.2862   -7.5529   34.4140 C   0  0  0  0  0  0  0  0  0  0  0  0
  -17.3953   -8.7409   35.1265 C   0  0  0  0  0  0  0  0  0  0  0  0
  -18.5645   -9.0981   35.6523 N   0  0  0  0  0  0  0  0  0  0  0  0
  -18.1874   -6.5943   34.1101 N   0  0  0  0  0  0  0  0  0  0  0  0
  -17.5669   -5.6278   33.3936 C   0  0  0  0  0  0  0  0  0  0  0  0
  -16.2526   -5.9764   33.2270 N   0  0  0  0  0  0  0  0  0  0  0  0
  2  1  1  6  0  0  0
  2  3  1  0  0  0  0
  2  5  1  0  0  0  0
  3  4  1  0  0  0  0
  3 17  1  0  0  0  0
  5  6  1  0  0  0  0
  7  6  1  1  0  0  0
  7  8  1  0  0  0  0
  7  9  1  0  0  0  0
 10  9  1  1  0  0  0
 10 11  1  0  0  0  0
 10 12  1  0  0  0  0
 11 16  1  0  0  0  0
 12 13  1  6  0  0  0
 12 14  1  0  0  0  0
 14 15  1  6  0  0  0
 14 16  1  0  0  0  0
 16 27  1  1  0  0  0
 18 19  2  0  0  0  0
 18 23  1  0  0  0  0
 19 20  1  0  0  0  0
 20 21  2  0  0  0  0
 21 22  1  0  0  0  0
 21 27  1  0  0  0  0
 22 23  2  0  0  0  0
 22 25  1  0  0  0  0
 23 24  1  0  0  0  0
 25 26  2  0  0  0  0
 26 27  1  0  0  0  0
M  END
>  <CHROM.1>
-45.55582680,-73.66199537,71.21541592,-97.29105618,-169.80615662,62.24053307
43.20896569,-14.19017864,-7.49031193,31.35761536,-0.86546051,0.79236467,0.63842719

>  <Name>
ligand

>  <RI>
0

>  <Rbt.Current_Directory>
/home/itssahil/PROJECTS/Mol_Feturizer/New_Systems/rnas/3GX6

>  <Rbt.Executable>
rbdock ($Id: //depot/dev/client3/rdock/2013.1/src/exe/rbdock.cxx#4 $)

>  <Rbt.Library>
libRbt.so (2013.1, Build901 2013/11/27)

>  <Rbt.Parameter_File>
/export/apps/rDock/src/rDock_2013.1_src/data/scripts/dock_solv.prm

>  <Rbt.Receptor>
prm/pocket_docking_6.prm

>  <SCORE>
-22.5474

>  <SCORE.INTER>
-14.1314

>  <SCORE.INTER.CONST>
1

>  <SCORE.INTER.POLAR>
0

>  <SCORE.INTER.ROT>
7

>  <SCORE.INTER.SOLV>
10.3799

>  <SCORE.INTER.VDW>
-21.1476

>  <SCORE.INTER.norm>
-0.523384

>  <SCORE.INTRA>
-8.416

>  <SCORE.INTRA.DIHEDRAL>
-7.56267

>  <SCORE.INTRA.DIHEDRAL.0>
15.0182

>  <SCORE.INTRA.POLAR>
0

>  <SCORE.INTRA.POLAR.0>
0

>  <SCORE.INTRA.REPUL>
0

>  <SCORE.INTRA.REPUL.0>
0

>  <SCORE.INTRA.SOLV>
1.15015

>  <SCORE.INTRA.SOLV.lig_0>
-47.9129

>  <SCORE.INTRA.VDW>
-5.20974

>  <SCORE.INTRA.VDW.0>
2.00851

>  <SCORE.INTRA.norm>
-0.311704

>  <SCORE.RESTR>
0

>  <SCORE.RESTR.CAVITY>
0

>  <SCORE.RESTR.norm>
0

>  <SCORE.SYSTEM>
0

>  <SCORE.SYSTEM.CONST>
0

>  <SCORE.SYSTEM.DIHEDRAL>
0

>  <SCORE.SYSTEM.SOLV>
0

>  <SCORE.SYSTEM.norm>
0

>  <SCORE.heavy>
27

>  <SCORE.norm>
-0.835088

>  <RMSD>
5.049

$$$$
ligand
 OpenBabel11021811483D
libRbt.so/2013.1/901 2013/11/27
 27 29  0  0  0  0  0  0  0  0999 V2000
  -10.9566   -8.9314   29.1125 N   0  0  0  0  0  0  0  0  0  0  0  0
  -11.6016   -7.6246   29.0164 C   0  0  2  0  0  0  0  0  0  0  0  0
  -12.5965   -7.3961   30.1512 C   0  0  0  0  0  0  0  0  0  0  0  0
  -12.3668   -6.5777   31.0445 O   0  0  0  0  0  0  0  0  0  0  0  0
  -12.2621   -7.4423   27.6531 C   0  0  0  0  0  0  0  0  0  0  0  0
  -12.7001   -6.0112   27.3824 C   0  0  0  0  0  0  0  0  0  0  0  0
  -14.1901   -5.5188   28.2845 S   0  0  2  0  0  0  0  0  0  0  0  0
  -14.9919   -4.4702   27.0460 C   0  0  0  0  0  0  0  0  0  0  0  0
  -13.5122   -4.2754   29.4171 C   0  0  0  0  0  0  0  0  0  0  0  0
  -14.6492   -3.6288   30.1953 C   0  0  1  0  0  0  0  0  0  0  0  0
  -15.4949   -4.6480   30.6725 O   0  0  0  0  0  0  0  0  0  0  0  0
  -14.2420   -2.8589   31.4376 C   0  0  1  0  0  0  0  0  0  0  0  0
  -14.1167   -1.4822   31.1588 O   0  0  0  0  0  0  0  0  0  0  0  0
  -15.4033   -3.0945   32.3819 C   0  0  1  0  0  0  0  0  0  0  0  0
  -16.1680   -1.9161   32.4494 O   0  0  0  0  0  0  0  0  0  0  0  0
  -16.2437   -4.2114   31.7778 C   0  0  2  0  0  0  0  0  0  0  0  0
  -13.6498   -8.0317   30.1984 O   0  0  0  0  0  0  0  0  0  0  0  0
  -13.6517   -7.5924   34.8804 N   0  0  0  0  0  0  0  0  0  0  0  0
  -13.1252   -6.6229   34.0498 C   0  0  0  0  0  0  0  0  0  0  0  0
  -13.9559   -5.8158   33.2958 N   0  0  0  0  0  0  0  0  0  0  0  0
  -15.2999   -5.9695   33.3592 C   0  0  0  0  0  0  0  0  0  0  0  0
  -15.8481   -6.9339   34.1958 C   0  0  0  0  0  0  0  0  0  0  0  0
  -15.0186   -7.7506   34.9546 C   0  0  0  0  0  0  0  0  0  0  0  0
  -15.5436   -8.6807   35.7487 N   0  0  0  0  0  0  0  0  0  0  0  0
  -17.1917   -6.8710   34.0759 N   0  0  0  0  0  0  0  0  0  0  0  0
  -17.5030   -5.8846   33.2025 C   0  0  0  0  0  0  0  0  0  0  0  0
  -16.3430   -5.3144   32.7484 N   0  0  0  0  0  0  0  0  0  0  0  0
  2  1  1  6  0  0  0
  2  3  1  0  0  0  0
  2  5  1  0  0  0  0
  3  4  1  0  0  0  0
  3 17  1  0  0  0  0
  5  6  1  0  0  0  0
  7  6  1  6  0  0  0
  7  8  1  0  0  0  0
  7  9  1  0  0  0  0
 10  9  1  1  0  0  0
 10 11  1  0  0  0  0
 10 12  1  0  0  0  0
 11 16  1  0  0  0  0
 12 13  1  6  0  0  0
 12 14  1  0  0  0  0
 14 15  1  6  0  0  0
 14 16  1  0  0  0  0
 16 27  1  1  0  0  0
 18 19  2  0  0  0  0
 18 23  1  0  0  0  0
 19 20  1  0  0  0  0
 20 21  2  0  0  0  0
 21 22  1  0  0  0  0
 21 27  1  0  0  0  0
 22 23  2  0  0  0  0
 22 25  1  0  0  0  0
 23 24  1  0  0  0  0
 25 26  2  0  0  0  0
 26 27  1  0  0  0  0
M  END
>  <CHROM.1>
109.96083903,-168.15076100,-75.05375873,-143.30092051,174.71494104,46.75930023
58.56199984,-14.36868804,-5.70338104,31.25811715,-0.75021901,-0.96905901
2.31362610

>  <Name>
ligand

>  <RI>
0

>  <Rbt.Current_Directory>
/home/itssahil/PROJECTS/Mol_Feturizer/New_Systems/rnas/3GX6

>  <Rbt.Executable>
rbdock ($Id: //depot/dev/client3/rdock/2013.1/src/exe/rbdock.cxx#4 $)

>  <Rbt.Library>
libRbt.so (2013.1, Build901 2013/11/27)

>  <Rbt.Parameter_File>
/export/apps/rDock/src/rDock_2013.1_src/data/scripts/dock_solv.prm

>  <Rbt.Receptor>
prm/pocket_docking_5.prm

>  <SCORE>
-20.904

>  <SCORE.INTER>
-10.6292

>  <SCORE.INTER.CONST>
1

>  <SCORE.INTER.POLAR>
0

>  <SCORE.INTER.ROT>
7

>  <SCORE.INTER.SOLV>
16.4516

>  <SCORE.INTER.VDW>
-20.8366

>  <SCORE.INTER.norm>
-0.393673

>  <SCORE.INTRA>
-10.2748

>  <SCORE.INTRA.DIHEDRAL>
-6.17822

>  <SCORE.INTRA.DIHEDRAL.0>
15.0182

>  <SCORE.INTRA.POLAR>
0

>  <SCORE.INTRA.POLAR.0>
0

>  <SCORE.INTRA.REPUL>
0

>  <SCORE.INTRA.REPUL.0>
0

>  <SCORE.INTRA.SOLV>
-1.59394

>  <SCORE.INTRA.SOLV.lig_0>
-47.9129

>  <SCORE.INTRA.VDW>
-6.38873

>  <SCORE.INTRA.VDW.0>
2.00851

>  <SCORE.INTRA.norm>
-0.380549

>  <SCORE.RESTR>
0

>  <SCORE.RESTR.CAVITY>
0

>  <SCORE.RESTR.norm>
0

>  <SCORE.SYSTEM>
0

>  <SCORE.SYSTEM.CONST>
0

>  <SCORE.SYSTEM.DIHEDRAL>
0

>  <SCORE.SYSTEM.SOLV>
0

>  <SCORE.SYSTEM.norm>
0

>  <SCORE.heavy>
27

>  <SCORE.norm>
-0.774222

>  <RMSD>
5.057

$$$$
ligand
 OpenBabel11021811483D
libRbt.so/2013.1/901 2013/11/27
 27 29  0  0  0  0  0  0  0  0999 V2000
  -14.3712   -7.2956   28.3583 N   0  0  0  0  0  0  0  0  0  0  0  0
  -13.7083   -6.6781   27.2128 C   0  0  2  0  0  0  0  0  0  0  0  0
  -12.2169   -6.4697   27.4623 C   0  0  0  0  0  0  0  0  0  0  0  0
  -11.8160   -5.8770   28.4665 O   0  0  0  0  0  0  0  0  0  0  0  0
  -14.3949   -5.3718   26.8254 C   0  0  0  0  0  0  0  0  0  0  0  0
  -14.3027   -4.3007   27.9011 C   0  0  0  0  0  0  0  0  0  0  0  0
  -15.4347   -4.5587   29.2898 S   0  0  2  0  0  0  0  0  0  0  0  0
  -16.9949   -4.0222   28.5452 C   0  0  0  0  0  0  0  0  0  0  0  0
  -15.0305   -3.1320   30.3337 C   0  0  0  0  0  0  0  0  0  0  0  0
  -14.6282   -3.6182   31.7186 C   0  0  1  0  0  0  0  0  0  0  0  0
  -15.7981   -3.9422   32.4313 O   0  0  0  0  0  0  0  0  0  0  0  0
  -13.7963   -4.8865   31.7550 C   0  0  1  0  0  0  0  0  0  0  0  0
  -12.4216   -4.5851   31.8447 O   0  0  0  0  0  0  0  0  0  0  0  0
  -14.2637   -5.5656   33.0263 C   0  0  1  0  0  0  0  0  0  0  0  0
  -13.2633   -5.4174   34.0035 O   0  0  0  0  0  0  0  0  0  0  0  0
  -15.5247   -4.8402   33.4762 C   0  0  2  0  0  0  0  0  0  0  0  0
  -11.3830   -6.8872   26.6587 O   0  0  0  0  0  0  0  0  0  0  0  0
  -17.0894   -9.5806   35.1659 N   0  0  0  0  0  0  0  0  0  0  0  0
  -15.8457   -8.9959   35.3009 C   0  0  0  0  0  0  0  0  0  0  0  0
  -15.6026   -7.7343   34.7916 N   0  0  0  0  0  0  0  0  0  0  0  0
  -16.5826   -7.0565   34.1481 C   0  0  0  0  0  0  0  0  0  0  0  0
  -17.8427   -7.6253   34.0103 C   0  0  0  0  0  0  0  0  0  0  0  0
  -18.0933   -8.8944   34.5176 C   0  0  0  0  0  0  0  0  0  0  0  0
  -19.2976   -9.4430   34.3770 N   0  0  0  0  0  0  0  0  0  0  0  0
  -18.6234   -6.7465   33.3455 N   0  0  0  0  0  0  0  0  0  0  0  0
  -17.8956   -5.6369   33.0777 C   0  0  0  0  0  0  0  0  0  0  0  0
  -16.6284   -5.8107   33.5682 N   0  0  0  0  0  0  0  0  0  0  0  0
  2  1  1  1  0  0  0
  2  3  1  0  0  0  0
  2  5  1  0  0  0  0
  3  4  1  0  0  0  0
  3 17  1  0  0  0  0
  5  6  1  0  0  0  0
  7  6  1  6  0  0  0
  7  8  1  0  0  0  0
  7  9  1  0  0  0  0
 10  9  1  6  0  0  0
 10 11  1  0  0  0  0
 10 12  1  0  0  0  0
 11 16  1  0  0  0  0
 12 13  1  1  0  0  0
 12 14  1  0  0  0  0
 14 15  1  1  0  0  0
 14 16  1  0  0  0  0
 16 27  1  6  0  0  0
 18 19  2  0  0  0  0
 18 23  1  0  0  0  0
 19 20  1  0  0  0  0
 20 21  2  0  0  0  0
 21 22  1  0  0  0  0
 21 27  1  0  0  0  0
 22 23  2  0  0  0  0
 22 25  1  0  0  0  0
 23 24  1  0  0  0  0
 25 26  2  0  0  0  0
 26 27  1  0  0  0  0
M  END
>  <CHROM.1>
-52.77642777,64.37736161,-76.53289199,-76.64655772,-123.80368241,-78.46147785
158.74302876,-15.21873603,-5.98449884,31.36064571,0.06144910,-1.06004144
-2.72165043

>  <Name>
ligand

>  <RI>
0

>  <Rbt.Current_Directory>
/home/itssahil/PROJECTS/Mol_Feturizer/New_Systems/rnas/3GX6

>  <Rbt.Executable>
rbdock ($Id: //depot/dev/client3/rdock/2013.1/src/exe/rbdock.cxx#4 $)

>  <Rbt.Library>
libRbt.so (2013.1, Build901 2013/11/27)

>  <Rbt.Parameter_File>
/export/apps/rDock/src/rDock_2013.1_src/data/scripts/dock_solv.prm

>  <Rbt.Receptor>
prm/pocket_docking_6.prm

>  <SCORE>
-19.7839

>  <SCORE.INTER>
-13.1984

>  <SCORE.INTER.CONST>
1

>  <SCORE.INTER.POLAR>
0

>  <SCORE.INTER.ROT>
7

>  <SCORE.INTER.SOLV>
8.38512

>  <SCORE.INTER.VDW>
-19.8606

>  <SCORE.INTER.norm>
-0.488828

>  <SCORE.INTRA>
-6.58557

>  <SCORE.INTRA.DIHEDRAL>
-5.18124

>  <SCORE.INTRA.DIHEDRAL.0>
15.0182

>  <SCORE.INTRA.POLAR>
0

>  <SCORE.INTRA.POLAR.0>
0

>  <SCORE.INTRA.REPUL>
0

>  <SCORE.INTRA.REPUL.0>
0

>  <SCORE.INTRA.SOLV>
0.977006

>  <SCORE.INTRA.SOLV.lig_0>
-47.9129

>  <SCORE.INTRA.VDW>
-4.48345

>  <SCORE.INTRA.VDW.0>
2.00851

>  <SCORE.INTRA.norm>
-0.24391

>  <SCORE.RESTR>
0

>  <SCORE.RESTR.CAVITY>
0

>  <SCORE.RESTR.norm>
0

>  <SCORE.SYSTEM>
0

>  <SCORE.SYSTEM.CONST>
0

>  <SCORE.SYSTEM.DIHEDRAL>
0

>  <SCORE.SYSTEM.SOLV>
0

>  <SCORE.SYSTEM.norm>
0

>  <SCORE.heavy>
27

>  <SCORE.norm>
-0.732738

>  <RMSD>
5.060

$$$$
ligand
 OpenBabel11021811483D
libRbt.so/2013.1/901 2013/11/27
 27 29  0  0  0  0  0  0  0  0999 V2000
  -13.3387   -7.0368   27.4230 N   0  0  0  0  0  0  0  0  0  0  0  0
  -14.7173   -6.6810   27.0975 C   0  0  2  0  0  0  0  0  0  0  0  0
  -15.2734   -7.5372   25.9627 C   0  0  0  0  0  0  0  0  0  0  0  0
  -14.6521   -7.6768   24.9068 O   0  0  0  0  0  0  0  0  0  0  0  0
  -14.8354   -5.1933   26.7804 C   0  0  0  0  0  0  0  0  0  0  0  0
  -14.4894   -4.2968   27.9592 C   0  0  0  0  0  0  0  0  0  0  0  0
  -15.5953   -4.4947   29.3784 S   0  0  2  0  0  0  0  0  0  0  0  0
  -17.1254   -3.8047   28.7007 C   0  0  0  0  0  0  0  0  0  0  0  0
  -15.0355   -3.1380   30.4435 C   0  0  0  0  0  0  0  0  0  0  0  0
  -14.6545   -3.6926   31.8086 C   0  0  1  0  0  0  0  0  0  0  0  0
  -15.8371   -4.0072   32.5045 O   0  0  0  0  0  0  0  0  0  0  0  0
  -13.8642   -4.9877   31.7956 C   0  0  1  0  0  0  0  0  0  0  0  0
  -12.4809   -4.7349   31.9011 O   0  0  0  0  0  0  0  0  0  0  0  0
  -14.3583   -5.7022   33.0371 C   0  0  1  0  0  0  0  0  0  0  0  0
  -13.3574   -5.6262   34.0221 O   0  0  0  0  0  0  0  0  0  0  0  0
  -15.5969   -4.9551   33.5128 C   0  0  2  0  0  0  0  0  0  0  0  0
  -16.3606   -8.1028   26.0796 O   0  0  0  0  0  0  0  0  0  0  0  0
  -17.4087   -9.5868   35.2564 N   0  0  0  0  0  0  0  0  0  0  0  0
  -16.1608   -9.0303   35.4563 C   0  0  0  0  0  0  0  0  0  0  0  0
  -15.8474   -7.7953   34.9208 N   0  0  0  0  0  0  0  0  0  0  0  0
  -16.7614   -7.1163   34.1877 C   0  0  0  0  0  0  0  0  0  0  0  0
  -18.0250   -7.6566   33.9832 C   0  0  0  0  0  0  0  0  0  0  0  0
  -18.3459   -8.8990   34.5164 C   0  0  0  0  0  0  0  0  0  0  0  0
  -19.5532   -9.4206   34.3123 N   0  0  0  0  0  0  0  0  0  0  0  0
  -18.7330   -6.7829   33.2355 N   0  0  0  0  0  0  0  0  0  0  0  0
  -17.9571   -5.7035   32.9797 C   0  0  0  0  0  0  0  0  0  0  0  0
  -16.7317   -5.8922   33.5624 N   0  0  0  0  0  0  0  0  0  0  0  0
  2  1  1  6  0  0  0
  2  3  1  0  0  0  0
  2  5  1  0  0  0  0
  3  4  1  0  0  0  0
  3 17  1  0  0  0  0
  5  6  1  0  0  0  0
  7  6  1  6  0  0  0
  7  8  1  0  0  0  0
  7  9  1  0  0  0  0
 10  9  1  6  0  0  0
 10 11  1  0  0  0  0
 10 12  1  0  0  0  0
 11 16  1  0  0  0  0
 12 13  1  1  0  0  0
 12 14  1  0  0  0  0
 14 15  1  1  0  0  0
 14 16  1  0  0  0  0
 16 27  1  6  0  0  0
 18 19  2  0  0  0  0
 18 23  1  0  0  0  0
 19 20  1  0  0  0  0
 20 21  2  0  0  0  0
 21 22  1  0  0  0  0
 21 27  1  0  0  0  0
 22 23  2  0  0  0  0
 22 25  1  0  0  0  0
 23 24  1  0  0  0  0
 25 26  2  0  0  0  0
 26 27  1  0  0  0  0
M  END
>  <CHROM.1>
-50.53427890,-63.31328867,-62.90919739,-68.40503717,-124.69059585,-74.42908608
164.53087823,-15.75467516,-6.15527868,31.14068843,1.08748321,-0.93777661
-1.75789353

>  <Name>
ligand

>  <RI>
0

>  <Rbt.Current_Directory>
/home/itssahil/PROJECTS/Mol_Feturizer/New_Systems/rnas/3GX6

>  <Rbt.Executable>
rbdock ($Id: //depot/dev/client3/rdock/2013.1/src/exe/rbdock.cxx#4 $)

>  <Rbt.Library>
libRbt.so (2013.1, Build901 2013/11/27)

>  <Rbt.Parameter_File>
/export/apps/rDock/src/rDock_2013.1_src/data/scripts/dock_solv.prm

>  <Rbt.Receptor>
prm/pocket_docking_6.prm

>  <SCORE>
-20.2481

>  <SCORE.INTER>
-12.2884

>  <SCORE.INTER.CONST>
1

>  <SCORE.INTER.POLAR>
0

>  <SCORE.INTER.ROT>
7

>  <SCORE.INTER.SOLV>
8.45745

>  <SCORE.INTER.VDW>
-19.2781

>  <SCORE.INTER.norm>
-0.455126

>  <SCORE.INTRA>
-7.95971

>  <SCORE.INTRA.DIHEDRAL>
-6.74497

>  <SCORE.INTRA.DIHEDRAL.0>
15.0182

>  <SCORE.INTRA.POLAR>
0

>  <SCORE.INTRA.POLAR.0>
0

>  <SCORE.INTRA.REPUL>
0

>  <SCORE.INTRA.REPUL.0>
0

>  <SCORE.INTRA.SOLV>
-0.356317

>  <SCORE.INTRA.SOLV.lig_0>
-47.9129

>  <SCORE.INTRA.VDW>
-4.40906

>  <SCORE.INTRA.VDW.0>
2.00851

>  <SCORE.INTRA.norm>
-0.294804

>  <SCORE.RESTR>
0

>  <SCORE.RESTR.CAVITY>
0

>  <SCORE.RESTR.norm>
0

>  <SCORE.SYSTEM>
0

>  <SCORE.SYSTEM.CONST>
0

>  <SCORE.SYSTEM.DIHEDRAL>
0

>  <SCORE.SYSTEM.SOLV>
0

>  <SCORE.SYSTEM.norm>
0

>  <SCORE.heavy>
27

>  <SCORE.norm>
-0.74993

>  <RMSD>
5.068

$$$$
ligand
 OpenBabel11021811483D
libRbt.so/2013.1/901 2013/11/27
 27 29  0  0  0  0  0  0  0  0999 V2000
  -14.2652   -6.8537   26.6475 N   0  0  0  0  0  0  0  0  0  0  0  0
  -14.0140   -5.4328   26.8728 C   0  0  2  0  0  0  0  0  0  0  0  0
  -13.3618   -5.1781   28.2292 C   0  0  0  0  0  0  0  0  0  0  0  0
  -13.1698   -6.0988   29.0265 O   0  0  0  0  0  0  0  0  0  0  0  0
  -15.2956   -4.6209   26.7112 C   0  0  0  0  0  0  0  0  0  0  0  0
  -16.4831   -5.2157   27.4522 C   0  0  0  0  0  0  0  0  0  0  0  0
  -16.3017   -5.2054   29.2532 S   0  0  2  0  0  0  0  0  0  0  0  0
  -17.9626   -5.7231   29.7531 C   0  0  0  0  0  0  0  0  0  0  0  0
  -16.3665   -3.4258   29.5959 C   0  0  0  0  0  0  0  0  0  0  0  0
  -15.7397   -3.1508   30.9553 C   0  0  1  0  0  0  0  0  0  0  0  0
  -16.4283   -3.9080   31.9217 O   0  0  0  0  0  0  0  0  0  0  0  0
  -14.2888   -3.5677   31.1075 C   0  0  1  0  0  0  0  0  0  0  0  0
  -13.4245   -2.4771   30.8788 O   0  0  0  0  0  0  0  0  0  0  0  0
  -14.2077   -4.0002   32.5574 C   0  0  1  0  0  0  0  0  0  0  0  0
  -13.5288   -3.0039   33.2816 O   0  0  0  0  0  0  0  0  0  0  0  0
  -15.6388   -4.1114   33.0656 C   0  0  2  0  0  0  0  0  0  0  0  0
  -13.0184   -4.0418   28.5557 O   0  0  0  0  0  0  0  0  0  0  0  0
  -13.4957   -8.4504   35.1527 N   0  0  0  0  0  0  0  0  0  0  0  0
  -12.8660   -7.2713   34.8061 C   0  0  0  0  0  0  0  0  0  0  0  0
  -13.5848   -6.2233   34.2626 N   0  0  0  0  0  0  0  0  0  0  0  0
  -14.9183   -6.3424   34.0585 C   0  0  0  0  0  0  0  0  0  0  0  0
  -15.5705   -7.5181   34.4090 C   0  0  0  0  0  0  0  0  0  0  0  0
  -14.8535   -8.5766   34.9534 C   0  0  0  0  0  0  0  0  0  0  0  0
  -15.4767   -9.7061   35.2802 N   0  0  0  0  0  0  0  0  0  0  0  0
  -16.8793   -7.3703   34.1114 N   0  0  0  0  0  0  0  0  0  0  0  0
  -17.0703   -6.1311   33.6010 C   0  0  0  0  0  0  0  0  0  0  0  0
  -15.8660   -5.4793   33.5612 N   0  0  0  0  0  0  0  0  0  0  0  0
  2  1  1  1  0  0  0
  2  3  1  0  0  0  0
  2  5  1  0  0  0  0
  3  4  1  0  0  0  0
  3 17  1  0  0  0  0
  5  6  1  0  0  0  0
  7  6  1  6  0  0  0
  7  8  1  0  0  0  0
  7  9  1  0  0  0  0
 10  9  1  6  0  0  0
 10 11  1  0  0  0  0
 10 12  1  0  0  0  0
 11 16  1  0  0  0  0
 12 13  1  1  0  0  0
 12 14  1  0  0  0  0
 14 15  1  1  0  0  0
 14 16  1  0  0  0  0
 16 27  1  6  0  0  0
 18 19  2  0  0  0  0
 18 23  1  0  0  0  0
 19 20  1  0  0  0  0
 20 21  2  0  0  0  0
 21 22  1  0  0  0  0
 21 27  1  0  0  0  0
 22 23  2  0  0  0  0
 22 25  1  0  0  0  0
 23 24  1  0  0  0  0
 25 26  2  0  0  0  0
 26 27  1  0  0  0  0
M  END
>  <CHROM.1>
-3.94951386,47.35795337,65.61894272,171.49356725,-159.55791000,-57.22045256
139.90669427,-15.01706069,-5.44438832,31.30653009,1.57469501,-1.26312607
-1.19798923

>  <Name>
ligand

>  <RI>
0

>  <Rbt.Current_Directory>
/home/itssahil/PROJECTS/Mol_Feturizer/New_Systems/rnas/3GX6

>  <Rbt.Executable>
rbdock ($Id: //depot/dev/client3/rdock/2013.1/src/exe/rbdock.cxx#4 $)

>  <Rbt.Library>
libRbt.so (2013.1, Build901 2013/11/27)

>  <Rbt.Parameter_File>
/export/apps/rDock/src/rDock_2013.1_src/data/scripts/dock_solv.prm

>  <Rbt.Receptor>
prm/pocket_docking_4.prm

>  <SCORE>
-22.062

>  <SCORE.INTER>
-12.1777

>  <SCORE.INTER.CONST>
1

>  <SCORE.INTER.POLAR>
0

>  <SCORE.INTER.ROT>
7

>  <SCORE.INTER.SOLV>
15.0533

>  <SCORE.INTER.VDW>
-21.4029

>  <SCORE.INTER.norm>
-0.451025

>  <SCORE.INTRA>
-9.89449

>  <SCORE.INTRA.DIHEDRAL>
-8.99343

>  <SCORE.INTRA.DIHEDRAL.0>
15.0182

>  <SCORE.INTRA.POLAR>
0

>  <SCORE.INTRA.POLAR.0>
0

>  <SCORE.INTRA.REPUL>
0

>  <SCORE.INTRA.REPUL.0>
0

>  <SCORE.INTRA.SOLV>
0.207212

>  <SCORE.INTRA.SOLV.lig_0>
-47.9129

>  <SCORE.INTRA.VDW>
-5.50138

>  <SCORE.INTRA.VDW.0>
2.00851

>  <SCORE.INTRA.norm>
-0.366463

>  <SCORE.RESTR>
0.0102162

>  <SCORE.RESTR.CAVITY>
0.0102162

>  <SCORE.RESTR.norm>
0.000378377

>  <SCORE.SYSTEM>
0

>  <SCORE.SYSTEM.CONST>
0

>  <SCORE.SYSTEM.DIHEDRAL>
0

>  <SCORE.SYSTEM.SOLV>
0

>  <SCORE.SYSTEM.norm>
0

>  <SCORE.heavy>
27

>  <SCORE.norm>
-0.81711

>  <RMSD>
5.069

$$$$
ligand
 OpenBabel11021811483D
libRbt.so/2013.1/901 2013/11/27
 27 29  0  0  0  0  0  0  0  0999 V2000
  -10.8769   -9.5335   26.6403 N   0  0  0  0  0  0  0  0  0  0  0  0
  -11.3186   -8.1623   26.4002 C   0  0  2  0  0  0  0  0  0  0  0  0
  -10.5413   -7.5048   25.2629 C   0  0  0  0  0  0  0  0  0  0  0  0
   -9.3093   -7.4580   25.2771 O   0  0  0  0  0  0  0  0  0  0  0  0
  -11.2404   -7.3333   27.6787 C   0  0  0  0  0  0  0  0  0  0  0  0
  -12.0869   -7.8924   28.8119 C   0  0  0  0  0  0  0  0  0  0  0  0
  -12.1940   -6.8015   30.2523 S   0  0  2  0  0  0  0  0  0  0  0  0
  -13.4203   -7.6886   31.2452 C   0  0  0  0  0  0  0  0  0  0  0  0
  -13.1936   -5.4444   29.5834 C   0  0  0  0  0  0  0  0  0  0  0  0
  -13.7030   -4.5811   30.7286 C   0  0  1  0  0  0  0  0  0  0  0  0
  -14.8110   -5.2258   31.3103 O   0  0  0  0  0  0  0  0  0  0  0  0
  -12.7350   -4.3752   31.8786 C   0  0  1  0  0  0  0  0  0  0  0  0
  -12.0351   -3.1592   31.7367 O   0  0  0  0  0  0  0  0  0  0  0  0
  -13.6476   -4.3119   33.0865 C   0  0  1  0  0  0  0  0  0  0  0  0
  -13.7329   -2.9735   33.5100 O   0  0  0  0  0  0  0  0  0  0  0  0
  -15.0195   -4.7883   32.6286 C   0  0  2  0  0  0  0  0  0  0  0  0
  -11.1338   -7.0019   24.3080 O   0  0  0  0  0  0  0  0  0  0  0  0
  -13.4773   -8.6362   35.8830 N   0  0  0  0  0  0  0  0  0  0  0  0
  -12.6983   -7.6724   35.2738 C   0  0  0  0  0  0  0  0  0  0  0  0
  -13.2696   -6.7302   34.4394 N   0  0  0  0  0  0  0  0  0  0  0  0
  -14.6033   -6.7439   34.2050 C   0  0  0  0  0  0  0  0  0  0  0  0
  -15.4043   -7.7008   34.8159 C   0  0  0  0  0  0  0  0  0  0  0  0
  -14.8361   -8.6526   35.6539 C   0  0  0  0  0  0  0  0  0  0  0  0
  -15.6021   -9.5750   36.2314 N   0  0  0  0  0  0  0  0  0  0  0  0
  -16.6784   -7.4866   34.4230 N   0  0  0  0  0  0  0  0  0  0  0  0
  -16.7027   -6.4137   33.5979 C   0  0  0  0  0  0  0  0  0  0  0  0
  -15.4257   -5.9399   33.4516 N   0  0  0  0  0  0  0  0  0  0  0  0
  2  1  1  1  0  0  0
  2  3  1  0  0  0  0
  2  5  1  0  0  0  0
  3  4  1  0  0  0  0
  3 17  1  0  0  0  0
  5  6  1  0  0  0  0
  7  6  1  6  0  0  0
  7  8  1  0  0  0  0
  7  9  1  0  0  0  0
 10  9  1  6  0  0  0
 10 11  1  0  0  0  0
 10 12  1  0  0  0  0
 11 16  1  0  0  0  0
 12 13  1  6  0  0  0
 12 14  1  0  0  0  0
 14 15  1  6  0  0  0
 14 16  1  0  0  0  0
 16 27  1  1  0  0  0
 18 19  2  0  0  0  0
 18 23  1  0  0  0  0
 19 20  1  0  0  0  0
 20 21  2  0  0  0  0
 21 22  1  0  0  0  0
 21 27  1  0  0  0  0
 22 23  2  0  0  0  0
 22 25  1  0  0  0  0
 23 24  1  0  0  0  0
 25 26  2  0  0  0  0
 26 27  1  0  0  0  0
M  END
>  <CHROM.1>
-54.52549972,-59.08617924,-171.74583404,172.91368636,165.67600917,-79.34633883
93.83626272,-13.21715213,-6.62365609,31.26166243,-0.03719005,-1.13077452
3.03540756

>  <Name>
ligand

>  <RI>
0

>  <Rbt.Current_Directory>
/home/itssahil/PROJECTS/Mol_Feturizer/New_Systems/rnas/3GX6

>  <Rbt.Executable>
rbdock ($Id: //depot/dev/client3/rdock/2013.1/src/exe/rbdock.cxx#4 $)

>  <Rbt.Library>
libRbt.so (2013.1, Build901 2013/11/27)

>  <Rbt.Parameter_File>
/export/apps/rDock/src/rDock_2013.1_src/data/scripts/dock_solv.prm

>  <Rbt.Receptor>
prm/pocket_docking_8.prm

>  <SCORE>
-20.9223

>  <SCORE.INTER>
-12.2421

>  <SCORE.INTER.CONST>
1

>  <SCORE.INTER.POLAR>
0

>  <SCORE.INTER.ROT>
7

>  <SCORE.INTER.SOLV>
14.5248

>  <SCORE.INTER.VDW>
-21.2697

>  <SCORE.INTER.norm>
-0.453412

>  <SCORE.INTRA>
-8.68015

>  <SCORE.INTRA.DIHEDRAL>
-10.273

>  <SCORE.INTRA.DIHEDRAL.0>
15.0182

>  <SCORE.INTRA.POLAR>
0

>  <SCORE.INTRA.POLAR.0>
0

>  <SCORE.INTRA.REPUL>
0

>  <SCORE.INTRA.REPUL.0>
0

>  <SCORE.INTRA.SOLV>
-0.850643

>  <SCORE.INTRA.SOLV.lig_0>
-47.9129

>  <SCORE.INTRA.VDW>
-3.11831

>  <SCORE.INTRA.VDW.0>
2.00851

>  <SCORE.INTRA.norm>
-0.321487

>  <SCORE.RESTR>
0

>  <SCORE.RESTR.CAVITY>
0

>  <SCORE.RESTR.norm>
0

>  <SCORE.SYSTEM>
0

>  <SCORE.SYSTEM.CONST>
0

>  <SCORE.SYSTEM.DIHEDRAL>
0

>  <SCORE.SYSTEM.SOLV>
0

>  <SCORE.SYSTEM.norm>
0

>  <SCORE.heavy>
27

>  <SCORE.norm>
-0.774899

>  <RMSD>
5.073

$$$$
ligand
 OpenBabel11021811483D
libRbt.so/2013.1/901 2013/11/27
 27 29  0  0  0  0  0  0  0  0999 V2000
  -13.7803   -8.2502   25.5972 N   0  0  0  0  0  0  0  0  0  0  0  0
  -12.6635   -7.3093   25.6123 C   0  0  2  0  0  0  0  0  0  0  0  0
  -11.3814   -7.9389   25.0739 C   0  0  0  0  0  0  0  0  0  0  0  0
  -10.8963   -7.5766   23.9997 O   0  0  0  0  0  0  0  0  0  0  0  0
  -12.4554   -6.7334   27.0097 C   0  0  0  0  0  0  0  0  0  0  0  0
  -13.5359   -5.7452   27.4211 C   0  0  0  0  0  0  0  0  0  0  0  0
  -13.3952   -5.1781   29.1342 S   0  0  2  0  0  0  0  0  0  0  0  0
  -14.1863   -6.5557   30.0019 C   0  0  0  0  0  0  0  0  0  0  0  0
  -14.7041   -3.9244   29.1909 C   0  0  0  0  0  0  0  0  0  0  0  0
  -14.7886   -3.3465   30.5964 C   0  0  1  0  0  0  0  0  0  0  0  0
  -15.5748   -4.2092   31.3833 O   0  0  0  0  0  0  0  0  0  0  0  0
  -13.4731   -3.2411   31.3448 C   0  0  1  0  0  0  0  0  0  0  0  0
  -12.9264   -1.9468   31.2232 O   0  0  0  0  0  0  0  0  0  0  0  0
  -13.8755   -3.5025   32.7820 C   0  0  1  0  0  0  0  0  0  0  0  0
  -13.8533   -2.2815   33.4794 O   0  0  0  0  0  0  0  0  0  0  0  0
  -15.2984   -4.0437   32.7505 C   0  0  2  0  0  0  0  0  0  0  0  0
  -10.8081   -8.8283   25.7031 O   0  0  0  0  0  0  0  0  0  0  0  0
  -12.4797   -8.1045   34.5782 N   0  0  0  0  0  0  0  0  0  0  0  0
  -12.0188   -6.9470   33.9826 C   0  0  0  0  0  0  0  0  0  0  0  0
  -12.9040   -5.9755   33.5549 N   0  0  0  0  0  0  0  0  0  0  0  0
  -14.2378   -6.1497   33.7110 C   0  0  0  0  0  0  0  0  0  0  0  0
  -14.7196   -7.3041   34.3158 C   0  0  0  0  0  0  0  0  0  0  0  0
  -13.8355   -8.2861   34.7457 C   0  0  0  0  0  0  0  0  0  0  0  0
  -14.2976   -9.3960   35.3164 N   0  0  0  0  0  0  0  0  0  0  0  0
  -16.0670   -7.2210   34.3528 N   0  0  0  0  0  0  0  0  0  0  0  0
  -16.4434   -6.0415   33.8052 C   0  0  0  0  0  0  0  0  0  0  0  0
  -15.3231   -5.3640   33.4022 N   0  0  0  0  0  0  0  0  0  0  0  0
  2  1  1  1  0  0  0
  2  3  1  0  0  0  0
  2  5  1  0  0  0  0
  3  4  1  0  0  0  0
  3 17  1  0  0  0  0
  5  6  1  0  0  0  0
  7  6  1  6  0  0  0
  7  8  1  0  0  0  0
  7  9  1  0  0  0  0
 10  9  1  6  0  0  0
 10 11  1  0  0  0  0
 10 12  1  0  0  0  0
 11 16  1  0  0  0  0
 12 13  1  1  0  0  0
 12 14  1  0  0  0  0
 14 15  1  1  0  0  0
 14 16  1  0  0  0  0
 16 27  1  1  0  0  0
 18 19  2  0  0  0  0
 18 23  1  0  0  0  0
 19 20  1  0  0  0  0
 20 21  2  0  0  0  0
 21 22  1  0  0  0  0
 21 27  1  0  0  0  0
 22 23  2  0  0  0  0
 22 25  1  0  0  0  0
 23 24  1  0  0  0  0
 25 26  2  0  0  0  0
 26 27  1  0  0  0  0
M  END
>  <CHROM.1>
111.29345719,-72.12431306,174.26713923,-81.84446168,177.89956539,-83.11699713
98.64142807,-13.65903874,-5.90311067,30.71397714,-0.51691591,-1.25715736
2.42508599

>  <Name>
ligand

>  <RI>
0

>  <Rbt.Current_Directory>
/home/itssahil/PROJECTS/Mol_Feturizer/New_Systems/rnas/3GX6

>  <Rbt.Executable>
rbdock ($Id: //depot/dev/client3/rdock/2013.1/src/exe/rbdock.cxx#4 $)

>  <Rbt.Library>
libRbt.so (2013.1, Build901 2013/11/27)

>  <Rbt.Parameter_File>
/export/apps/rDock/src/rDock_2013.1_src/data/scripts/dock_solv.prm

>  <Rbt.Receptor>
prm/pocket_docking_5.prm

>  <SCORE>
-19.6219

>  <SCORE.INTER>
-11.0427

>  <SCORE.INTER.CONST>
1

>  <SCORE.INTER.POLAR>
0

>  <SCORE.INTER.ROT>
7

>  <SCORE.INTER.SOLV>
13.1558

>  <SCORE.INTER.VDW>
-20.0137

>  <SCORE.INTER.norm>
-0.408989

>  <SCORE.INTRA>
-8.58314

>  <SCORE.INTRA.DIHEDRAL>
-8.80286

>  <SCORE.INTRA.DIHEDRAL.0>
15.0182

>  <SCORE.INTRA.POLAR>
0

>  <SCORE.INTRA.POLAR.0>
0

>  <SCORE.INTRA.REPUL>
0

>  <SCORE.INTRA.REPUL.0>
0

>  <SCORE.INTRA.SOLV>
-0.924528

>  <SCORE.INTRA.SOLV.lig_0>
-47.9129

>  <SCORE.INTRA.VDW>
-3.71944

>  <SCORE.INTRA.VDW.0>
2.00851

>  <SCORE.INTRA.norm>
-0.317894

>  <SCORE.RESTR>
0.0039677

>  <SCORE.RESTR.CAVITY>
0.0039677

>  <SCORE.RESTR.norm>
0.000146952

>  <SCORE.SYSTEM>
0

>  <SCORE.SYSTEM.CONST>
0

>  <SCORE.SYSTEM.DIHEDRAL>
0

>  <SCORE.SYSTEM.SOLV>
0

>  <SCORE.SYSTEM.norm>
0

>  <SCORE.heavy>
27

>  <SCORE.norm>
-0.726736

>  <RMSD>
5.074

$$$$
ligand
 OpenBabel11021811483D
libRbt.so/2013.1/901 2013/11/27
 27 29  0  0  0  0  0  0  0  0999 V2000
  -10.2697   -9.6852   27.1156 N   0  0  0  0  0  0  0  0  0  0  0  0
  -11.1070   -8.5042   26.9232 C   0  0  2  0  0  0  0  0  0  0  0  0
  -10.6863   -7.7022   25.6944 C   0  0  0  0  0  0  0  0  0  0  0  0
  -11.5257   -7.2061   24.9397 O   0  0  0  0  0  0  0  0  0  0  0  0
  -11.1187   -7.6348   28.1769 C   0  0  0  0  0  0  0  0  0  0  0  0
  -12.0315   -6.4238   28.0618 C   0  0  0  0  0  0  0  0  0  0  0  0
  -12.5706   -5.7593   29.6568 S   0  0  2  0  0  0  0  0  0  0  0  0
  -13.7309   -7.0488   30.1741 C   0  0  0  0  0  0  0  0  0  0  0  0
  -13.7081   -4.4532   29.1195 C   0  0  0  0  0  0  0  0  0  0  0  0
  -14.2705   -3.7402   30.3408 C   0  0  1  0  0  0  0  0  0  0  0  0
  -15.1167   -4.6336   31.0244 O   0  0  0  0  0  0  0  0  0  0  0  0
  -13.2514   -3.3105   31.3794 C   0  0  1  0  0  0  0  0  0  0  0  0
  -12.8831   -1.9616   31.1961 O   0  0  0  0  0  0  0  0  0  0  0  0
  -14.0046   -3.4711   32.6843 C   0  0  1  0  0  0  0  0  0  0  0  0
  -14.3561   -2.1934   33.1552 O   0  0  0  0  0  0  0  0  0  0  0  0
  -15.2673   -4.2621   32.3706 C   0  0  2  0  0  0  0  0  0  0  0  0
   -9.4949   -7.5397   25.4302 O   0  0  0  0  0  0  0  0  0  0  0  0
  -12.4380   -8.0405   34.7145 N   0  0  0  0  0  0  0  0  0  0  0  0
  -11.9810   -6.9779   33.9601 C   0  0  0  0  0  0  0  0  0  0  0  0
  -12.8686   -6.0720   33.4109 N   0  0  0  0  0  0  0  0  0  0  0  0
  -14.2011   -6.2185   33.6026 C   0  0  0  0  0  0  0  0  0  0  0  0
  -14.6789   -7.2766   34.3660 C   0  0  0  0  0  0  0  0  0  0  0  0
  -13.7923   -8.1926   34.9189 C   0  0  0  0  0  0  0  0  0  0  0  0
  -14.2508   -9.2114   35.6421 N   0  0  0  0  0  0  0  0  0  0  0  0
  -16.0256   -7.1847   34.4045 N   0  0  0  0  0  0  0  0  0  0  0  0
  -16.4054   -6.0910   33.7027 C   0  0  0  0  0  0  0  0  0  0  0  0
  -15.2879   -5.4794   33.1989 N   0  0  0  0  0  0  0  0  0  0  0  0
  2  1  1  1  0  0  0
  2  3  1  0  0  0  0
  2  5  1  0  0  0  0
  3  4  1  0  0  0  0
  3 17  1  0  0  0  0
  5  6  1  0  0  0  0
  7  6  1  6  0  0  0
  7  8  1  0  0  0  0
  7  9  1  0  0  0  0
 10  9  1  6  0  0  0
 10 11  1  0  0  0  0
 10 12  1  0  0  0  0
 11 16  1  0  0  0  0
 12 13  1  6  0  0  0
 12 14  1  0  0  0  0
 14 15  1  6  0  0  0
 14 16  1  0  0  0  0
 16 27  1  1  0  0  0
 18 19  2  0  0  0  0
 18 23  1  0  0  0  0
 19 20  1  0  0  0  0
 20 21  2  0  0  0  0
 21 22  1  0  0  0  0
 21 27  1  0  0  0  0
 22 23  2  0  0  0  0
 22 25  1  0  0  0  0
 23 24  1  0  0  0  0
 25 26  2  0  0  0  0
 26 27  1  0  0  0  0
M  END
>  <CHROM.1>
139.45490424,-177.08116810,157.42038374,-72.03414430,-179.20027529,-68.50267252
79.50695627,-13.17405074,-6.09598745,30.92381595,-0.38377372,-1.08980721
2.49299467

>  <Name>
ligand

>  <RI>
0

>  <Rbt.Current_Directory>
/home/itssahil/PROJECTS/Mol_Feturizer/New_Systems/rnas/3GX6

>  <Rbt.Executable>
rbdock ($Id: //depot/dev/client3/rdock/2013.1/src/exe/rbdock.cxx#4 $)

>  <Rbt.Library>
libRbt.so (2013.1, Build901 2013/11/27)

>  <Rbt.Parameter_File>
/export/apps/rDock/src/rDock_2013.1_src/data/scripts/dock_solv.prm

>  <Rbt.Receptor>
prm/pocket_docking_6.prm

>  <SCORE>
-22.3744

>  <SCORE.INTER>
-12.272

>  <SCORE.INTER.CONST>
1

>  <SCORE.INTER.POLAR>
0

>  <SCORE.INTER.ROT>
7

>  <SCORE.INTER.SOLV>
17.4791

>  <SCORE.INTER.VDW>
-22.2744

>  <SCORE.INTER.norm>
-0.454518

>  <SCORE.INTRA>
-10.1086

>  <SCORE.INTRA.DIHEDRAL>
-9.55292

>  <SCORE.INTRA.DIHEDRAL.0>
15.0182

>  <SCORE.INTRA.POLAR>
0

>  <SCORE.INTRA.POLAR.0>
0

>  <SCORE.INTRA.REPUL>
0

>  <SCORE.INTRA.REPUL.0>
0

>  <SCORE.INTRA.SOLV>
-1.54429

>  <SCORE.INTRA.SOLV.lig_0>
-47.9129

>  <SCORE.INTRA.VDW>
-4.56002

>  <SCORE.INTRA.VDW.0>
2.00851

>  <SCORE.INTRA.norm>
-0.374393

>  <SCORE.RESTR>
0.00621003

>  <SCORE.RESTR.CAVITY>
0.00621003

>  <SCORE.RESTR.norm>
0.000230001

>  <SCORE.SYSTEM>
0

>  <SCORE.SYSTEM.CONST>
0

>  <SCORE.SYSTEM.DIHEDRAL>
0

>  <SCORE.SYSTEM.SOLV>
0

>  <SCORE.SYSTEM.norm>
0

>  <SCORE.heavy>
27

>  <SCORE.norm>
-0.828682

>  <RMSD>
5.076

$$$$
ligand
 OpenBabel11021811483D
libRbt.so/2013.1/901 2013/11/27
 27 29  0  0  0  0  0  0  0  0999 V2000
  -16.7519   -8.7574   28.8165 N   0  0  0  0  0  0  0  0  0  0  0  0
  -15.4446   -8.7343   28.1660 C   0  0  2  0  0  0  0  0  0  0  0  0
  -15.5635   -8.8122   26.6462 C   0  0  0  0  0  0  0  0  0  0  0  0
  -14.9386   -8.0378   25.9180 O   0  0  0  0  0  0  0  0  0  0  0  0
  -14.5458   -9.8405   28.7105 C   0  0  0  0  0  0  0  0  0  0  0  0
  -13.1201   -9.7716   28.1853 C   0  0  0  0  0  0  0  0  0  0  0  0
  -12.2399   -8.2609   28.6536 S   0  0  2  0  0  0  0  0  0  0  0  0
  -10.5426   -8.7251   28.2290 C   0  0  0  0  0  0  0  0  0  0  0  0
  -12.2113   -8.4243   30.4594 C   0  0  0  0  0  0  0  0  0  0  0  0
  -13.3162   -7.5678   31.0610 C   0  0  1  0  0  0  0  0  0  0  0  0
  -13.7932   -8.2099   32.2193 O   0  0  0  0  0  0  0  0  0  0  0  0
  -12.8959   -6.1892   31.5352 C   0  0  1  0  0  0  0  0  0  0  0  0
  -13.1582   -5.2155   30.5494 O   0  0  0  0  0  0  0  0  0  0  0  0
  -13.7817   -5.9583   32.7427 C   0  0  1  0  0  0  0  0  0  0  0  0
  -14.7845   -5.0378   32.3893 O   0  0  0  0  0  0  0  0  0  0  0  0
  -14.4195   -7.2980   33.0849 C   0  0  2  0  0  0  0  0  0  0  0  0
  -16.2933   -9.6507   26.1171 O   0  0  0  0  0  0  0  0  0  0  0  0
  -16.0482   -9.4587   37.6074 N   0  0  0  0  0  0  0  0  0  0  0  0
  -16.7538   -9.3153   36.4291 C   0  0  0  0  0  0  0  0  0  0  0  0
  -16.1704   -8.7170   35.3282 N   0  0  0  0  0  0  0  0  0  0  0  0
  -14.8977   -8.2588   35.3937 C   0  0  0  0  0  0  0  0  0  0  0  0
  -14.1694   -8.4021   36.5682 C   0  0  0  0  0  0  0  0  0  0  0  0
  -14.7507   -9.0002   37.6796 C   0  0  0  0  0  0  0  0  0  0  0  0
  -14.0561   -9.1287   38.8075 N   0  0  0  0  0  0  0  0  0  0  0  0
  -12.9435   -7.8745   36.3624 N   0  0  0  0  0  0  0  0  0  0  0  0
  -12.8755   -7.4204   35.0888 C   0  0  0  0  0  0  0  0  0  0  0  0
  -14.0774   -7.6505   34.4731 N   0  0  0  0  0  0  0  0  0  0  0  0
  2  1  1  1  0  0  0
  2  3  1  0  0  0  0
  2  5  1  0  0  0  0
  3  4  1  0  0  0  0
  3 17  1  0  0  0  0
  5  6  1  0  0  0  0
  7  6  1  6  0  0  0
  7  8  1  0  0  0  0
  7  9  1  0  0  0  0
 10  9  1  1  0  0  0
 10 11  1  0  0  0  0
 10 12  1  0  0  0  0
 11 16  1  0  0  0  0
 12 13  1  6  0  0  0
 12 14  1  0  0  0  0
 14 15  1  6  0  0  0
 14 16  1  0  0  0  0
 16 27  1  1  0  0  0
 18 19  2  0  0  0  0
 18 23  1  0  0  0  0
 19 20  1  0  0  0  0
 20 21  2  0  0  0  0
 21 22  1  0  0  0  0
 21 27  1  0  0  0  0
 22 23  2  0  0  0  0
 22 25  1  0  0  0  0
 23 24  1  0  0  0  0
 25 26  2  0  0  0  0
 26 27  1  0  0  0  0
M  END
>  <CHROM.1>
132.23005666,-173.54280164,62.60143343,166.62070449,-99.69057573,146.97876228
-105.19380553,-14.13406457,-8.12227191,31.81288712,1.49783572,-0.51201384
-1.62658475

>  <Name>
ligand

>  <RI>
0

>  <Rbt.Current_Directory>
/home/itssahil/PROJECTS/Mol_Feturizer/New_Systems/rnas/3GX6

>  <Rbt.Executable>
rbdock ($Id: //depot/dev/client3/rdock/2013.1/src/exe/rbdock.cxx#4 $)

>  <Rbt.Library>
libRbt.so (2013.1, Build901 2013/11/27)

>  <Rbt.Parameter_File>
/export/apps/rDock/src/rDock_2013.1_src/data/scripts/dock_solv.prm

>  <Rbt.Receptor>
prm/pocket_docking_5.prm

>  <SCORE>
-20.9147

>  <SCORE.INTER>
-12.159

>  <SCORE.INTER.CONST>
1

>  <SCORE.INTER.POLAR>
0

>  <SCORE.INTER.ROT>
7

>  <SCORE.INTER.SOLV>
12.4843

>  <SCORE.INTER.VDW>
-20.5341

>  <SCORE.INTER.norm>
-0.450334

>  <SCORE.INTRA>
-8.75565

>  <SCORE.INTRA.DIHEDRAL>
-6.23865

>  <SCORE.INTRA.DIHEDRAL.0>
15.0182

>  <SCORE.INTRA.POLAR>
0

>  <SCORE.INTRA.POLAR.0>
0

>  <SCORE.INTRA.REPUL>
0

>  <SCORE.INTRA.REPUL.0>
0

>  <SCORE.INTRA.SOLV>
-1.3533

>  <SCORE.INTRA.SOLV.lig_0>
-47.9129

>  <SCORE.INTRA.VDW>
-4.95967

>  <SCORE.INTRA.VDW.0>
2.00851

>  <SCORE.INTRA.norm>
-0.324283

>  <SCORE.RESTR>
0

>  <SCORE.RESTR.CAVITY>
0

>  <SCORE.RESTR.norm>
0

>  <SCORE.SYSTEM>
0

>  <SCORE.SYSTEM.CONST>
0

>  <SCORE.SYSTEM.DIHEDRAL>
0

>  <SCORE.SYSTEM.SOLV>
0

>  <SCORE.SYSTEM.norm>
0

>  <SCORE.heavy>
27

>  <SCORE.norm>
-0.774617

>  <RMSD>
5.080

$$$$
ligand
 OpenBabel11021811483D
libRbt.so/2013.1/901 2013/11/27
 27 29  0  0  0  0  0  0  0  0999 V2000
  -14.4025   -6.5406   28.5888 N   0  0  0  0  0  0  0  0  0  0  0  0
  -15.0103   -5.2562   28.2516 C   0  0  2  0  0  0  0  0  0  0  0  0
  -15.2160   -5.1012   26.7471 C   0  0  0  0  0  0  0  0  0  0  0  0
  -15.2690   -6.0858   26.0067 O   0  0  0  0  0  0  0  0  0  0  0  0
  -14.1940   -4.1007   28.8229 C   0  0  0  0  0  0  0  0  0  0  0  0
  -14.2310   -4.0300   30.3417 C   0  0  0  0  0  0  0  0  0  0  0  0
  -15.8809   -3.7241   31.0202 S   0  0  2  0  0  0  0  0  0  0  0  0
  -16.0012   -1.9321   30.7950 C   0  0  0  0  0  0  0  0  0  0  0  0
  -15.5484   -3.8367   32.7993 C   0  0  0  0  0  0  0  0  0  0  0  0
  -15.8768   -5.2408   33.2860 C   0  0  1  0  0  0  0  0  0  0  0  0
  -17.2768   -5.3866   33.3051 O   0  0  0  0  0  0  0  0  0  0  0  0
  -15.3877   -6.3743   32.4041 C   0  0  1  0  0  0  0  0  0  0  0  0
  -14.1559   -6.8792   32.8693 O   0  0  0  0  0  0  0  0  0  0  0  0
  -16.4714   -7.4216   32.5610 C   0  0  1  0  0  0  0  0  0  0  0  0
  -15.9802   -8.4502   33.3847 O   0  0  0  0  0  0  0  0  0  0  0  0
  -17.6479   -6.7401   33.2465 C   0  0  2  0  0  0  0  0  0  0  0  0
  -15.3280   -3.9841   26.2419 O   0  0  0  0  0  0  0  0  0  0  0  0
  -19.9710   -5.4163   28.7049 N   0  0  0  0  0  0  0  0  0  0  0  0
  -18.7220   -5.0455   29.1627 C   0  0  0  0  0  0  0  0  0  0  0  0
  -18.2640   -5.4847   30.3906 N   0  0  0  0  0  0  0  0  0  0  0  0
  -19.0387   -6.2823   31.1636 C   0  0  0  0  0  0  0  0  0  0  0  0
  -20.2947   -6.6727   30.7157 C   0  0  0  0  0  0  0  0  0  0  0  0
  -20.7625   -6.2327   29.4834 C   0  0  0  0  0  0  0  0  0  0  0  0
  -21.9694   -6.5990   29.0588 N   0  0  0  0  0  0  0  0  0  0  0  0
  -20.8456   -7.4617   31.6631 N   0  0  0  0  0  0  0  0  0  0  0  0
  -19.9658   -7.5918   32.6838 C   0  0  0  0  0  0  0  0  0  0  0  0
  -18.8400   -6.8681   32.3915 N   0  0  0  0  0  0  0  0  0  0  0  0
  2  1  1  6  0  0  0
  2  3  1  0  0  0  0
  2  5  1  0  0  0  0
  3  4  1  0  0  0  0
  3 17  1  0  0  0  0
  5  6  1  0  0  0  0
  7  6  1  6  0  0  0
  7  8  1  0  0  0  0
  7  9  1  0  0  0  0
 10  9  1  6  0  0  0
 10 11  1  0  0  0  0
 10 12  1  0  0  0  0
 11 16  1  0  0  0  0
 12 13  1  1  0  0  0
 12 14  1  0  0  0  0
 14 15  1  1  0  0  0
 14 16  1  0  0  0  0
 16 27  1  6  0  0  0
 18 19  2  0  0  0  0
 18 23  1  0  0  0  0
 19 20  1  0  0  0  0
 20 21  2  0  0  0  0
 21 22  1  0  0  0  0
 21 27  1  0  0  0  0
 22 23  2  0  0  0  0
 22 25  1  0  0  0  0
 23 24  1  0  0  0  0
 25 26  2  0  0  0  0
 26 27  1  0  0  0  0
M  END
>  <CHROM.1>
21.66174318,-68.02415832,-63.13461718,-80.40525020,-96.05266983,-72.66122117
45.91315616,-16.98731498,-5.61986321,30.61146710,0.68652693,-0.30760402,-1.32437535

>  <Name>
ligand

>  <RI>
0

>  <Rbt.Current_Directory>
/home/itssahil/PROJECTS/Mol_Feturizer/New_Systems/rnas/3GX6

>  <Rbt.Executable>
rbdock ($Id: //depot/dev/client3/rdock/2013.1/src/exe/rbdock.cxx#4 $)

>  <Rbt.Library>
libRbt.so (2013.1, Build901 2013/11/27)

>  <Rbt.Parameter_File>
/export/apps/rDock/src/rDock_2013.1_src/data/scripts/dock_solv.prm

>  <Rbt.Receptor>
prm/pocket_docking_8.prm

>  <SCORE>
-22.3417

>  <SCORE.INTER>
-12.1808

>  <SCORE.INTER.CONST>
1

>  <SCORE.INTER.POLAR>
0

>  <SCORE.INTER.ROT>
7

>  <SCORE.INTER.SOLV>
14.5664

>  <SCORE.INTER.VDW>
-21.2426

>  <SCORE.INTER.norm>
-0.451139

>  <SCORE.INTRA>
-10.164

>  <SCORE.INTRA.DIHEDRAL>
-8.62606

>  <SCORE.INTRA.DIHEDRAL.0>
15.0182

>  <SCORE.INTRA.POLAR>
0

>  <SCORE.INTRA.POLAR.0>
0

>  <SCORE.INTRA.REPUL>
0

>  <SCORE.INTRA.REPUL.0>
0

>  <SCORE.INTRA.SOLV>
0.197341

>  <SCORE.INTRA.SOLV.lig_0>
-47.9129

>  <SCORE.INTRA.VDW>
-5.9496

>  <SCORE.INTRA.VDW.0>
2.00851

>  <SCORE.INTRA.norm>
-0.376443

>  <SCORE.RESTR>
0.00298888

>  <SCORE.RESTR.CAVITY>
0.00298888

>  <SCORE.RESTR.norm>
0.000110699

>  <SCORE.SYSTEM>
0

>  <SCORE.SYSTEM.CONST>
0

>  <SCORE.SYSTEM.DIHEDRAL>
0

>  <SCORE.SYSTEM.SOLV>
0

>  <SCORE.SYSTEM.norm>
0

>  <SCORE.heavy>
27

>  <SCORE.norm>
-0.827471

>  <RMSD>
5.081

$$$$
ligand
 OpenBabel11021811483D
libRbt.so/2013.1/901 2013/11/27
 27 29  0  0  0  0  0  0  0  0999 V2000
  -14.0366   -8.8150   24.5668 N   0  0  0  0  0  0  0  0  0  0  0  0
  -13.8054   -7.3953   24.3143 C   0  0  2  0  0  0  0  0  0  0  0  0
  -13.3675   -7.1370   22.8750 C   0  0  0  0  0  0  0  0  0  0  0  0
  -13.9760   -6.3399   22.1575 O   0  0  0  0  0  0  0  0  0  0  0  0
  -12.8036   -6.8209   25.3115 C   0  0  0  0  0  0  0  0  0  0  0  0
  -13.2826   -6.8884   26.7534 C   0  0  0  0  0  0  0  0  0  0  0  0
  -12.1215   -6.1748   27.9445 S   0  0  2  0  0  0  0  0  0  0  0  0
  -10.7444   -7.3406   27.7990 C   0  0  0  0  0  0  0  0  0  0  0  0
  -12.8678   -6.7011   29.5112 C   0  0  0  0  0  0  0  0  0  0  0  0
  -13.9843   -5.7374   29.8869 C   0  0  1  0  0  0  0  0  0  0  0  0
  -14.9887   -6.4624   30.5556 O   0  0  0  0  0  0  0  0  0  0  0  0
  -13.6027   -4.6334   30.8551 C   0  0  1  0  0  0  0  0  0  0  0  0
  -13.2850   -3.4454   30.1649 O   0  0  0  0  0  0  0  0  0  0  0  0
  -14.8665   -4.4400   31.6684 C   0  0  1  0  0  0  0  0  0  0  0  0
  -15.4844   -3.2467   31.2534 O   0  0  0  0  0  0  0  0  0  0  0  0
  -15.7775   -5.6193   31.3554 C   0  0  2  0  0  0  0  0  0  0  0  0
  -12.3968   -7.7268   22.4001 O   0  0  0  0  0  0  0  0  0  0  0  0
  -14.4993   -9.5018   34.6822 N   0  0  0  0  0  0  0  0  0  0  0  0
  -13.8707   -9.1473   33.5048 C   0  0  0  0  0  0  0  0  0  0  0  0
  -14.3432   -8.0941   32.7447 N   0  0  0  0  0  0  0  0  0  0  0  0
  -15.4341   -7.3982   33.1442 C   0  0  0  0  0  0  0  0  0  0  0  0
  -16.0745   -7.7350   34.3304 C   0  0  0  0  0  0  0  0  0  0  0  0
  -15.6064   -8.7944   35.0981 C   0  0  0  0  0  0  0  0  0  0  0  0
  -16.2256   -9.1229   36.2294 N   0  0  0  0  0  0  0  0  0  0  0  0
  -17.1141   -6.8889   34.4946 N   0  0  0  0  0  0  0  0  0  0  0  0
  -17.1343   -6.0208   33.4561 C   0  0  0  0  0  0  0  0  0  0  0  0
  -16.1002   -6.3209   32.6092 N   0  0  0  0  0  0  0  0  0  0  0  0
  2  1  1  6  0  0  0
  2  3  1  0  0  0  0
  2  5  1  0  0  0  0
  3  4  1  0  0  0  0
  3 17  1  0  0  0  0
  5  6  1  0  0  0  0
  7  6  1  6  0  0  0
  7  8  1  0  0  0  0
  7  9  1  0  0  0  0
 10  9  1  1  0  0  0
 10 11  1  0  0  0  0
 10 12  1  0  0  0  0
 11 16  1  0  0  0  0
 12 13  1  6  0  0  0
 12 14  1  0  0  0  0
 14 15  1  6  0  0  0
 14 16  1  0  0  0  0
 16 27  1  1  0  0  0
 18 19  2  0  0  0  0
 18 23  1  0  0  0  0
 19 20  1  0  0  0  0
 20 21  2  0  0  0  0
 21 22  1  0  0  0  0
 21 27  1  0  0  0  0
 22 23  2  0  0  0  0
 22 25  1  0  0  0  0
 23 24  1  0  0  0  0
 25 26  2  0  0  0  0
 26 27  1  0  0  0  0
M  END
>  <CHROM.1>
125.22642174,-62.33076662,-178.62678220,-66.36675789,-82.45861493,146.78387246
19.84181143,-14.21302157,-6.73827074,29.75941162,-0.33233072,-1.28675544
2.83705891

>  <Name>
ligand

>  <RI>
0

>  <Rbt.Current_Directory>
/home/itssahil/PROJECTS/Mol_Feturizer/New_Systems/rnas/3GX6

>  <Rbt.Executable>
rbdock ($Id: //depot/dev/client3/rdock/2013.1/src/exe/rbdock.cxx#4 $)

>  <Rbt.Library>
libRbt.so (2013.1, Build901 2013/11/27)

>  <Rbt.Parameter_File>
/export/apps/rDock/src/rDock_2013.1_src/data/scripts/dock_solv.prm

>  <Rbt.Receptor>
prm/pocket_docking_7.prm

>  <SCORE>
-18.6174

>  <SCORE.INTER>
-9.36663

>  <SCORE.INTER.CONST>
1

>  <SCORE.INTER.POLAR>
0

>  <SCORE.INTER.ROT>
7

>  <SCORE.INTER.SOLV>
9.92988

>  <SCORE.INTER.VDW>
-17.821

>  <SCORE.INTER.norm>
-0.346912

>  <SCORE.INTRA>
-9.25076

>  <SCORE.INTRA.DIHEDRAL>
-8.17627

>  <SCORE.INTRA.DIHEDRAL.0>
15.0182

>  <SCORE.INTRA.POLAR>
0

>  <SCORE.INTRA.POLAR.0>
0

>  <SCORE.INTRA.REPUL>
0

>  <SCORE.INTRA.REPUL.0>
0

>  <SCORE.INTRA.SOLV>
-1.10569

>  <SCORE.INTRA.SOLV.lig_0>
-47.9129

>  <SCORE.INTRA.VDW>
-4.60978

>  <SCORE.INTRA.VDW.0>
2.00851

>  <SCORE.INTRA.norm>
-0.342621

>  <SCORE.RESTR>
0

>  <SCORE.RESTR.CAVITY>
0

>  <SCORE.RESTR.norm>
0

>  <SCORE.SYSTEM>
0

>  <SCORE.SYSTEM.CONST>
0

>  <SCORE.SYSTEM.DIHEDRAL>
0

>  <SCORE.SYSTEM.SOLV>
0

>  <SCORE.SYSTEM.norm>
0

>  <SCORE.heavy>
27

>  <SCORE.norm>
-0.689533

>  <RMSD>
5.093

$$$$
ligand
 OpenBabel11021811483D
libRbt.so/2013.1/901 2013/11/27
 27 29  0  0  0  0  0  0  0  0999 V2000
  -11.9605   -8.2296   29.4768 N   0  0  0  0  0  0  0  0  0  0  0  0
  -12.7425   -8.2856   28.2447 C   0  0  2  0  0  0  0  0  0  0  0  0
  -12.7309   -9.6810   27.6260 C   0  0  0  0  0  0  0  0  0  0  0  0
  -11.9281  -10.5379   28.0024 O   0  0  0  0  0  0  0  0  0  0  0  0
  -12.2662   -7.2323   27.2490 C   0  0  0  0  0  0  0  0  0  0  0  0
  -12.3984   -5.8089   27.7683 C   0  0  0  0  0  0  0  0  0  0  0  0
  -14.0565   -5.3998   28.3682 S   0  0  2  0  0  0  0  0  0  0  0  0
  -14.7790   -4.6823   26.8716 C   0  0  0  0  0  0  0  0  0  0  0  0
  -13.7122   -3.9112   29.3448 C   0  0  0  0  0  0  0  0  0  0  0  0
  -14.9431   -3.5492   30.1636 C   0  0  1  0  0  0  0  0  0  0  0  0
  -15.4705   -4.7315   30.7164 O   0  0  0  0  0  0  0  0  0  0  0  0
  -14.6968   -2.6469   31.3582 C   0  0  1  0  0  0  0  0  0  0  0  0
  -14.9488   -1.2984   31.0315 O   0  0  0  0  0  0  0  0  0  0  0  0
  -15.7130   -3.1352   32.3706 C   0  0  1  0  0  0  0  0  0  0  0  0
  -16.7556   -2.1942   32.4438 O   0  0  0  0  0  0  0  0  0  0  0  0
  -16.2577   -4.4571   31.8469 C   0  0  2  0  0  0  0  0  0  0  0  0
  -13.5236   -9.9763   26.7315 O   0  0  0  0  0  0  0  0  0  0  0  0
  -12.6930   -7.2907   34.5001 N   0  0  0  0  0  0  0  0  0  0  0  0
  -12.4689   -6.3121   33.5518 C   0  0  0  0  0  0  0  0  0  0  0  0
  -13.5286   -5.6636   32.9463 N   0  0  0  0  0  0  0  0  0  0  0  0
  -14.8031   -5.9842   33.2733 C   0  0  0  0  0  0  0  0  0  0  0  0
  -15.0478   -6.9602   34.2315 C   0  0  0  0  0  0  0  0  0  0  0  0
  -13.9871   -7.6180   34.8423 C   0  0  0  0  0  0  0  0  0  0  0  0
  -14.2219   -8.5595   35.7531 N   0  0  0  0  0  0  0  0  0  0  0  0
  -16.3858   -7.0769   34.3715 N   0  0  0  0  0  0  0  0  0  0  0  0
  -16.9870   -6.1913   33.5426 C   0  0  0  0  0  0  0  0  0  0  0  0
  -16.0217   -5.5050   32.8543 N   0  0  0  0  0  0  0  0  0  0  0  0
  2  1  1  1  0  0  0
  2  3  1  0  0  0  0
  2  5  1  0  0  0  0
  3  4  1  0  0  0  0
  3 17  1  0  0  0  0
  5  6  1  0  0  0  0
  7  6  1  6  0  0  0
  7  8  1  0  0  0  0
  7  9  1  0  0  0  0
 10  9  1  1  0  0  0
 10 11  1  0  0  0  0
 10 12  1  0  0  0  0
 11 16  1  0  0  0  0
 12 13  1  6  0  0  0
 12 14  1  0  0  0  0
 14 15  1  6  0  0  0
 14 16  1  0  0  0  0
 16 27  1  1  0  0  0
 18 19  2  0  0  0  0
 18 23  1  0  0  0  0
 19 20  1  0  0  0  0
 20 21  2  0  0  0  0
 21 22  1  0  0  0  0
 21 27  1  0  0  0  0
 22 23  2  0  0  0  0
 22 25  1  0  0  0  0
 23 24  1  0  0  0  0
 25 26  2  0  0  0  0
 26 27  1  0  0  0  0
M  END
>  <CHROM.1>
-13.62588314,-60.76909394,-52.92045966,-93.18800331,-169.18814941,43.15520286
47.52721021,-14.24869812,-5.98081422,30.87098318,-0.49346565,-1.14647428
2.08490690

>  <Name>
ligand

>  <RI>
0

>  <Rbt.Current_Directory>
/home/itssahil/PROJECTS/Mol_Feturizer/New_Systems/rnas/3GX6

>  <Rbt.Executable>
rbdock ($Id: //depot/dev/client3/rdock/2013.1/src/exe/rbdock.cxx#4 $)

>  <Rbt.Library>
libRbt.so (2013.1, Build901 2013/11/27)

>  <Rbt.Parameter_File>
/export/apps/rDock/src/rDock_2013.1_src/data/scripts/dock_solv.prm

>  <Rbt.Receptor>
prm/pocket_docking_3.prm

>  <SCORE>
-20.6258

>  <SCORE.INTER>
-11.7476

>  <SCORE.INTER.CONST>
1

>  <SCORE.INTER.POLAR>
0

>  <SCORE.INTER.ROT>
7

>  <SCORE.INTER.SOLV>
13.5506

>  <SCORE.INTER.VDW>
-20.6152

>  <SCORE.INTER.norm>
-0.435095

>  <SCORE.INTRA>
-8.88457

>  <SCORE.INTRA.DIHEDRAL>
-8.05563

>  <SCORE.INTRA.DIHEDRAL.0>
15.0182

>  <SCORE.INTRA.POLAR>
0

>  <SCORE.INTRA.POLAR.0>
0

>  <SCORE.INTRA.REPUL>
0

>  <SCORE.INTRA.REPUL.0>
0

>  <SCORE.INTRA.SOLV>
-0.302966

>  <SCORE.INTRA.SOLV.lig_0>
-47.9129

>  <SCORE.INTRA.VDW>
-4.70527

>  <SCORE.INTRA.VDW.0>
2.00851

>  <SCORE.INTRA.norm>
-0.329058

>  <SCORE.RESTR>
0.00628596

>  <SCORE.RESTR.CAVITY>
0.00628596

>  <SCORE.RESTR.norm>
0.000232813

>  <SCORE.SYSTEM>
0

>  <SCORE.SYSTEM.CONST>
0

>  <SCORE.SYSTEM.DIHEDRAL>
0

>  <SCORE.SYSTEM.SOLV>
0

>  <SCORE.SYSTEM.norm>
0

>  <SCORE.heavy>
27

>  <SCORE.norm>
-0.76392

>  <RMSD>
5.094

$$$$
ligand
 OpenBabel11021811483D
libRbt.so/2013.1/901 2013/11/27
 27 29  0  0  0  0  0  0  0  0999 V2000
  -12.6618   -8.3501   25.1575 N   0  0  0  0  0  0  0  0  0  0  0  0
  -11.7876   -7.3968   25.8357 C   0  0  2  0  0  0  0  0  0  0  0  0
  -10.3951   -7.9736   26.0772 C   0  0  0  0  0  0  0  0  0  0  0  0
  -10.2354   -8.9876   26.7603 O   0  0  0  0  0  0  0  0  0  0  0  0
  -12.4195   -6.9074   27.1353 C   0  0  0  0  0  0  0  0  0  0  0  0
  -13.6283   -6.0106   26.9170 C   0  0  0  0  0  0  0  0  0  0  0  0
  -14.5294   -5.6144   28.4360 S   0  0  2  0  0  0  0  0  0  0  0  0
  -15.7054   -4.3891   27.8097 C   0  0  0  0  0  0  0  0  0  0  0  0
  -13.3278   -4.5526   29.2828 C   0  0  0  0  0  0  0  0  0  0  0  0
  -13.9802   -3.9306   30.5090 C   0  0  1  0  0  0  0  0  0  0  0  0
  -14.5528   -4.9620   31.2771 O   0  0  0  0  0  0  0  0  0  0  0  0
  -13.0408   -3.2200   31.4652 C   0  0  1  0  0  0  0  0  0  0  0  0
  -13.0145   -1.8336   31.2088 O   0  0  0  0  0  0  0  0  0  0  0  0
  -13.6657   -3.4864   32.8196 C   0  0  1  0  0  0  0  0  0  0  0  0
  -14.2869   -2.3052   33.2631 O   0  0  0  0  0  0  0  0  0  0  0  0
  -14.7181   -4.5678   32.6151 C   0  0  2  0  0  0  0  0  0  0  0  0
   -9.4002   -7.4309   25.5962 O   0  0  0  0  0  0  0  0  0  0  0  0
  -16.5701   -8.7775   35.1886 N   0  0  0  0  0  0  0  0  0  0  0  0
  -17.2706   -7.8820   34.4049 C   0  0  0  0  0  0  0  0  0  0  0  0
  -16.6236   -6.8216   33.7989 N   0  0  0  0  0  0  0  0  0  0  0  0
  -15.2919   -6.6451   33.9707 C   0  0  0  0  0  0  0  0  0  0  0  0
  -14.5691   -7.5410   34.7488 C   0  0  0  0  0  0  0  0  0  0  0  0
  -15.2138   -8.6077   35.3632 C   0  0  0  0  0  0  0  0  0  0  0  0
  -14.5229   -9.4602   36.1162 N   0  0  0  0  0  0  0  0  0  0  0  0
  -13.2787   -7.1430   34.7480 N   0  0  0  0  0  0  0  0  0  0  0  0
  -13.1677   -6.0346   33.9788 C   0  0  0  0  0  0  0  0  0  0  0  0
  -14.4053   -5.7116   33.4882 N   0  0  0  0  0  0  0  0  0  0  0  0
  2  1  1  1  0  0  0
  2  3  1  0  0  0  0
  2  5  1  0  0  0  0
  3  4  1  0  0  0  0
  3 17  1  0  0  0  0
  5  6  1  0  0  0  0
  7  6  1  6  0  0  0
  7  8  1  0  0  0  0
  7  9  1  0  0  0  0
 10  9  1  6  0  0  0
 10 11  1  0  0  0  0
 10 12  1  0  0  0  0
 11 16  1  0  0  0  0
 12 13  1  6  0  0  0
 12 14  1  0  0  0  0
 14 15  1  6  0  0  0
 14 16  1  0  0  0  0
 16 27  1  1  0  0  0
 18 19  2  0  0  0  0
 18 23  1  0  0  0  0
 19 20  1  0  0  0  0
 20 21  2  0  0  0  0
 21 22  1  0  0  0  0
 21 27  1  0  0  0  0
 22 23  2  0  0  0  0
 22 25  1  0  0  0  0
 23 24  1  0  0  0  0
 25 26  2  0  0  0  0
 26 27  1  0  0  0  0
M  END
>  <CHROM.1>
-60.21165437,-69.60710272,171.73409970,172.55271864,171.46851317,52.26964573
-92.03837359,-13.77690428,-6.09235622,30.81252093,-0.23824149,-1.17097248
2.84628216

>  <Name>
ligand

>  <RI>
0

>  <Rbt.Current_Directory>
/home/itssahil/PROJECTS/Mol_Feturizer/New_Systems/rnas/3GX6

>  <Rbt.Executable>
rbdock ($Id: //depot/dev/client3/rdock/2013.1/src/exe/rbdock.cxx#4 $)

>  <Rbt.Library>
libRbt.so (2013.1, Build901 2013/11/27)

>  <Rbt.Parameter_File>
/export/apps/rDock/src/rDock_2013.1_src/data/scripts/dock_solv.prm

>  <Rbt.Receptor>
prm/pocket_docking_5.prm

>  <SCORE>
-20.6722

>  <SCORE.INTER>
-11.0008

>  <SCORE.INTER.CONST>
1

>  <SCORE.INTER.POLAR>
0

>  <SCORE.INTER.ROT>
7

>  <SCORE.INTER.SOLV>
14.5083

>  <SCORE.INTER.VDW>
-20.4366

>  <SCORE.INTER.norm>
-0.407435

>  <SCORE.INTRA>
-9.67148

>  <SCORE.INTRA.DIHEDRAL>
-10.9772

>  <SCORE.INTRA.DIHEDRAL.0>
15.0182

>  <SCORE.INTRA.POLAR>
0

>  <SCORE.INTRA.POLAR.0>
0

>  <SCORE.INTRA.REPUL>
0

>  <SCORE.INTRA.REPUL.0>
0

>  <SCORE.INTRA.SOLV>
-1.23241

>  <SCORE.INTRA.SOLV.lig_0>
-47.9129

>  <SCORE.INTRA.VDW>
-3.56667

>  <SCORE.INTRA.VDW.0>
2.00851

>  <SCORE.INTRA.norm>
-0.358203

>  <SCORE.RESTR>
0

>  <SCORE.RESTR.CAVITY>
0

>  <SCORE.RESTR.norm>
0

>  <SCORE.SYSTEM>
0

>  <SCORE.SYSTEM.CONST>
0

>  <SCORE.SYSTEM.DIHEDRAL>
0

>  <SCORE.SYSTEM.SOLV>
0

>  <SCORE.SYSTEM.norm>
0

>  <SCORE.heavy>
27

>  <SCORE.norm>
-0.765638

>  <RMSD>
5.103

$$$$
ligand
 OpenBabel11021811483D
libRbt.so/2013.1/901 2013/11/27
 27 29  0  0  0  0  0  0  0  0999 V2000
  -13.4838   -6.8923   26.0710 N   0  0  0  0  0  0  0  0  0  0  0  0
  -14.4213   -5.8904   26.5714 C   0  0  2  0  0  0  0  0  0  0  0  0
  -13.9146   -5.2240   27.8478 C   0  0  0  0  0  0  0  0  0  0  0  0
  -13.4848   -5.8946   28.7890 O   0  0  0  0  0  0  0  0  0  0  0  0
  -15.8078   -6.4945   26.7726 C   0  0  0  0  0  0  0  0  0  0  0  0
  -16.8285   -5.4977   27.2994 C   0  0  0  0  0  0  0  0  0  0  0  0
  -16.8100   -5.3137   29.1000 S   0  0  2  0  0  0  0  0  0  0  0  0
  -18.4914   -5.8505   29.5020 C   0  0  0  0  0  0  0  0  0  0  0  0
  -16.9632   -3.5143   29.2643 C   0  0  0  0  0  0  0  0  0  0  0  0
  -16.4972   -3.0928   30.6505 C   0  0  1  0  0  0  0  0  0  0  0  0
  -17.2017   -3.8516   31.6042 O   0  0  0  0  0  0  0  0  0  0  0  0
  -15.0351   -3.3536   30.9609 C   0  0  1  0  0  0  0  0  0  0  0  0
  -14.2577   -2.1996   30.7316 O   0  0  0  0  0  0  0  0  0  0  0  0
  -15.0530   -3.6830   32.4398 C   0  0  1  0  0  0  0  0  0  0  0  0
  -14.5416   -2.5804   33.1474 O   0  0  0  0  0  0  0  0  0  0  0  0
  -16.5096   -3.9028   32.8254 C   0  0  2  0  0  0  0  0  0  0  0  0
  -13.9307   -3.9984   27.9633 O   0  0  0  0  0  0  0  0  0  0  0  0
  -14.0682   -8.1274   34.8172 N   0  0  0  0  0  0  0  0  0  0  0  0
  -13.5024   -6.9557   34.3547 C   0  0  0  0  0  0  0  0  0  0  0  0
  -14.2964   -5.9394   33.8578 N   0  0  0  0  0  0  0  0  0  0  0  0
  -15.6423   -6.0829   33.8140 C   0  0  0  0  0  0  0  0  0  0  0  0
  -16.2301   -7.2513   34.2828 C   0  0  0  0  0  0  0  0  0  0  0  0
  -15.4376   -8.2781   34.7813 C   0  0  0  0  0  0  0  0  0  0  0  0
  -16.0001   -9.4011   35.2215 N   0  0  0  0  0  0  0  0  0  0  0  0
  -17.5668   -7.1316   34.1331 N   0  0  0  0  0  0  0  0  0  0  0  0
  -17.8359   -5.9164   33.6006 C   0  0  0  0  0  0  0  0  0  0  0  0
  -16.6553   -5.2522   33.3965 N   0  0  0  0  0  0  0  0  0  0  0  0
  2  1  1  1  0  0  0
  2  3  1  0  0  0  0
  2  5  1  0  0  0  0
  3  4  1  0  0  0  0
  3 17  1  0  0  0  0
  5  6  1  0  0  0  0
  7  6  1  6  0  0  0
  7  8  1  0  0  0  0
  7  9  1  0  0  0  0
 10  9  1  6  0  0  0
 10 11  1  0  0  0  0
 10 12  1  0  0  0  0
 11 16  1  0  0  0  0
 12 13  1  1  0  0  0
 12 14  1  0  0  0  0
 14 15  1  1  0  0  0
 14 16  1  0  0  0  0
 16 27  1  6  0  0  0
 18 19  2  0  0  0  0
 18 23  1  0  0  0  0
 19 20  1  0  0  0  0
 20 21  2  0  0  0  0
 21 22  1  0  0  0  0
 21 27  1  0  0  0  0
 22 23  2  0  0  0  0
 22 25  1  0  0  0  0
 23 24  1  0  0  0  0
 25 26  2  0  0  0  0
 26 27  1  0  0  0  0
M  END
>  <CHROM.1>
-48.35867232,179.75754810,-84.63638597,-118.75357835,-160.71739053,-53.28213542
126.99483675,-15.62054629,-5.39795529,31.07666382,-1.13610201,-1.38953002
2.24821587

>  <Name>
ligand

>  <RI>
0

>  <Rbt.Current_Directory>
/home/itssahil/PROJECTS/Mol_Feturizer/New_Systems/rnas/3GX6

>  <Rbt.Executable>
rbdock ($Id: //depot/dev/client3/rdock/2013.1/src/exe/rbdock.cxx#4 $)

>  <Rbt.Library>
libRbt.so (2013.1, Build901 2013/11/27)

>  <Rbt.Parameter_File>
/export/apps/rDock/src/rDock_2013.1_src/data/scripts/dock_solv.prm

>  <Rbt.Receptor>
prm/pocket_docking_5.prm

>  <SCORE>
-20.2018

>  <SCORE.INTER>
-12.1323

>  <SCORE.INTER.CONST>
1

>  <SCORE.INTER.POLAR>
0

>  <SCORE.INTER.ROT>
7

>  <SCORE.INTER.SOLV>
15.7856

>  <SCORE.INTER.VDW>
-21.6167

>  <SCORE.INTER.norm>
-0.449343

>  <SCORE.INTRA>
-8.06955

>  <SCORE.INTRA.DIHEDRAL>
-3.6392

>  <SCORE.INTRA.DIHEDRAL.0>
15.0182

>  <SCORE.INTRA.POLAR>
0

>  <SCORE.INTRA.POLAR.0>
0

>  <SCORE.INTRA.REPUL>
0

>  <SCORE.INTRA.REPUL.0>
0

>  <SCORE.INTRA.SOLV>
-1.35719

>  <SCORE.INTRA.SOLV.lig_0>
-47.9129

>  <SCORE.INTRA.VDW>
-5.57135

>  <SCORE.INTRA.VDW.0>
2.00851

>  <SCORE.INTRA.norm>
-0.298872

>  <SCORE.RESTR>
0

>  <SCORE.RESTR.CAVITY>
0

>  <SCORE.RESTR.norm>
0

>  <SCORE.SYSTEM>
0

>  <SCORE.SYSTEM.CONST>
0

>  <SCORE.SYSTEM.DIHEDRAL>
0

>  <SCORE.SYSTEM.SOLV>
0

>  <SCORE.SYSTEM.norm>
0

>  <SCORE.heavy>
27

>  <SCORE.norm>
-0.748215

>  <RMSD>
5.117

$$$$
ligand
 OpenBabel11021811483D
libRbt.so/2013.1/901 2013/11/27
 27 29  0  0  0  0  0  0  0  0999 V2000
  -14.0795   -8.6490   25.5412 N   0  0  0  0  0  0  0  0  0  0  0  0
  -14.0957   -7.2310   25.1921 C   0  0  2  0  0  0  0  0  0  0  0  0
  -13.6691   -6.9960   23.7455 C   0  0  0  0  0  0  0  0  0  0  0  0
  -14.4686   -6.5765   22.9058 O   0  0  0  0  0  0  0  0  0  0  0  0
  -13.2405   -6.4214   26.1622 C   0  0  0  0  0  0  0  0  0  0  0  0
  -13.6381   -6.6106   27.6180 C   0  0  0  0  0  0  0  0  0  0  0  0
  -12.5470   -5.7669   28.7902 S   0  0  2  0  0  0  0  0  0  0  0  0
  -10.9732   -6.5796   28.4167 C   0  0  0  0  0  0  0  0  0  0  0  0
  -13.0093   -6.5846   30.3413 C   0  0  0  0  0  0  0  0  0  0  0  0
  -14.2221   -5.8852   30.9382 C   0  0  1  0  0  0  0  0  0  0  0  0
  -15.0163   -6.8509   31.5850 O   0  0  0  0  0  0  0  0  0  0  0  0
  -13.9255   -4.8549   32.0117 C   0  0  1  0  0  0  0  0  0  0  0  0
  -13.8830   -3.5556   31.4651 O   0  0  0  0  0  0  0  0  0  0  0  0
  -15.1094   -4.9864   32.9482 C   0  0  1  0  0  0  0  0  0  0  0  0
  -15.9557   -3.8802   32.7536 O   0  0  0  0  0  0  0  0  0  0  0  0
  -15.8426   -6.2621   32.5563 C   0  0  2  0  0  0  0  0  0  0  0  0
  -12.5140   -7.2271   23.3876 O   0  0  0  0  0  0  0  0  0  0  0  0
  -13.2449   -8.4176   36.6036 N   0  0  0  0  0  0  0  0  0  0  0  0
  -12.7616   -7.5447   35.6489 C   0  0  0  0  0  0  0  0  0  0  0  0
  -13.5863   -7.0734   34.6450 N   0  0  0  0  0  0  0  0  0  0  0  0
  -14.8806   -7.4666   34.5826 C   0  0  0  0  0  0  0  0  0  0  0  0
  -15.3868   -8.3377   35.5395 C   0  0  0  0  0  0  0  0  0  0  0  0
  -14.5626   -8.8175   36.5500 C   0  0  0  0  0  0  0  0  0  0  0  0
  -15.0452   -9.6593   37.4608 N   0  0  0  0  0  0  0  0  0  0  0  0
  -16.6879   -8.5578   35.2522 N   0  0  0  0  0  0  0  0  0  0  0  0
  -17.0170   -7.8375   34.1543 C   0  0  0  0  0  0  0  0  0  0  0  0
  -15.9096   -7.1545   33.7257 N   0  0  0  0  0  0  0  0  0  0  0  0
  2  1  1  1  0  0  0
  2  3  1  0  0  0  0
  2  5  1  0  0  0  0
  3  4  1  0  0  0  0
  3 17  1  0  0  0  0
  5  6  1  0  0  0  0
  7  6  1  6  0  0  0
  7  8  1  0  0  0  0
  7  9  1  0  0  0  0
 10  9  1  1  0  0  0
 10 11  1  0  0  0  0
 10 12  1  0  0  0  0
 11 16  1  0  0  0  0
 12 13  1  6  0  0  0
 12 14  1  0  0  0  0
 14 15  1  6  0  0  0
 14 16  1  0  0  0  0
 16 27  1  1  0  0  0
 18 19  2  0  0  0  0
 18 23  1  0  0  0  0
 19 20  1  0  0  0  0
 20 21  2  0  0  0  0
 21 22  1  0  0  0  0
 21 27  1  0  0  0  0
 22 23  2  0  0  0  0
 22 25  1  0  0  0  0
 23 24  1  0  0  0  0
 25 26  2  0  0  0  0
 26 27  1  0  0  0  0
M  END
>  <CHROM.1>
112.78611179,-55.32091154,175.15126015,-60.55147558,-85.34021513,145.93348713
66.93762790,-14.16507885,-6.78022445,30.88174438,0.49293880,-1.39552195,-2.55328452

>  <Name>
ligand

>  <RI>
0

>  <Rbt.Current_Directory>
/home/itssahil/PROJECTS/Mol_Feturizer/New_Systems/rnas/3GX6

>  <Rbt.Executable>
rbdock ($Id: //depot/dev/client3/rdock/2013.1/src/exe/rbdock.cxx#4 $)

>  <Rbt.Library>
libRbt.so (2013.1, Build901 2013/11/27)

>  <Rbt.Parameter_File>
/export/apps/rDock/src/rDock_2013.1_src/data/scripts/dock_solv.prm

>  <Rbt.Receptor>
prm/pocket_docking_7.prm

>  <SCORE>
-20.9092

>  <SCORE.INTER>
-12.3187

>  <SCORE.INTER.CONST>
1

>  <SCORE.INTER.POLAR>
0

>  <SCORE.INTER.ROT>
7

>  <SCORE.INTER.SOLV>
11.4684

>  <SCORE.INTER.VDW>
-20.3019

>  <SCORE.INTER.norm>
-0.456247

>  <SCORE.INTRA>
-8.5905

>  <SCORE.INTRA.DIHEDRAL>
-7.5635

>  <SCORE.INTRA.DIHEDRAL.0>
15.0182

>  <SCORE.INTRA.POLAR>
0

>  <SCORE.INTRA.POLAR.0>
0

>  <SCORE.INTRA.REPUL>
0

>  <SCORE.INTRA.REPUL.0>
0

>  <SCORE.INTRA.SOLV>
-1.00702

>  <SCORE.INTRA.SOLV.lig_0>
-47.9129

>  <SCORE.INTRA.VDW>
-4.30524

>  <SCORE.INTRA.VDW.0>
2.00851

>  <SCORE.INTRA.norm>
-0.318167

>  <SCORE.RESTR>
0

>  <SCORE.RESTR.CAVITY>
0

>  <SCORE.RESTR.norm>
0

>  <SCORE.SYSTEM>
0

>  <SCORE.SYSTEM.CONST>
0

>  <SCORE.SYSTEM.DIHEDRAL>
0

>  <SCORE.SYSTEM.SOLV>
0

>  <SCORE.SYSTEM.norm>
0

>  <SCORE.heavy>
27

>  <SCORE.norm>
-0.774413

>  <RMSD>
5.118

$$$$
ligand
 OpenBabel11021811483D
libRbt.so/2013.1/901 2013/11/27
 27 29  0  0  0  0  0  0  0  0999 V2000
  -15.0973   -8.2059   25.2368 N   0  0  0  0  0  0  0  0  0  0  0  0
  -14.3413   -6.9646   25.3803 C   0  0  2  0  0  0  0  0  0  0  0  0
  -12.8704   -7.1487   25.0165 C   0  0  0  0  0  0  0  0  0  0  0  0
  -12.1009   -7.7570   25.7636 O   0  0  0  0  0  0  0  0  0  0  0  0
  -14.4988   -6.3904   26.7851 C   0  0  0  0  0  0  0  0  0  0  0  0
  -15.8013   -5.6306   26.9828 C   0  0  0  0  0  0  0  0  0  0  0  0
  -16.1408   -5.1962   28.7069 S   0  0  2  0  0  0  0  0  0  0  0  0
  -17.2981   -3.8234   28.4777 C   0  0  0  0  0  0  0  0  0  0  0  0
  -14.6207   -4.3096   29.1447 C   0  0  0  0  0  0  0  0  0  0  0  0
  -14.8068   -3.6232   30.4903 C   0  0  1  0  0  0  0  0  0  0  0  0
  -15.6414   -4.4296   31.2870 O   0  0  0  0  0  0  0  0  0  0  0  0
  -13.5476   -3.4442   31.3175 C   0  0  1  0  0  0  0  0  0  0  0  0
  -13.0011   -2.1576   31.1313 O   0  0  0  0  0  0  0  0  0  0  0  0
  -14.0484   -3.5955   32.7396 C   0  0  1  0  0  0  0  0  0  0  0  0
  -14.0821   -2.3229   33.3372 O   0  0  0  0  0  0  0  0  0  0  0  0
  -15.4625   -4.1534   32.6525 C   0  0  2  0  0  0  0  0  0  0  0  0
  -12.4219   -6.6861   23.9675 O   0  0  0  0  0  0  0  0  0  0  0  0
  -12.7579   -8.0918   34.8770 N   0  0  0  0  0  0  0  0  0  0  0  0
  -12.2630   -6.9902   34.2074 C   0  0  0  0  0  0  0  0  0  0  0  0
  -13.1210   -6.0447   33.6782 N   0  0  0  0  0  0  0  0  0  0  0  0
  -14.4613   -6.1901   33.8064 C   0  0  0  0  0  0  0  0  0  0  0  0
  -14.9773   -7.2876   34.4844 C   0  0  0  0  0  0  0  0  0  0  0  0
  -14.1204   -8.2434   35.0166 C   0  0  0  0  0  0  0  0  0  0  0  0
  -14.6152   -9.2995   35.6576 N   0  0  0  0  0  0  0  0  0  0  0  0
  -16.3238   -7.1857   34.4736 N   0  0  0  0  0  0  0  0  0  0  0  0
  -16.6669   -6.0484   33.8243 C   0  0  0  0  0  0  0  0  0  0  0  0
  -15.5255   -5.4181   33.4042 N   0  0  0  0  0  0  0  0  0  0  0  0
  2  1  1  1  0  0  0
  2  3  1  0  0  0  0
  2  5  1  0  0  0  0
  3  4  1  0  0  0  0
  3 17  1  0  0  0  0
  5  6  1  0  0  0  0
  7  6  1  6  0  0  0
  7  8  1  0  0  0  0
  7  9  1  0  0  0  0
 10  9  1  6  0  0  0
 10 11  1  0  0  0  0
 10 12  1  0  0  0  0
 11 16  1  0  0  0  0
 12 13  1  1  0  0  0
 12 14  1  0  0  0  0
 14 15  1  6  0  0  0
 14 16  1  0  0  0  0
 16 27  1  1  0  0  0
 18 19  2  0  0  0  0
 18 23  1  0  0  0  0
 19 20  1  0  0  0  0
 20 21  2  0  0  0  0
 21 22  1  0  0  0  0
 21 27  1  0  0  0  0
 22 23  2  0  0  0  0
 22 25  1  0  0  0  0
 23 24  1  0  0  0  0
 25 26  2  0  0  0  0
 26 27  1  0  0  0  0
M  END
>  <CHROM.1>
-73.21722102,-80.11074087,169.78170783,158.47245766,169.33332336,33.74442192
96.04793682,-14.53382233,-5.72129850,30.60652003,-1.40918123,-1.29347675
1.70186011

>  <Name>
ligand

>  <RI>
0

>  <Rbt.Current_Directory>
/home/itssahil/PROJECTS/Mol_Feturizer/New_Systems/rnas/3GX6

>  <Rbt.Executable>
rbdock ($Id: //depot/dev/client3/rdock/2013.1/src/exe/rbdock.cxx#4 $)

>  <Rbt.Library>
libRbt.so (2013.1, Build901 2013/11/27)

>  <Rbt.Parameter_File>
/export/apps/rDock/src/rDock_2013.1_src/data/scripts/dock_solv.prm

>  <Rbt.Receptor>
prm/pocket_docking_4.prm

>  <SCORE>
-19.2814

>  <SCORE.INTER>
-12.4007

>  <SCORE.INTER.CONST>
1

>  <SCORE.INTER.POLAR>
0

>  <SCORE.INTER.ROT>
7

>  <SCORE.INTER.SOLV>
16.0848

>  <SCORE.INTER.VDW>
-21.8954

>  <SCORE.INTER.norm>
-0.459284

>  <SCORE.INTRA>
-6.88883

>  <SCORE.INTRA.DIHEDRAL>
-7.34424

>  <SCORE.INTRA.DIHEDRAL.0>
15.0182

>  <SCORE.INTRA.POLAR>
0

>  <SCORE.INTRA.POLAR.0>
0

>  <SCORE.INTRA.REPUL>
0

>  <SCORE.INTRA.REPUL.0>
0

>  <SCORE.INTRA.SOLV>
-1.22194

>  <SCORE.INTRA.SOLV.lig_0>
-47.9129

>  <SCORE.INTRA.VDW>
-2.60574

>  <SCORE.INTRA.VDW.0>
2.00851

>  <SCORE.INTRA.norm>
-0.255142

>  <SCORE.RESTR>
0.0081079

>  <SCORE.RESTR.CAVITY>
0.0081079

>  <SCORE.RESTR.norm>
0.000300293

>  <SCORE.SYSTEM>
0

>  <SCORE.SYSTEM.CONST>
0

>  <SCORE.SYSTEM.DIHEDRAL>
0

>  <SCORE.SYSTEM.SOLV>
0

>  <SCORE.SYSTEM.norm>
0

>  <SCORE.heavy>
27

>  <SCORE.norm>
-0.714126

>  <RMSD>
5.130

$$$$
ligand
 OpenBabel11021811483D
libRbt.so/2013.1/901 2013/11/27
 27 29  0  0  0  0  0  0  0  0999 V2000
  -11.6259   -6.0332   29.9981 N   0  0  0  0  0  0  0  0  0  0  0  0
  -12.4916   -7.1262   29.5635 C   0  0  2  0  0  0  0  0  0  0  0  0
  -12.0925   -8.4555   30.1987 C   0  0  0  0  0  0  0  0  0  0  0  0
  -11.0880   -9.0644   29.8237 O   0  0  0  0  0  0  0  0  0  0  0  0
  -12.5218   -7.2245   28.0412 C   0  0  0  0  0  0  0  0  0  0  0  0
  -13.0337   -5.9615   27.3660 C   0  0  0  0  0  0  0  0  0  0  0  0
  -14.6272   -5.3856   28.0027 S   0  0  2  0  0  0  0  0  0  0  0  0
  -15.2133   -4.4156   26.5913 C   0  0  0  0  0  0  0  0  0  0  0  0
  -14.0922   -4.0752   29.1363 C   0  0  0  0  0  0  0  0  0  0  0  0
  -15.2518   -3.6880   30.0428 C   0  0  1  0  0  0  0  0  0  0  0  0
  -15.7349   -4.8540   30.6663 O   0  0  0  0  0  0  0  0  0  0  0  0
  -14.9076   -2.7571   31.1904 C   0  0  1  0  0  0  0  0  0  0  0  0
  -15.1826   -1.4161   30.8514 O   0  0  0  0  0  0  0  0  0  0  0  0
  -15.8390   -3.2159   32.2940 C   0  0  1  0  0  0  0  0  0  0  0  0
  -16.8704   -2.2692   32.4278 O   0  0  0  0  0  0  0  0  0  0  0  0
  -16.4270   -4.5483   31.8497 C   0  0  2  0  0  0  0  0  0  0  0  0
  -12.7727   -8.9492   31.0982 O   0  0  0  0  0  0  0  0  0  0  0  0
  -12.6556   -7.1336   34.4703 N   0  0  0  0  0  0  0  0  0  0  0  0
  -12.5063   -6.1504   33.5122 C   0  0  0  0  0  0  0  0  0  0  0  0
  -13.6128   -5.5739   32.9177 N   0  0  0  0  0  0  0  0  0  0  0  0
  -14.8601   -5.9707   33.2653 C   0  0  0  0  0  0  0  0  0  0  0  0
  -15.0300   -6.9526   34.2336 C   0  0  0  0  0  0  0  0  0  0  0  0
  -13.9218   -7.5384   34.8334 C   0  0  0  0  0  0  0  0  0  0  0  0
  -14.0846   -8.4856   35.7539 N   0  0  0  0  0  0  0  0  0  0  0  0
  -16.3560   -7.1514   34.3937 N   0  0  0  0  0  0  0  0  0  0  0  0
  -17.0229   -6.3115   33.5676 C   0  0  0  0  0  0  0  0  0  0  0  0
  -16.1120   -5.5716   32.8607 N   0  0  0  0  0  0  0  0  0  0  0  0
  2  1  1  6  0  0  0
  2  3  1  0  0  0  0
  2  5  1  0  0  0  0
  3  4  1  0  0  0  0
  3 17  1  0  0  0  0
  5  6  1  0  0  0  0
  7  6  1  6  0  0  0
  7  8  1  0  0  0  0
  7  9  1  0  0  0  0
 10  9  1  1  0  0  0
 10 11  1  0  0  0  0
 10 12  1  0  0  0  0
 11 16  1  0  0  0  0
 12 13  1  6  0  0  0
 12 14  1  0  0  0  0
 14 15  1  6  0  0  0
 14 16  1  0  0  0  0
 16 27  1  1  0  0  0
 18 19  2  0  0  0  0
 18 23  1  0  0  0  0
 19 20  1  0  0  0  0
 20 21  2  0  0  0  0
 21 22  1  0  0  0  0
 21 27  1  0  0  0  0
 22 23  2  0  0  0  0
 22 25  1  0  0  0  0
 23 24  1  0  0  0  0
 25 26  2  0  0  0  0
 26 27  1  0  0  0  0
M  END
>  <CHROM.1>
-74.26874487,-59.81799732,-52.24493654,-156.82414703,-165.85906727,53.93508962
52.98816254,-14.30539881,-5.73893655,31.20801593,-1.40919138,-0.89751806
1.98432458

>  <Name>
ligand

>  <RI>
0

>  <Rbt.Current_Directory>
/home/itssahil/PROJECTS/Mol_Feturizer/New_Systems/rnas/3GX6

>  <Rbt.Executable>
rbdock ($Id: //depot/dev/client3/rdock/2013.1/src/exe/rbdock.cxx#4 $)

>  <Rbt.Library>
libRbt.so (2013.1, Build901 2013/11/27)

>  <Rbt.Parameter_File>
/export/apps/rDock/src/rDock_2013.1_src/data/scripts/dock_solv.prm

>  <Rbt.Receptor>
prm/pocket_docking_4.prm

>  <SCORE>
-20.282

>  <SCORE.INTER>
-11.0924

>  <SCORE.INTER.CONST>
1

>  <SCORE.INTER.POLAR>
0

>  <SCORE.INTER.ROT>
7

>  <SCORE.INTER.SOLV>
16.4882

>  <SCORE.INTER.VDW>
-21.1577

>  <SCORE.INTER.norm>
-0.410828

>  <SCORE.INTRA>
-9.18965

>  <SCORE.INTRA.DIHEDRAL>
-7.7875

>  <SCORE.INTRA.DIHEDRAL.0>
15.0182

>  <SCORE.INTRA.POLAR>
0

>  <SCORE.INTRA.POLAR.0>
0

>  <SCORE.INTRA.REPUL>
0

>  <SCORE.INTRA.REPUL.0>
0

>  <SCORE.INTRA.SOLV>
1.30998

>  <SCORE.INTRA.SOLV.lig_0>
-47.9129

>  <SCORE.INTRA.VDW>
-5.95089

>  <SCORE.INTRA.VDW.0>
2.00851

>  <SCORE.INTRA.norm>
-0.340357

>  <SCORE.RESTR>
0

>  <SCORE.RESTR.CAVITY>
0

>  <SCORE.RESTR.norm>
0

>  <SCORE.SYSTEM>
0

>  <SCORE.SYSTEM.CONST>
0

>  <SCORE.SYSTEM.DIHEDRAL>
0

>  <SCORE.SYSTEM.SOLV>
0

>  <SCORE.SYSTEM.norm>
0

>  <SCORE.heavy>
27

>  <SCORE.norm>
-0.751186

>  <RMSD>
5.132

$$$$
ligand
 OpenBabel11021811483D
libRbt.so/2013.1/901 2013/11/27
 27 29  0  0  0  0  0  0  0  0999 V2000
  -13.3429   -9.1142   31.6725 N   0  0  0  0  0  0  0  0  0  0  0  0
  -12.9955   -8.3871   30.4544 C   0  0  2  0  0  0  0  0  0  0  0  0
  -12.1624   -9.2394   29.5008 C   0  0  0  0  0  0  0  0  0  0  0  0
  -12.6901  -10.0887   28.7794 O   0  0  0  0  0  0  0  0  0  0  0  0
  -12.2918   -7.0745   30.7857 C   0  0  0  0  0  0  0  0  0  0  0  0
  -12.3890   -6.0415   29.6737 C   0  0  0  0  0  0  0  0  0  0  0  0
  -14.0620   -5.4015   29.4134 S   0  0  2  0  0  0  0  0  0  0  0  0
  -14.1838   -5.5248   27.6116 C   0  0  0  0  0  0  0  0  0  0  0  0
  -13.7879   -3.6220   29.6297 C   0  0  0  0  0  0  0  0  0  0  0  0
  -13.6912   -3.3033   31.1147 C   0  0  1  0  0  0  0  0  0  0  0  0
  -14.8195   -3.8458   31.7584 O   0  0  0  0  0  0  0  0  0  0  0  0
  -12.5076   -3.9123   31.8428 C   0  0  1  0  0  0  0  0  0  0  0  0
  -11.4435   -2.9914   31.9333 O   0  0  0  0  0  0  0  0  0  0  0  0
  -13.0655   -4.1993   33.2221 C   0  0  1  0  0  0  0  0  0  0  0  0
  -12.5509   -3.2448   34.1176 O   0  0  0  0  0  0  0  0  0  0  0  0
  -14.5774   -4.0440   33.1277 C   0  0  2  0  0  0  0  0  0  0  0  0
  -10.9411   -9.0971   29.4380 O   0  0  0  0  0  0  0  0  0  0  0  0
  -13.9645   -8.7215   35.4773 N   0  0  0  0  0  0  0  0  0  0  0  0
  -13.0160   -7.7381   35.2768 C   0  0  0  0  0  0  0  0  0  0  0  0
  -13.3486   -6.5608   34.6338 N   0  0  0  0  0  0  0  0  0  0  0  0
  -14.6111   -6.3588   34.1874 C   0  0  0  0  0  0  0  0  0  0  0  0
  -15.5809   -7.3334   34.3878 C   0  0  0  0  0  0  0  0  0  0  0  0
  -15.2527   -8.5206   35.0311 C   0  0  0  0  0  0  0  0  0  0  0  0
  -16.1795   -9.4580   35.2145 N   0  0  0  0  0  0  0  0  0  0  0  0
  -16.7384   -6.8808   33.8597 N   0  0  0  0  0  0  0  0  0  0  0  0
  -16.5277   -5.6446   33.3498 C   0  0  0  0  0  0  0  0  0  0  0  0
  -15.2150   -5.3044   33.5442 N   0  0  0  0  0  0  0  0  0  0  0  0
  2  1  1  1  0  0  0
  2  3  1  0  0  0  0
  2  5  1  0  0  0  0
  3  4  1  0  0  0  0
  3 17  1  0  0  0  0
  5  6  1  0  0  0  0
  7  6  1  6  0  0  0
  7  8  1  0  0  0  0
  7  9  1  0  0  0  0
 10  9  1  6  0  0  0
 10 11  1  0  0  0  0
 10 12  1  0  0  0  0
 11 16  1  0  0  0  0
 12 13  1  1  0  0  0
 12 14  1  0  0  0  0
 14 15  1  1  0  0  0
 14 16  1  0  0  0  0
 16 27  1  6  0  0  0
 18 19  2  0  0  0  0
 18 23  1  0  0  0  0
 19 20  1  0  0  0  0
 20 21  2  0  0  0  0
 21 22  1  0  0  0  0
 21 27  1  0  0  0  0
 22 23  2  0  0  0  0
 22 25  1  0  0  0  0
 23 24  1  0  0  0  0
 25 26  2  0  0  0  0
 26 27  1  0  0  0  0
M  END
>  <CHROM.1>
79.16362307,-157.31316685,68.08252381,-132.92465114,-78.29130161,-52.18709319
126.14750013,-13.73894163,-6.28401503,31.97985444,-0.16075765,-1.19712222
3.11581270

>  <Name>
ligand

>  <RI>
0

>  <Rbt.Current_Directory>
/home/itssahil/PROJECTS/Mol_Feturizer/New_Systems/rnas/3GX6

>  <Rbt.Executable>
rbdock ($Id: //depot/dev/client3/rdock/2013.1/src/exe/rbdock.cxx#4 $)

>  <Rbt.Library>
libRbt.so (2013.1, Build901 2013/11/27)

>  <Rbt.Parameter_File>
/export/apps/rDock/src/rDock_2013.1_src/data/scripts/dock_solv.prm

>  <Rbt.Receptor>
prm/pocket_docking_3.prm

>  <SCORE>
-20.986

>  <SCORE.INTER>
-13.2638

>  <SCORE.INTER.CONST>
1

>  <SCORE.INTER.POLAR>
0

>  <SCORE.INTER.ROT>
7

>  <SCORE.INTER.SOLV>
17.4269

>  <SCORE.INTER.VDW>
-22.9182

>  <SCORE.INTER.norm>
-0.491251

>  <SCORE.INTRA>
-7.72223

>  <SCORE.INTRA.DIHEDRAL>
-5.03526

>  <SCORE.INTRA.DIHEDRAL.0>
15.0182

>  <SCORE.INTRA.POLAR>
0

>  <SCORE.INTRA.POLAR.0>
0

>  <SCORE.INTRA.REPUL>
0

>  <SCORE.INTRA.REPUL.0>
0

>  <SCORE.INTRA.SOLV>
-0.793963

>  <SCORE.INTRA.SOLV.lig_0>
-47.9129

>  <SCORE.INTRA.VDW>
-4.80762

>  <SCORE.INTRA.VDW.0>
2.00851

>  <SCORE.INTRA.norm>
-0.286009

>  <SCORE.RESTR>
0

>  <SCORE.RESTR.CAVITY>
0

>  <SCORE.RESTR.norm>
0

>  <SCORE.SYSTEM>
0

>  <SCORE.SYSTEM.CONST>
0

>  <SCORE.SYSTEM.DIHEDRAL>
0

>  <SCORE.SYSTEM.SOLV>
0

>  <SCORE.SYSTEM.norm>
0

>  <SCORE.heavy>
27

>  <SCORE.norm>
-0.77726

>  <RMSD>
5.142

$$$$
ligand
 OpenBabel11021811483D
libRbt.so/2013.1/901 2013/11/27
 27 29  0  0  0  0  0  0  0  0999 V2000
  -11.6727   -9.5122   26.9097 N   0  0  0  0  0  0  0  0  0  0  0  0
  -11.1850   -9.0987   28.2228 C   0  0  2  0  0  0  0  0  0  0  0  0
  -12.2402   -9.2917   29.3087 C   0  0  0  0  0  0  0  0  0  0  0  0
  -12.0014   -9.0126   30.4857 O   0  0  0  0  0  0  0  0  0  0  0  0
  -10.6805   -7.6592   28.1878 C   0  0  0  0  0  0  0  0  0  0  0  0
  -11.7025   -6.6758   27.6387 C   0  0  0  0  0  0  0  0  0  0  0  0
  -13.1330   -6.4270   28.7195 S   0  0  2  0  0  0  0  0  0  0  0  0
  -13.8918   -4.9844   27.9325 C   0  0  0  0  0  0  0  0  0  0  0  0
  -12.3446   -5.6687   30.1658 C   0  0  0  0  0  0  0  0  0  0  0  0
  -13.3658   -4.8207   30.9103 C   0  0  1  0  0  0  0  0  0  0  0  0
  -14.3959   -5.6657   31.3648 O   0  0  0  0  0  0  0  0  0  0  0  0
  -12.8597   -4.1294   32.1624 C   0  0  1  0  0  0  0  0  0  0  0  0
  -12.4782   -2.8004   31.8851 O   0  0  0  0  0  0  0  0  0  0  0  0
  -14.0702   -4.1433   33.0737 C   0  0  1  0  0  0  0  0  0  0  0  0
  -14.6090   -2.8450   33.1176 O   0  0  0  0  0  0  0  0  0  0  0  0
  -15.0829   -5.0927   32.4477 C   0  0  2  0  0  0  0  0  0  0  0  0
  -13.3533   -9.7369   29.0284 O   0  0  0  0  0  0  0  0  0  0  0  0
  -13.2396   -8.5719   35.9510 N   0  0  0  0  0  0  0  0  0  0  0  0
  -12.5233   -7.6751   35.1831 C   0  0  0  0  0  0  0  0  0  0  0  0
  -13.1707   -6.8278   34.3038 N   0  0  0  0  0  0  0  0  0  0  0  0
  -14.5187   -6.8702   34.1811 C   0  0  0  0  0  0  0  0  0  0  0  0
  -15.2568   -7.7600   34.9518 C   0  0  0  0  0  0  0  0  0  0  0  0
  -14.6122   -8.6166   35.8358 C   0  0  0  0  0  0  0  0  0  0  0  0
  -15.3185   -9.4754   36.5670 N   0  0  0  0  0  0  0  0  0  0  0  0
  -16.5608   -7.5924   34.6433 N   0  0  0  0  0  0  0  0  0  0  0  0
  -16.6639   -6.6123   33.7151 C   0  0  0  0  0  0  0  0  0  0  0  0
  -15.4083   -6.1526   33.4169 N   0  0  0  0  0  0  0  0  0  0  0  0
  2  1  1  6  0  0  0
  2  3  1  0  0  0  0
  2  5  1  0  0  0  0
  3  4  1  0  0  0  0
  3 17  1  0  0  0  0
  5  6  1  0  0  0  0
  7  6  1  6  0  0  0
  7  8  1  0  0  0  0
  7  9  1  0  0  0  0
 10  9  1  1  0  0  0
 10 11  1  0  0  0  0
 10 12  1  0  0  0  0
 11 16  1  0  0  0  0
 12 13  1  6  0  0  0
 12 14  1  0  0  0  0
 14 15  1  6  0  0  0
 14 16  1  0  0  0  0
 16 27  1  1  0  0  0
 18 19  2  0  0  0  0
 18 23  1  0  0  0  0
 19 20  1  0  0  0  0
 20 21  2  0  0  0  0
 21 22  1  0  0  0  0
 21 27  1  0  0  0  0
 22 23  2  0  0  0  0
 22 25  1  0  0  0  0
 23 24  1  0  0  0  0
 25 26  2  0  0  0  0
 26 27  1  0  0  0  0
M  END
>  <CHROM.1>
179.05652309,53.73779223,68.66678160,168.28993981,154.48994631,62.33020681
67.23370372,-13.52413987,-6.74827526,31.63455872,-0.24948904,-1.17534354
2.78937533

>  <Name>
ligand

>  <RI>
0

>  <Rbt.Current_Directory>
/home/itssahil/PROJECTS/Mol_Feturizer/New_Systems/rnas/3GX6

>  <Rbt.Executable>
rbdock ($Id: //depot/dev/client3/rdock/2013.1/src/exe/rbdock.cxx#4 $)

>  <Rbt.Library>
libRbt.so (2013.1, Build901 2013/11/27)

>  <Rbt.Parameter_File>
/export/apps/rDock/src/rDock_2013.1_src/data/scripts/dock_solv.prm

>  <Rbt.Receptor>
prm/pocket_docking_6.prm

>  <SCORE>
-24.0597

>  <SCORE.INTER>
-14.2675

>  <SCORE.INTER.CONST>
1

>  <SCORE.INTER.POLAR>
0

>  <SCORE.INTER.ROT>
7

>  <SCORE.INTER.SOLV>
14.01

>  <SCORE.INTER.VDW>
-22.4483

>  <SCORE.INTER.norm>
-0.528425

>  <SCORE.INTRA>
-9.79226

>  <SCORE.INTRA.DIHEDRAL>
-10.5175

>  <SCORE.INTRA.DIHEDRAL.0>
15.0182

>  <SCORE.INTRA.POLAR>
0

>  <SCORE.INTRA.POLAR.0>
0

>  <SCORE.INTRA.REPUL>
0

>  <SCORE.INTRA.REPUL.0>
0

>  <SCORE.INTRA.SOLV>
-0.352329

>  <SCORE.INTRA.SOLV.lig_0>
-47.9129

>  <SCORE.INTRA.VDW>
-4.35737

>  <SCORE.INTRA.VDW.0>
2.00851

>  <SCORE.INTRA.norm>
-0.362676

>  <SCORE.RESTR>
0

>  <SCORE.RESTR.CAVITY>
0

>  <SCORE.RESTR.norm>
0

>  <SCORE.SYSTEM>
0

>  <SCORE.SYSTEM.CONST>
0

>  <SCORE.SYSTEM.DIHEDRAL>
0

>  <SCORE.SYSTEM.SOLV>
0

>  <SCORE.SYSTEM.norm>
0

>  <SCORE.heavy>
27

>  <SCORE.norm>
-0.891102

>  <RMSD>
5.155

$$$$
ligand
 OpenBabel11021811483D
libRbt.so/2013.1/901 2013/11/27
 27 29  0  0  0  0  0  0  0  0999 V2000
  -13.8569   -6.8761   26.2774 N   0  0  0  0  0  0  0  0  0  0  0  0
  -13.1807   -5.9616   27.1935 C   0  0  2  0  0  0  0  0  0  0  0  0
  -11.8120   -6.4884   27.6167 C   0  0  0  0  0  0  0  0  0  0  0  0
  -11.2206   -6.0154   28.5898 O   0  0  0  0  0  0  0  0  0  0  0  0
  -14.0575   -5.6566   28.4043 C   0  0  0  0  0  0  0  0  0  0  0  0
  -15.3486   -4.9365   28.0471 C   0  0  0  0  0  0  0  0  0  0  0  0
  -16.5351   -4.8416   29.4108 S   0  0  2  0  0  0  0  0  0  0  0  0
  -18.0877   -4.7262   28.4874 C   0  0  0  0  0  0  0  0  0  0  0  0
  -16.3107   -3.1229   29.9440 C   0  0  0  0  0  0  0  0  0  0  0  0
  -15.3438   -3.0813   31.1186 C   0  0  1  0  0  0  0  0  0  0  0  0
  -15.9390   -3.7485   32.2059 O   0  0  0  0  0  0  0  0  0  0  0  0
  -14.0227   -3.7973   30.9092 C   0  0  1  0  0  0  0  0  0  0  0  0
  -13.0189   -2.8941   30.5028 O   0  0  0  0  0  0  0  0  0  0  0  0
  -13.7060   -4.3407   32.2878 C   0  0  1  0  0  0  0  0  0  0  0  0
  -12.6795   -3.5600   32.8487 O   0  0  0  0  0  0  0  0  0  0  0  0
  -14.9711   -4.1918   33.1222 C   0  0  2  0  0  0  0  0  0  0  0  0
  -11.2685   -7.3965   26.9878 O   0  0  0  0  0  0  0  0  0  0  0  0
  -13.4041   -8.7165   35.3236 N   0  0  0  0  0  0  0  0  0  0  0  0
  -12.6322   -7.6243   34.9796 C   0  0  0  0  0  0  0  0  0  0  0  0
  -13.2094   -6.5088   34.4029 N   0  0  0  0  0  0  0  0  0  0  0  0
  -14.5419   -6.4752   34.1633 C   0  0  0  0  0  0  0  0  0  0  0  0
  -15.3357   -7.5614   34.5106 C   0  0  0  0  0  0  0  0  0  0  0  0
  -14.7616   -8.6872   35.0883 C   0  0  0  0  0  0  0  0  0  0  0  0
  -15.5207   -9.7313   35.4121 N   0  0  0  0  0  0  0  0  0  0  0  0
  -16.6102   -7.2672   34.1749 N   0  0  0  0  0  0  0  0  0  0  0  0
  -16.6419   -6.0224   33.6435 C   0  0  0  0  0  0  0  0  0  0  0  0
  -15.3691   -5.5159   33.6288 N   0  0  0  0  0  0  0  0  0  0  0  0
  2  1  1  6  0  0  0
  2  3  1  0  0  0  0
  2  5  1  0  0  0  0
  3  4  1  0  0  0  0
  3 17  1  0  0  0  0
  5  6  1  0  0  0  0
  7  6  1  6  0  0  0
  7  8  1  0  0  0  0
  7  9  1  0  0  0  0
 10  9  1  6  0  0  0
 10 11  1  0  0  0  0
 10 12  1  0  0  0  0
 11 16  1  0  0  0  0
 12 13  1  1  0  0  0
 12 14  1  0  0  0  0
 14 15  1  1  0  0  0
 14 16  1  0  0  0  0
 16 27  1  6  0  0  0
 18 19  2  0  0  0  0
 18 23  1  0  0  0  0
 19 20  1  0  0  0  0
 20 21  2  0  0  0  0
 21 22  1  0  0  0  0
 21 27  1  0  0  0  0
 22 23  2  0  0  0  0
 22 25  1  0  0  0  0
 23 24  1  0  0  0  0
 25 26  2  0  0  0  0
 26 27  1  0  0  0  0
M  END
>  <CHROM.1>
-164.26006160,-63.31405462,169.18968429,-153.48376517,-96.41247179,-64.98853801
156.53696883,-14.49481866,-5.67261408,31.26984259,-1.41565284,-0.68365763
1.95033379

>  <Name>
ligand

>  <RI>
0

>  <Rbt.Current_Directory>
/home/itssahil/PROJECTS/Mol_Feturizer/New_Systems/rnas/3GX6

>  <Rbt.Executable>
rbdock ($Id: //depot/dev/client3/rdock/2013.1/src/exe/rbdock.cxx#4 $)

>  <Rbt.Library>
libRbt.so (2013.1, Build901 2013/11/27)

>  <Rbt.Parameter_File>
/export/apps/rDock/src/rDock_2013.1_src/data/scripts/dock_solv.prm

>  <Rbt.Receptor>
prm/pocket_docking_3.prm

>  <SCORE>
-20.4415

>  <SCORE.INTER>
-12.3458

>  <SCORE.INTER.CONST>
1

>  <SCORE.INTER.POLAR>
0

>  <SCORE.INTER.ROT>
7

>  <SCORE.INTER.SOLV>
14.8519

>  <SCORE.INTER.VDW>
-21.4479

>  <SCORE.INTER.norm>
-0.457254

>  <SCORE.INTRA>
-8.0957

>  <SCORE.INTRA.DIHEDRAL>
-6.60776

>  <SCORE.INTRA.DIHEDRAL.0>
15.0182

>  <SCORE.INTRA.POLAR>
0

>  <SCORE.INTRA.POLAR.0>
0

>  <SCORE.INTRA.REPUL>
0

>  <SCORE.INTRA.REPUL.0>
0

>  <SCORE.INTRA.SOLV>
-0.649034

>  <SCORE.INTRA.SOLV.lig_0>
-47.9129

>  <SCORE.INTRA.VDW>
-4.4673

>  <SCORE.INTRA.VDW.0>
2.00851

>  <SCORE.INTRA.norm>
-0.299841

>  <SCORE.RESTR>
0

>  <SCORE.RESTR.CAVITY>
0

>  <SCORE.RESTR.norm>
0

>  <SCORE.SYSTEM>
0

>  <SCORE.SYSTEM.CONST>
0

>  <SCORE.SYSTEM.DIHEDRAL>
0

>  <SCORE.SYSTEM.SOLV>
0

>  <SCORE.SYSTEM.norm>
0

>  <SCORE.heavy>
27

>  <SCORE.norm>
-0.757094

>  <RMSD>
5.159

$$$$
ligand
 OpenBabel11021811483D
libRbt.so/2013.1/901 2013/11/27
 27 29  0  0  0  0  0  0  0  0999 V2000
  -17.1335   -5.1107   29.5857 N   0  0  0  0  0  0  0  0  0  0  0  0
  -16.3201   -3.9121   29.3999 C   0  0  2  0  0  0  0  0  0  0  0  0
  -15.0635   -4.1982   28.5819 C   0  0  0  0  0  0  0  0  0  0  0  0
  -14.0339   -4.6119   29.1197 O   0  0  0  0  0  0  0  0  0  0  0  0
  -15.9760   -3.2740   30.7424 C   0  0  0  0  0  0  0  0  0  0  0  0
  -15.3567   -4.2490   31.7318 C   0  0  0  0  0  0  0  0  0  0  0  0
  -14.3269   -3.4573   32.9923 S   0  0  2  0  0  0  0  0  0  0  0  0
  -13.3484   -2.3372   31.9605 C   0  0  0  0  0  0  0  0  0  0  0  0
  -13.1235   -4.7713   33.3295 C   0  0  0  0  0  0  0  0  0  0  0  0
  -13.8591   -6.0259   33.7783 C   0  0  1  0  0  0  0  0  0  0  0  0
  -14.5610   -6.5463   32.6746 O   0  0  0  0  0  0  0  0  0  0  0  0
  -12.9814   -7.1715   34.2462 C   0  0  1  0  0  0  0  0  0  0  0  0
  -12.8535   -7.1673   35.6506 O   0  0  0  0  0  0  0  0  0  0  0  0
  -13.7513   -8.3972   33.7980 C   0  0  1  0  0  0  0  0  0  0  0  0
  -14.3473   -8.9859   34.9276 O   0  0  0  0  0  0  0  0  0  0  0  0
  -14.8361   -7.9131   32.8455 C   0  0  2  0  0  0  0  0  0  0  0  0
  -15.0533   -4.0151   27.3645 O   0  0  0  0  0  0  0  0  0  0  0  0
  -11.9973   -8.3562   28.4273 N   0  0  0  0  0  0  0  0  0  0  0  0
  -11.7818   -7.5102   29.4972 C   0  0  0  0  0  0  0  0  0  0  0  0
  -12.6333   -7.5217   30.5857 N   0  0  0  0  0  0  0  0  0  0  0  0
  -13.6949   -8.3619   30.6142 C   0  0  0  0  0  0  0  0  0  0  0  0
  -13.9228   -9.2265   29.5506 C   0  0  0  0  0  0  0  0  0  0  0  0
  -13.0722   -9.2183   28.4518 C   0  0  0  0  0  0  0  0  0  0  0  0
  -13.2962  -10.0397   27.4290 N   0  0  0  0  0  0  0  0  0  0  0  0
  -15.0270   -9.9502   29.8344 N   0  0  0  0  0  0  0  0  0  0  0  0
  -15.4882   -9.5777   31.0514 C   0  0  0  0  0  0  0  0  0  0  0  0
  -14.6749   -8.5946   31.5501 N   0  0  0  0  0  0  0  0  0  0  0  0
  2  1  1  1  0  0  0
  2  3  1  0  0  0  0
  2  5  1  0  0  0  0
  3  4  1  0  0  0  0
  3 17  1  0  0  0  0
  5  6  1  0  0  0  0
  7  6  1  6  0  0  0
  7  8  1  0  0  0  0
  7  9  1  0  0  0  0
 10  9  1  6  0  0  0
 10 11  1  0  0  0  0
 10 12  1  0  0  0  0
 11 16  1  0  0  0  0
 12 13  1  1  0  0  0
 12 14  1  0  0  0  0
 14 15  1  1  0  0  0
 14 16  1  0  0  0  0
 16 27  1  6  0  0  0
 18 19  2  0  0  0  0
 18 23  1  0  0  0  0
 19 20  1  0  0  0  0
 20 21  2  0  0  0  0
 21 22  1  0  0  0  0
 21 27  1  0  0  0  0
 22 23  2  0  0  0  0
 22 25  1  0  0  0  0
 23 24  1  0  0  0  0
 25 26  2  0  0  0  0
 26 27  1  0  0  0  0
M  END
>  <CHROM.1>
-85.78418471,52.38544858,155.44271403,-46.36224768,-57.82784302,69.54428551
40.15301403,-14.18039056,-6.47258723,31.23587250,2.38100217,-1.33114327,1.13442110

>  <Name>
ligand

>  <RI>
0

>  <Rbt.Current_Directory>
/home/itssahil/PROJECTS/Mol_Feturizer/New_Systems/rnas/3GX6

>  <Rbt.Executable>
rbdock ($Id: //depot/dev/client3/rdock/2013.1/src/exe/rbdock.cxx#4 $)

>  <Rbt.Library>
libRbt.so (2013.1, Build901 2013/11/27)

>  <Rbt.Parameter_File>
/export/apps/rDock/src/rDock_2013.1_src/data/scripts/dock_solv.prm

>  <Rbt.Receptor>
prm/pocket_docking_2.prm

>  <SCORE>
-17.9914

>  <SCORE.INTER>
-11.7495

>  <SCORE.INTER.CONST>
1

>  <SCORE.INTER.POLAR>
0

>  <SCORE.INTER.ROT>
7

>  <SCORE.INTER.SOLV>
10.4209

>  <SCORE.INTER.VDW>
-19.5733

>  <SCORE.INTER.norm>
-0.435168

>  <SCORE.INTRA>
-6.61311

>  <SCORE.INTRA.DIHEDRAL>
-7.65341

>  <SCORE.INTRA.DIHEDRAL.0>
15.0182

>  <SCORE.INTRA.POLAR>
0

>  <SCORE.INTRA.POLAR.0>
0

>  <SCORE.INTRA.REPUL>
0

>  <SCORE.INTRA.REPUL.0>
0

>  <SCORE.INTRA.SOLV>
-0.901574

>  <SCORE.INTRA.SOLV.lig_0>
-47.9129

>  <SCORE.INTRA.VDW>
-2.33561

>  <SCORE.INTRA.VDW.0>
2.00851

>  <SCORE.INTRA.norm>
-0.24493

>  <SCORE.RESTR>
0.371295

>  <SCORE.RESTR.CAVITY>
0.371295

>  <SCORE.RESTR.norm>
0.0137517

>  <SCORE.SYSTEM>
0

>  <SCORE.SYSTEM.CONST>
0

>  <SCORE.SYSTEM.DIHEDRAL>
0

>  <SCORE.SYSTEM.SOLV>
0

>  <SCORE.SYSTEM.norm>
0

>  <SCORE.heavy>
27

>  <SCORE.norm>
-0.666347

>  <RMSD>
5.192

$$$$
ligand
 OpenBabel11021811483D
libRbt.so/2013.1/901 2013/11/27
 27 29  0  0  0  0  0  0  0  0999 V2000
  -15.0266   -8.7612   26.0561 N   0  0  0  0  0  0  0  0  0  0  0  0
  -13.7450   -9.4612   26.0781 C   0  0  2  0  0  0  0  0  0  0  0  0
  -13.7014  -10.6009   25.0637 C   0  0  0  0  0  0  0  0  0  0  0  0
  -12.8468  -11.4867   25.1373 O   0  0  0  0  0  0  0  0  0  0  0  0
  -13.4187   -9.9559   27.4841 C   0  0  0  0  0  0  0  0  0  0  0  0
  -13.3289   -8.8372   28.5106 C   0  0  0  0  0  0  0  0  0  0  0  0
  -12.0464   -7.6125   28.1481 S   0  0  2  0  0  0  0  0  0  0  0  0
  -10.5608   -8.6323   28.3207 C   0  0  0  0  0  0  0  0  0  0  0  0
  -12.0159   -6.6754   29.7003 C   0  0  0  0  0  0  0  0  0  0  0  0
  -13.0019   -5.5195   29.6111 C   0  0  1  0  0  0  0  0  0  0  0  0
  -14.2391   -6.0259   29.1699 O   0  0  0  0  0  0  0  0  0  0  0  0
  -13.3205   -4.8236   30.9211 C   0  0  1  0  0  0  0  0  0  0  0  0
  -12.5237   -3.6720   31.0867 O   0  0  0  0  0  0  0  0  0  0  0  0
  -14.7743   -4.4305   30.7547 C   0  0  1  0  0  0  0  0  0  0  0  0
  -14.8367   -3.0448   30.5225 O   0  0  0  0  0  0  0  0  0  0  0  0
  -15.2956   -5.1743   29.5326 C   0  0  2  0  0  0  0  0  0  0  0  0
  -14.5199  -10.6540   24.1456 O   0  0  0  0  0  0  0  0  0  0  0  0
  -20.4940   -5.9436   29.1323 N   0  0  0  0  0  0  0  0  0  0  0  0
  -19.7302   -4.9590   28.5373 C   0  0  0  0  0  0  0  0  0  0  0  0
  -18.3663   -4.9002   28.7529 N   0  0  0  0  0  0  0  0  0  0  0  0
  -17.7616   -5.8074   29.5563 C   0  0  0  0  0  0  0  0  0  0  0  0
  -18.5126   -6.8104   30.1566 C   0  0  0  0  0  0  0  0  0  0  0  0
  -19.8847   -6.8738   29.9463 C   0  0  0  0  0  0  0  0  0  0  0  0
  -20.6053   -7.8289   30.5290 N   0  0  0  0  0  0  0  0  0  0  0  0
  -17.6735   -7.5741   30.8890 N   0  0  0  0  0  0  0  0  0  0  0  0
  -16.4165   -7.0904   30.7520 C   0  0  0  0  0  0  0  0  0  0  0  0
  -16.4517   -5.9957   29.9291 N   0  0  0  0  0  0  0  0  0  0  0  0
  2  1  1  1  0  0  0
  2  3  1  0  0  0  0
  2  5  1  0  0  0  0
  3  4  1  0  0  0  0
  3 17  1  0  0  0  0
  5  6  1  0  0  0  0
  7  6  1  1  0  0  0
  7  8  1  0  0  0  0
  7  9  1  0  0  0  0
 10  9  1  1  0  0  0
 10 11  1  0  0  0  0
 10 12  1  0  0  0  0
 11 16  1  0  0  0  0
 12 13  1  6  0  0  0
 12 14  1  0  0  0  0
 14 15  1  6  0  0  0
 14 16  1  0  0  0  0
 16 27  1  1  0  0  0
 18 19  2  0  0  0  0
 18 23  1  0  0  0  0
 19 20  1  0  0  0  0
 20 21  2  0  0  0  0
 21 22  1  0  0  0  0
 21 27  1  0  0  0  0
 22 23  2  0  0  0  0
 22 25  1  0  0  0  0
 23 24  1  0  0  0  0
 25 26  2  0  0  0  0
 26 27  1  0  0  0  0
M  END
>  <CHROM.1>
-163.25199757,-59.76334885,-60.57561145,-65.37442303,-90.21793248,50.20730477
-135.07338958,-15.11339554,-7.05112092,28.76448457,0.76909713,-0.03523126
-2.44520571

>  <Name>
ligand

>  <RI>
0

>  <Rbt.Current_Directory>
/home/itssahil/PROJECTS/Mol_Feturizer/New_Systems/rnas/3GX6

>  <Rbt.Executable>
rbdock ($Id: //depot/dev/client3/rdock/2013.1/src/exe/rbdock.cxx#4 $)

>  <Rbt.Library>
libRbt.so (2013.1, Build901 2013/11/27)

>  <Rbt.Parameter_File>
/export/apps/rDock/src/rDock_2013.1_src/data/scripts/dock_solv.prm

>  <Rbt.Receptor>
prm/pocket_docking_7.prm

>  <SCORE>
-17.2573

>  <SCORE.INTER>
-7.91404

>  <SCORE.INTER.CONST>
1

>  <SCORE.INTER.POLAR>
0

>  <SCORE.INTER.ROT>
7

>  <SCORE.INTER.SOLV>
7.71457

>  <SCORE.INTER.VDW>
-16.1142

>  <SCORE.INTER.norm>
-0.293113

>  <SCORE.INTRA>
-9.34324

>  <SCORE.INTRA.DIHEDRAL>
-10.2353

>  <SCORE.INTRA.DIHEDRAL.0>
15.0182

>  <SCORE.INTRA.POLAR>
0

>  <SCORE.INTRA.POLAR.0>
0

>  <SCORE.INTRA.REPUL>
0

>  <SCORE.INTRA.REPUL.0>
0

>  <SCORE.INTRA.SOLV>
-0.354263

>  <SCORE.INTRA.SOLV.lig_0>
-47.9129

>  <SCORE.INTRA.VDW>
-4.04846

>  <SCORE.INTRA.VDW.0>
2.00851

>  <SCORE.INTRA.norm>
-0.346046

>  <SCORE.RESTR>
0

>  <SCORE.RESTR.CAVITY>
0

>  <SCORE.RESTR.norm>
0

>  <SCORE.SYSTEM>
0

>  <SCORE.SYSTEM.CONST>
0

>  <SCORE.SYSTEM.DIHEDRAL>
0

>  <SCORE.SYSTEM.SOLV>
0

>  <SCORE.SYSTEM.norm>
0

>  <SCORE.heavy>
27

>  <SCORE.norm>
-0.639159

>  <RMSD>
5.193

$$$$
ligand
 OpenBabel11021811483D
libRbt.so/2013.1/901 2013/11/27
 27 29  0  0  0  0  0  0  0  0999 V2000
  -18.0290   -6.3438   29.3615 N   0  0  0  0  0  0  0  0  0  0  0  0
  -17.3731   -5.0532   29.1692 C   0  0  2  0  0  0  0  0  0  0  0  0
  -16.2634   -5.1287   28.1238 C   0  0  0  0  0  0  0  0  0  0  0  0
  -15.6549   -4.1175   27.7667 O   0  0  0  0  0  0  0  0  0  0  0  0
  -16.8520   -4.5044   30.4941 C   0  0  0  0  0  0  0  0  0  0  0  0
  -16.5321   -3.0183   30.4464 C   0  0  0  0  0  0  0  0  0  0  0  0
  -15.9575   -2.3424   32.0242 S   0  0  2  0  0  0  0  0  0  0  0  0
  -15.8678   -0.5817   31.6137 C   0  0  0  0  0  0  0  0  0  0  0  0
  -14.2051   -2.8067   31.9803 C   0  0  0  0  0  0  0  0  0  0  0  0
  -14.0080   -4.1057   32.7487 C   0  0  1  0  0  0  0  0  0  0  0  0
  -14.2680   -5.1797   31.8766 O   0  0  0  0  0  0  0  0  0  0  0  0
  -12.6025   -4.3613   33.2596 C   0  0  1  0  0  0  0  0  0  0  0  0
  -12.4733   -3.9552   34.6039 O   0  0  0  0  0  0  0  0  0  0  0  0
  -12.4699   -5.8672   33.1564 C   0  0  1  0  0  0  0  0  0  0  0  0
  -12.5555   -6.4111   34.4505 O   0  0  0  0  0  0  0  0  0  0  0  0
  -13.6444   -6.3575   32.3205 C   0  0  2  0  0  0  0  0  0  0  0  0
  -15.9577   -6.2057   27.6116 O   0  0  0  0  0  0  0  0  0  0  0  0
  -12.1718   -6.1067   27.2665 N   0  0  0  0  0  0  0  0  0  0  0  0
  -12.6395   -5.0851   28.0692 C   0  0  0  0  0  0  0  0  0  0  0  0
  -12.9867   -5.3271   29.3849 N   0  0  0  0  0  0  0  0  0  0  0  0
  -12.8764   -6.5736   29.9027 C   0  0  0  0  0  0  0  0  0  0  0  0
  -12.3996   -7.6122   29.1126 C   0  0  0  0  0  0  0  0  0  0  0  0
  -12.0512   -7.3765   27.7882 C   0  0  0  0  0  0  0  0  0  0  0  0
  -11.6035   -8.3735   27.0288 N   0  0  0  0  0  0  0  0  0  0  0  0
  -12.3824   -8.7322   29.8668 N   0  0  0  0  0  0  0  0  0  0  0  0
  -12.8176   -8.4234   31.1109 C   0  0  0  0  0  0  0  0  0  0  0  0
  -13.1279   -7.0897   31.1520 N   0  0  0  0  0  0  0  0  0  0  0  0
  2  1  1  1  0  0  0
  2  3  1  0  0  0  0
  2  5  1  0  0  0  0
  3  4  1  0  0  0  0
  3 17  1  0  0  0  0
  5  6  1  0  0  0  0
  7  6  1  6  0  0  0
  7  8  1  0  0  0  0
  7  9  1  0  0  0  0
 10  9  1  6  0  0  0
 10 11  1  0  0  0  0
 10 12  1  0  0  0  0
 11 16  1  0  0  0  0
 12 13  1  1  0  0  0
 12 14  1  0  0  0  0
 14 15  1  1  0  0  0
 14 16  1  0  0  0  0
 16 27  1  6  0  0  0
 18 19  2  0  0  0  0
 18 23  1  0  0  0  0
 19 20  1  0  0  0  0
 20 21  2  0  0  0  0
 21 22  1  0  0  0  0
 21 27  1  0  0  0  0
 22 23  2  0  0  0  0
 22 25  1  0  0  0  0
 23 24  1  0  0  0  0
 25 26  2  0  0  0  0
 26 27  1  0  0  0  0
M  END
>  <CHROM.1>
175.35320678,-163.10512092,178.35014758,-174.08508070,-96.16436490,85.36552630
19.85914998,-14.18899558,-5.24763492,30.55283873,2.10727568,-0.70280163,1.06908867

>  <Name>
ligand

>  <RI>
0

>  <Rbt.Current_Directory>
/home/itssahil/PROJECTS/Mol_Feturizer/New_Systems/rnas/3GX6

>  <Rbt.Executable>
rbdock ($Id: //depot/dev/client3/rdock/2013.1/src/exe/rbdock.cxx#4 $)

>  <Rbt.Library>
libRbt.so (2013.1, Build901 2013/11/27)

>  <Rbt.Parameter_File>
/export/apps/rDock/src/rDock_2013.1_src/data/scripts/dock_solv.prm

>  <Rbt.Receptor>
prm/pocket_docking_3.prm

>  <SCORE>
-24.7653

>  <SCORE.INTER>
-14.5968

>  <SCORE.INTER.CONST>
1

>  <SCORE.INTER.POLAR>
0

>  <SCORE.INTER.ROT>
7

>  <SCORE.INTER.SOLV>
9.88204

>  <SCORE.INTER.VDW>
-21.2919

>  <SCORE.INTER.norm>
-0.540624

>  <SCORE.INTRA>
-10.5103

>  <SCORE.INTRA.DIHEDRAL>
-6.31377

>  <SCORE.INTRA.DIHEDRAL.0>
15.0182

>  <SCORE.INTRA.POLAR>
0

>  <SCORE.INTRA.POLAR.0>
0

>  <SCORE.INTRA.REPUL>
0

>  <SCORE.INTRA.REPUL.0>
0

>  <SCORE.INTRA.SOLV>
-1.63647

>  <SCORE.INTRA.SOLV.lig_0>
-47.9129

>  <SCORE.INTRA.VDW>
-6.5352

>  <SCORE.INTRA.VDW.0>
2.00851

>  <SCORE.INTRA.norm>
-0.389271

>  <SCORE.RESTR>
0.341808

>  <SCORE.RESTR.CAVITY>
0.341808

>  <SCORE.RESTR.norm>
0.0126595

>  <SCORE.SYSTEM>
0

>  <SCORE.SYSTEM.CONST>
0

>  <SCORE.SYSTEM.DIHEDRAL>
0

>  <SCORE.SYSTEM.SOLV>
0

>  <SCORE.SYSTEM.norm>
0

>  <SCORE.heavy>
27

>  <SCORE.norm>
-0.917235

>  <RMSD>
5.206

$$$$
ligand
 OpenBabel11021811483D
libRbt.so/2013.1/901 2013/11/27
 27 29  0  0  0  0  0  0  0  0999 V2000
  -11.0039   -8.8757   29.1112 N   0  0  0  0  0  0  0  0  0  0  0  0
  -11.5093   -7.9515   28.0996 C   0  0  2  0  0  0  0  0  0  0  0  0
  -10.4022   -7.0659   27.5338 C   0  0  0  0  0  0  0  0  0  0  0  0
   -9.8452   -7.3443   26.4696 O   0  0  0  0  0  0  0  0  0  0  0  0
  -12.6612   -7.1169   28.6513 C   0  0  0  0  0  0  0  0  0  0  0  0
  -13.2586   -6.1636   27.6279 C   0  0  0  0  0  0  0  0  0  0  0  0
  -14.7968   -5.3783   28.1698 S   0  0  2  0  0  0  0  0  0  0  0  0
  -15.1897   -4.3838   26.7092 C   0  0  0  0  0  0  0  0  0  0  0  0
  -14.1580   -4.1121   29.2999 C   0  0  0  0  0  0  0  0  0  0  0  0
  -15.3101   -3.5240   30.1017 C   0  0  1  0  0  0  0  0  0  0  0  0
  -16.0627   -4.5853   30.6391 O   0  0  0  0  0  0  0  0  0  0  0  0
  -14.9155   -2.6889   31.3054 C   0  0  1  0  0  0  0  0  0  0  0  0
  -14.8998   -1.3162   30.9831 O   0  0  0  0  0  0  0  0  0  0  0  0
  -16.0225   -2.9770   32.2991 C   0  0  1  0  0  0  0  0  0  0  0  0
  -16.8672   -1.8544   32.3620 O   0  0  0  0  0  0  0  0  0  0  0  0
  -16.8012   -4.1689   31.7591 C   0  0  2  0  0  0  0  0  0  0  0  0
  -10.0398   -6.0548   28.1355 O   0  0  0  0  0  0  0  0  0  0  0  0
  -13.8823   -7.6143   34.4766 N   0  0  0  0  0  0  0  0  0  0  0  0
  -13.4593   -6.6900   33.5419 C   0  0  0  0  0  0  0  0  0  0  0  0
  -14.3671   -5.8569   32.9157 N   0  0  0  0  0  0  0  0  0  0  0  0
  -15.6866   -5.9406   33.2087 C   0  0  0  0  0  0  0  0  0  0  0  0
  -16.1297   -6.8587   34.1527 C   0  0  0  0  0  0  0  0  0  0  0  0
  -15.2228   -7.7011   34.7842 C   0  0  0  0  0  0  0  0  0  0  0  0
  -15.6486   -8.5869   35.6814 N   0  0  0  0  0  0  0  0  0  0  0  0
  -17.4697   -6.7297   34.2588 N   0  0  0  0  0  0  0  0  0  0  0  0
  -17.8779   -5.7465   33.4225 C   0  0  0  0  0  0  0  0  0  0  0  0
  -16.7862   -5.2456   32.7636 N   0  0  0  0  0  0  0  0  0  0  0  0
  2  1  1  1  0  0  0
  2  3  1  0  0  0  0
  2  5  1  0  0  0  0
  3  4  1  0  0  0  0
  3 17  1  0  0  0  0
  5  6  1  0  0  0  0
  7  6  1  6  0  0  0
  7  8  1  0  0  0  0
  7  9  1  0  0  0  0
 10  9  1  1  0  0  0
 10 11  1  0  0  0  0
 10 12  1  0  0  0  0
 11 16  1  0  0  0  0
 12 13  1  6  0  0  0
 12 14  1  0  0  0  0
 14 15  1  6  0  0  0
 14 16  1  0  0  0  0
 16 27  1  1  0  0  0
 18 19  2  0  0  0  0
 18 23  1  0  0  0  0
 19 20  1  0  0  0  0
 20 21  2  0  0  0  0
 21 22  1  0  0  0  0
 21 27  1  0  0  0  0
 22 23  2  0  0  0  0
 22 25  1  0  0  0  0
 23 24  1  0  0  0  0
 25 26  2  0  0  0  0
 26 27  1  0  0  0  0
M  END
>  <CHROM.1>
97.66655653,-178.22254220,169.98643740,-178.87583159,-167.89740880,49.54364626
48.26470097,-14.43263891,-5.58360276,30.82643004,-0.51352590,-0.79805379
2.27168782

>  <Name>
ligand

>  <RI>
0

>  <Rbt.Current_Directory>
/home/itssahil/PROJECTS/Mol_Feturizer/New_Systems/rnas/3GX6

>  <Rbt.Executable>
rbdock ($Id: //depot/dev/client3/rdock/2013.1/src/exe/rbdock.cxx#4 $)

>  <Rbt.Library>
libRbt.so (2013.1, Build901 2013/11/27)

>  <Rbt.Parameter_File>
/export/apps/rDock/src/rDock_2013.1_src/data/scripts/dock_solv.prm

>  <Rbt.Receptor>
prm/pocket_docking_5.prm

>  <SCORE>
-22.2013

>  <SCORE.INTER>
-11.874

>  <SCORE.INTER.CONST>
1

>  <SCORE.INTER.POLAR>
0

>  <SCORE.INTER.ROT>
7

>  <SCORE.INTER.SOLV>
17.1125

>  <SCORE.INTER.VDW>
-21.8869

>  <SCORE.INTER.norm>
-0.439778

>  <SCORE.INTRA>
-10.3273

>  <SCORE.INTRA.DIHEDRAL>
-9.69161

>  <SCORE.INTRA.DIHEDRAL.0>
15.0182

>  <SCORE.INTRA.POLAR>
0

>  <SCORE.INTRA.POLAR.0>
0

>  <SCORE.INTRA.REPUL>
0

>  <SCORE.INTRA.REPUL.0>
0

>  <SCORE.INTRA.SOLV>
-1.79165

>  <SCORE.INTRA.SOLV.lig_0>
-47.9129

>  <SCORE.INTRA.VDW>
-4.58569

>  <SCORE.INTRA.VDW.0>
2.00851

>  <SCORE.INTRA.norm>
-0.382493

>  <SCORE.RESTR>
0

>  <SCORE.RESTR.CAVITY>
0

>  <SCORE.RESTR.norm>
0

>  <SCORE.SYSTEM>
0

>  <SCORE.SYSTEM.CONST>
0

>  <SCORE.SYSTEM.DIHEDRAL>
0

>  <SCORE.SYSTEM.SOLV>
0

>  <SCORE.SYSTEM.norm>
0

>  <SCORE.heavy>
27

>  <SCORE.norm>
-0.822272

>  <RMSD>
5.206

$$$$
ligand
 OpenBabel11021811483D
libRbt.so/2013.1/901 2013/11/27
 27 29  0  0  0  0  0  0  0  0999 V2000
  -17.4288   -5.3798   29.8229 N   0  0  0  0  0  0  0  0  0  0  0  0
  -16.7139   -4.1974   29.3498 C   0  0  2  0  0  0  0  0  0  0  0  0
  -15.7171   -4.5389   28.2454 C   0  0  0  0  0  0  0  0  0  0  0  0
  -15.9616   -4.2808   27.0647 O   0  0  0  0  0  0  0  0  0  0  0  0
  -16.0339   -3.4726   30.5075 C   0  0  0  0  0  0  0  0  0  0  0  0
  -15.0464   -4.3447   31.2673 C   0  0  0  0  0  0  0  0  0  0  0  0
  -14.4472   -3.6022   32.8056 S   0  0  2  0  0  0  0  0  0  0  0  0
  -13.4256   -2.2612   32.1464 C   0  0  0  0  0  0  0  0  0  0  0  0
  -13.1812   -4.8036   33.2980 C   0  0  0  0  0  0  0  0  0  0  0  0
  -13.8558   -6.0915   33.7479 C   0  0  1  0  0  0  0  0  0  0  0  0
  -14.5594   -6.6287   32.6533 O   0  0  0  0  0  0  0  0  0  0  0  0
  -12.9228   -7.2053   34.1848 C   0  0  1  0  0  0  0  0  0  0  0  0
  -12.7655   -7.2103   35.5862 O   0  0  0  0  0  0  0  0  0  0  0  0
  -13.6519   -8.4566   33.7391 C   0  0  1  0  0  0  0  0  0  0  0  0
  -14.1997   -9.0805   34.8742 O   0  0  0  0  0  0  0  0  0  0  0  0
  -14.7754   -8.0072   32.8147 C   0  0  2  0  0  0  0  0  0  0  0  0
  -14.6474   -5.0858   28.5142 O   0  0  0  0  0  0  0  0  0  0  0  0
  -11.8677   -8.4704   28.4437 N   0  0  0  0  0  0  0  0  0  0  0  0
  -11.6415   -7.6548   29.5349 C   0  0  0  0  0  0  0  0  0  0  0  0
  -12.5145   -7.6554   30.6064 N   0  0  0  0  0  0  0  0  0  0  0  0
  -13.6077   -8.4547   30.5969 C   0  0  0  0  0  0  0  0  0  0  0  0
  -13.8469   -9.2883   29.5114 C   0  0  0  0  0  0  0  0  0  0  0  0
  -12.9748   -9.2908   28.4296 C   0  0  0  0  0  0  0  0  0  0  0  0
  -13.2093  -10.0823   27.3858 N   0  0  0  0  0  0  0  0  0  0  0  0
  -14.9833   -9.9746   29.7588 N   0  0  0  0  0  0  0  0  0  0  0  0
  -15.4543   -9.6092   30.9742 C   0  0  0  0  0  0  0  0  0  0  0  0
  -14.6143   -8.6682   31.5088 N   0  0  0  0  0  0  0  0  0  0  0  0
  2  1  1  1  0  0  0
  2  3  1  0  0  0  0
  2  5  1  0  0  0  0
  3  4  1  0  0  0  0
  3 17  1  0  0  0  0
  5  6  1  0  0  0  0
  7  6  1  6  0  0  0
  7  8  1  0  0  0  0
  7  9  1  0  0  0  0
 10  9  1  6  0  0  0
 10 11  1  0  0  0  0
 10 12  1  0  0  0  0
 11 16  1  0  0  0  0
 12 13  1  1  0  0  0
 12 14  1  0  0  0  0
 14 15  1  1  0  0  0
 14 16  1  0  0  0  0
 16 27  1  6  0  0  0
 18 19  2  0  0  0  0
 18 23  1  0  0  0  0
 19 20  1  0  0  0  0
 20 21  2  0  0  0  0
 21 22  1  0  0  0  0
 21 27  1  0  0  0  0
 22 23  2  0  0  0  0
 22 25  1  0  0  0  0
 23 24  1  0  0  0  0
 25 26  2  0  0  0  0
 26 27  1  0  0  0  0
M  END
>  <CHROM.1>
103.83156647,58.39074296,-169.99156159,-69.60061199,-70.73668757,62.64637819
45.26079581,-14.24620267,-6.59705668,31.14099988,2.44384191,-1.22128238,1.02275928

>  <Name>
ligand

>  <RI>
0

>  <Rbt.Current_Directory>
/home/itssahil/PROJECTS/Mol_Feturizer/New_Systems/rnas/3GX6

>  <Rbt.Executable>
rbdock ($Id: //depot/dev/client3/rdock/2013.1/src/exe/rbdock.cxx#4 $)

>  <Rbt.Library>
libRbt.so (2013.1, Build901 2013/11/27)

>  <Rbt.Parameter_File>
/export/apps/rDock/src/rDock_2013.1_src/data/scripts/dock_solv.prm

>  <Rbt.Receptor>
prm/pocket_docking_2.prm

>  <SCORE>
-20.2676

>  <SCORE.INTER>
-10.8717

>  <SCORE.INTER.CONST>
1

>  <SCORE.INTER.POLAR>
0

>  <SCORE.INTER.ROT>
7

>  <SCORE.INTER.SOLV>
10.6062

>  <SCORE.INTER.VDW>
-19.0499

>  <SCORE.INTER.norm>
-0.402657

>  <SCORE.INTRA>
-10.0787

>  <SCORE.INTRA.DIHEDRAL>
-11.3935

>  <SCORE.INTRA.DIHEDRAL.0>
15.0182

>  <SCORE.INTRA.POLAR>
0

>  <SCORE.INTRA.POLAR.0>
0

>  <SCORE.INTRA.REPUL>
0

>  <SCORE.INTRA.REPUL.0>
0

>  <SCORE.INTRA.SOLV>
-0.910691

>  <SCORE.INTRA.SOLV.lig_0>
-47.9129

>  <SCORE.INTRA.VDW>
-3.92664

>  <SCORE.INTRA.VDW.0>
2.00851

>  <SCORE.INTRA.norm>
-0.373287

>  <SCORE.RESTR>
0.682923

>  <SCORE.RESTR.CAVITY>
0.682923

>  <SCORE.RESTR.norm>
0.0252934

>  <SCORE.SYSTEM>
0

>  <SCORE.SYSTEM.CONST>
0

>  <SCORE.SYSTEM.DIHEDRAL>
0

>  <SCORE.SYSTEM.SOLV>
0

>  <SCORE.SYSTEM.norm>
0

>  <SCORE.heavy>
27

>  <SCORE.norm>
-0.75065

>  <RMSD>
5.210

$$$$
ligand
 OpenBabel11021811483D
libRbt.so/2013.1/901 2013/11/27
 27 29  0  0  0  0  0  0  0  0999 V2000
  -14.6228   -7.2743   29.7559 N   0  0  0  0  0  0  0  0  0  0  0  0
  -13.9318   -8.3568   30.4513 C   0  0  2  0  0  0  0  0  0  0  0  0
  -13.9410   -9.6508   29.6416 C   0  0  0  0  0  0  0  0  0  0  0  0
  -14.9874  -10.2736   29.4482 O   0  0  0  0  0  0  0  0  0  0  0  0
  -14.5157   -8.5691   31.8448 C   0  0  0  0  0  0  0  0  0  0  0  0
  -14.5692   -7.2965   32.6759 C   0  0  0  0  0  0  0  0  0  0  0  0
  -12.9435   -6.6908   33.1923 S   0  0  2  0  0  0  0  0  0  0  0  0
  -12.6911   -7.6686   34.6945 C   0  0  0  0  0  0  0  0  0  0  0  0
  -13.3830   -5.0757   33.8898 C   0  0  0  0  0  0  0  0  0  0  0  0
  -13.7618   -4.1256   32.7628 C   0  0  1  0  0  0  0  0  0  0  0  0
  -12.9153   -4.3788   31.6669 O   0  0  0  0  0  0  0  0  0  0  0  0
  -15.1640   -4.2896   32.2071 C   0  0  1  0  0  0  0  0  0  0  0  0
  -16.0539   -3.3746   32.8066 O   0  0  0  0  0  0  0  0  0  0  0  0
  -14.9904   -3.9598   30.7384 C   0  0  1  0  0  0  0  0  0  0  0  0
  -15.5310   -2.6832   30.5022 O   0  0  0  0  0  0  0  0  0  0  0  0
  -13.4925   -3.9356   30.4655 C   0  0  2  0  0  0  0  0  0  0  0  0
  -12.8973  -10.1013   29.1688 O   0  0  0  0  0  0  0  0  0  0  0  0
  -14.7504   -5.7980   25.6985 N   0  0  0  0  0  0  0  0  0  0  0  0
  -15.3547   -4.7730   26.3994 C   0  0  0  0  0  0  0  0  0  0  0  0
  -14.8952   -4.4107   27.6515 N   0  0  0  0  0  0  0  0  0  0  0  0
  -13.8469   -5.0614   28.2095 C   0  0  0  0  0  0  0  0  0  0  0  0
  -13.2208   -6.0895   27.5156 C   0  0  0  0  0  0  0  0  0  0  0  0
  -13.6793   -6.4607   26.2575 C   0  0  0  0  0  0  0  0  0  0  0  0
  -13.0856   -7.4519   25.5970 N   0  0  0  0  0  0  0  0  0  0  0  0
  -12.2140   -6.5558   28.2853 N   0  0  0  0  0  0  0  0  0  0  0  0
  -12.1791   -5.8395   29.4335 C   0  0  0  0  0  0  0  0  0  0  0  0
  -13.1835   -4.9083   29.4040 N   0  0  0  0  0  0  0  0  0  0  0  0
  2  1  1  6  0  0  0
  2  3  1  0  0  0  0
  2  5  1  0  0  0  0
  3  4  1  0  0  0  0
  3 17  1  0  0  0  0
  5  6  1  0  0  0  0
  7  6  1  6  0  0  0
  7  8  1  0  0  0  0
  7  9  1  0  0  0  0
 10  9  1  1  0  0  0
 10 11  1  0  0  0  0
 10 12  1  0  0  0  0
 11 16  1  0  0  0  0
 12 13  1  1  0  0  0
 12 14  1  0  0  0  0
 14 15  1  1  0  0  0
 14 16  1  0  0  0  0
 16 27  1  6  0  0  0
 18 19  2  0  0  0  0
 18 23  1  0  0  0  0
 19 20  1  0  0  0  0
 20 21  2  0  0  0  0
 21 22  1  0  0  0  0
 21 27  1  0  0  0  0
 22 23  2  0  0  0  0
 22 25  1  0  0  0  0
 23 24  1  0  0  0  0
 25 26  2  0  0  0  0
 26 27  1  0  0  0  0
M  END
>  <CHROM.1>
-68.24768766,-52.84338130,-69.80761898,-85.10679794,-71.82379221,-37.58738759
160.19238825,-13.92257928,-6.15410368,30.23920108,-1.58518434,-1.36828536
1.35767839

>  <Name>
ligand

>  <RI>
0

>  <Rbt.Current_Directory>
/home/itssahil/PROJECTS/Mol_Feturizer/New_Systems/rnas/3GX6

>  <Rbt.Executable>
rbdock ($Id: //depot/dev/client3/rdock/2013.1/src/exe/rbdock.cxx#4 $)

>  <Rbt.Library>
libRbt.so (2013.1, Build901 2013/11/27)

>  <Rbt.Parameter_File>
/export/apps/rDock/src/rDock_2013.1_src/data/scripts/dock_solv.prm

>  <Rbt.Receptor>
prm/pocket_docking_2.prm

>  <SCORE>
-19.7399

>  <SCORE.INTER>
-13.8101

>  <SCORE.INTER.CONST>
1

>  <SCORE.INTER.POLAR>
0

>  <SCORE.INTER.ROT>
7

>  <SCORE.INTER.SOLV>
7.51182

>  <SCORE.INTER.VDW>
-19.9774

>  <SCORE.INTER.norm>
-0.511486

>  <SCORE.INTRA>
-7.979

>  <SCORE.INTRA.DIHEDRAL>
-8.80971

>  <SCORE.INTRA.DIHEDRAL.0>
15.0182

>  <SCORE.INTRA.POLAR>
0

>  <SCORE.INTRA.POLAR.0>
0

>  <SCORE.INTRA.REPUL>
0

>  <SCORE.INTRA.REPUL.0>
0

>  <SCORE.INTRA.SOLV>
4.93813

>  <SCORE.INTRA.SOLV.lig_0>
-47.9129

>  <SCORE.INTRA.VDW>
-6.04321

>  <SCORE.INTRA.VDW.0>
2.00851

>  <SCORE.INTRA.norm>
-0.295518

>  <SCORE.RESTR>
2.04922

>  <SCORE.RESTR.CAVITY>
2.04922

>  <SCORE.RESTR.norm>
0.0758969

>  <SCORE.SYSTEM>
0

>  <SCORE.SYSTEM.CONST>
0

>  <SCORE.SYSTEM.DIHEDRAL>
0

>  <SCORE.SYSTEM.SOLV>
0

>  <SCORE.SYSTEM.norm>
0

>  <SCORE.heavy>
27

>  <SCORE.norm>
-0.731108

>  <RMSD>
5.211

$$$$
ligand
 OpenBabel11021811483D
libRbt.so/2013.1/901 2013/11/27
 27 29  0  0  0  0  0  0  0  0999 V2000
  -17.4066   -4.8438   27.5476 N   0  0  0  0  0  0  0  0  0  0  0  0
  -16.0615   -4.4690   27.9756 C   0  0  2  0  0  0  0  0  0  0  0  0
  -15.0087   -5.4518   27.4702 C   0  0  0  0  0  0  0  0  0  0  0  0
  -15.3200   -6.4066   26.7547 O   0  0  0  0  0  0  0  0  0  0  0  0
  -15.9957   -4.3152   29.4922 C   0  0  0  0  0  0  0  0  0  0  0  0
  -16.7377   -3.0912   30.0064 C   0  0  0  0  0  0  0  0  0  0  0  0
  -16.5810   -2.8369   31.7916 S   0  0  2  0  0  0  0  0  0  0  0  0
  -16.8138   -1.0444   31.8893 C   0  0  0  0  0  0  0  0  0  0  0  0
  -14.7851   -2.9735   32.0030 C   0  0  0  0  0  0  0  0  0  0  0  0
  -14.4722   -4.1576   32.9064 C   0  0  1  0  0  0  0  0  0  0  0  0
  -14.9426   -5.3280   32.2813 O   0  0  0  0  0  0  0  0  0  0  0  0
  -12.9995   -4.4243   33.1555 C   0  0  1  0  0  0  0  0  0  0  0  0
  -12.5789   -3.8373   34.3668 O   0  0  0  0  0  0  0  0  0  0  0  0
  -12.9386   -5.9346   33.2611 C   0  0  1  0  0  0  0  0  0  0  0  0
  -12.7683   -6.2796   34.6138 O   0  0  0  0  0  0  0  0  0  0  0  0
  -14.2770   -6.4660   32.7660 C   0  0  2  0  0  0  0  0  0  0  0  0
  -13.8238   -5.3114   27.7736 O   0  0  0  0  0  0  0  0  0  0  0  0
  -11.4901   -7.4776   28.4088 N   0  0  0  0  0  0  0  0  0  0  0  0
  -11.3839   -6.3915   29.2551 C   0  0  0  0  0  0  0  0  0  0  0  0
  -12.2027   -6.2803   30.3630 N   0  0  0  0  0  0  0  0  0  0  0  0
  -13.1247   -7.2356   30.6301 C   0  0  0  0  0  0  0  0  0  0  0  0
  -13.2401   -8.3398   29.7947 C   0  0  0  0  0  0  0  0  0  0  0  0
  -12.4220   -8.4565   28.6776 C   0  0  0  0  0  0  0  0  0  0  0  0
  -12.5393   -9.5095   27.8723 N   0  0  0  0  0  0  0  0  0  0  0  0
  -14.2168   -9.1316   30.2874 N   0  0  0  0  0  0  0  0  0  0  0  0
  -14.7053   -8.5657   31.4160 C   0  0  0  0  0  0  0  0  0  0  0  0
  -14.0400   -7.3901   31.6443 N   0  0  0  0  0  0  0  0  0  0  0  0
  2  1  1  1  0  0  0
  2  3  1  0  0  0  0
  2  5  1  0  0  0  0
  3  4  1  0  0  0  0
  3 17  1  0  0  0  0
  5  6  1  0  0  0  0
  7  6  1  6  0  0  0
  7  8  1  0  0  0  0
  7  9  1  0  0  0  0
 10  9  1  6  0  0  0
 10 11  1  0  0  0  0
 10 12  1  0  0  0  0
 11 16  1  0  0  0  0
 12 13  1  1  0  0  0
 12 14  1  0  0  0  0
 14 15  1  1  0  0  0
 14 16  1  0  0  0  0
 16 27  1  6  0  0  0
 18 19  2  0  0  0  0
 18 23  1  0  0  0  0
 19 20  1  0  0  0  0
 20 21  2  0  0  0  0
 21 22  1  0  0  0  0
 21 27  1  0  0  0  0
 22 23  2  0  0  0  0
 22 25  1  0  0  0  0
 23 24  1  0  0  0  0
 25 26  2  0  0  0  0
 26 27  1  0  0  0  0
M  END
>  <CHROM.1>
2.01957911,-70.59226035,-176.32908399,153.45341313,-117.72410382,61.72256494
72.91388682,-14.31826058,-5.57704765,30.62292892,2.17178393,-0.84829202,1.10753115

>  <Name>
ligand

>  <RI>
0

>  <Rbt.Current_Directory>
/home/itssahil/PROJECTS/Mol_Feturizer/New_Systems/rnas/3GX6

>  <Rbt.Executable>
rbdock ($Id: //depot/dev/client3/rdock/2013.1/src/exe/rbdock.cxx#4 $)

>  <Rbt.Library>
libRbt.so (2013.1, Build901 2013/11/27)

>  <Rbt.Parameter_File>
/export/apps/rDock/src/rDock_2013.1_src/data/scripts/dock_solv.prm

>  <Rbt.Receptor>
prm/pocket_docking_3.prm

>  <SCORE>
-22.5556

>  <SCORE.INTER>
-13.0227

>  <SCORE.INTER.CONST>
1

>  <SCORE.INTER.POLAR>
0

>  <SCORE.INTER.ROT>
7

>  <SCORE.INTER.SOLV>
14.7273

>  <SCORE.INTER.VDW>
-21.8576

>  <SCORE.INTER.norm>
-0.482324

>  <SCORE.INTRA>
-9.54896

>  <SCORE.INTRA.DIHEDRAL>
-6.3733

>  <SCORE.INTRA.DIHEDRAL.0>
15.0182

>  <SCORE.INTRA.POLAR>
0

>  <SCORE.INTRA.POLAR.0>
0

>  <SCORE.INTRA.REPUL>
0

>  <SCORE.INTRA.REPUL.0>
0

>  <SCORE.INTRA.SOLV>
-1.08535

>  <SCORE.INTRA.SOLV.lig_0>
-47.9129

>  <SCORE.INTRA.VDW>
-5.81964

>  <SCORE.INTRA.VDW.0>
2.00851

>  <SCORE.INTRA.norm>
-0.353665

>  <SCORE.RESTR>
0.016064

>  <SCORE.RESTR.CAVITY>
0.016064

>  <SCORE.RESTR.norm>
0.000594963

>  <SCORE.SYSTEM>
0

>  <SCORE.SYSTEM.CONST>
0

>  <SCORE.SYSTEM.DIHEDRAL>
0

>  <SCORE.SYSTEM.SOLV>
0

>  <SCORE.SYSTEM.norm>
0

>  <SCORE.heavy>
27

>  <SCORE.norm>
-0.835394

>  <RMSD>
5.212

$$$$
ligand
 OpenBabel11021811483D
libRbt.so/2013.1/901 2013/11/27
 27 29  0  0  0  0  0  0  0  0999 V2000
  -15.6046   -9.3041   30.1711 N   0  0  0  0  0  0  0  0  0  0  0  0
  -14.8762   -9.5471   28.9288 C   0  0  2  0  0  0  0  0  0  0  0  0
  -13.3959   -9.8210   29.1811 C   0  0  0  0  0  0  0  0  0  0  0  0
  -12.6775   -8.9826   29.7301 O   0  0  0  0  0  0  0  0  0  0  0  0
  -15.0687   -8.3927   27.9499 C   0  0  0  0  0  0  0  0  0  0  0  0
  -14.7587   -7.0320   28.5546 C   0  0  0  0  0  0  0  0  0  0  0  0
  -15.4647   -5.6435   27.6327 S   0  0  2  0  0  0  0  0  0  0  0  0
  -14.3828   -5.6292   26.1815 C   0  0  0  0  0  0  0  0  0  0  0  0
  -14.8134   -4.2375   28.5747 C   0  0  0  0  0  0  0  0  0  0  0  0
  -15.8135   -3.8461   29.6531 C   0  0  1  0  0  0  0  0  0  0  0  0
  -16.2073   -5.0123   30.3361 O   0  0  0  0  0  0  0  0  0  0  0  0
  -15.2846   -2.9286   30.7395 C   0  0  1  0  0  0  0  0  0  0  0  0
  -15.5935   -1.5820   30.4565 O   0  0  0  0  0  0  0  0  0  0  0  0
  -16.0386   -3.3871   31.9713 C   0  0  1  0  0  0  0  0  0  0  0  0
  -17.0257   -2.4311   32.2702 O   0  0  0  0  0  0  0  0  0  0  0  0
  -16.7037   -4.7096   31.6147 C   0  0  2  0  0  0  0  0  0  0  0  0
  -12.8883  -10.8878   28.8345 O   0  0  0  0  0  0  0  0  0  0  0  0
  -12.7799   -7.9084   33.0798 N   0  0  0  0  0  0  0  0  0  0  0  0
  -12.7965   -7.0025   32.0377 C   0  0  0  0  0  0  0  0  0  0  0  0
  -13.9201   -6.2372   31.7889 N   0  0  0  0  0  0  0  0  0  0  0  0
  -15.0230   -6.3703   32.5633 C   0  0  0  0  0  0  0  0  0  0  0  0
  -15.0218   -7.2706   33.6217 C   0  0  0  0  0  0  0  0  0  0  0  0
  -13.8964   -8.0451   33.8758 C   0  0  0  0  0  0  0  0  0  0  0  0
  -13.8988   -8.9142   34.8837 N   0  0  0  0  0  0  0  0  0  0  0  0
  -16.2267   -7.1996   34.2273 N   0  0  0  0  0  0  0  0  0  0  0  0
  -16.9771   -6.2696   33.5913 C   0  0  0  0  0  0  0  0  0  0  0  0
  -16.2473   -5.7446   32.5576 N   0  0  0  0  0  0  0  0  0  0  0  0
  2  1  1  1  0  0  0
  2  3  1  0  0  0  0
  2  5  1  0  0  0  0
  3  4  1  0  0  0  0
  3 17  1  0  0  0  0
  5  6  1  0  0  0  0
  7  6  1  1  0  0  0
  7  8  1  0  0  0  0
  7  9  1  0  0  0  0
 10  9  1  6  0  0  0
 10 11  1  0  0  0  0
 10 12  1  0  0  0  0
 11 16  1  0  0  0  0
 12 13  1  6  0  0  0
 12 14  1  0  0  0  0
 14 15  1  6  0  0  0
 14 16  1  0  0  0  0
 16 27  1  1  0  0  0
 18 19  2  0  0  0  0
 18 23  1  0  0  0  0
 19 20  1  0  0  0  0
 20 21  2  0  0  0  0
 21 22  1  0  0  0  0
 21 27  1  0  0  0  0
 22 23  2  0  0  0  0
 22 25  1  0  0  0  0
 23 24  1  0  0  0  0
 25 26  2  0  0  0  0
 26 27  1  0  0  0  0
M  END
>  <CHROM.1>
-60.27615660,52.11225983,-161.46489914,-72.98909375,-91.83872970,48.36510374
37.52368043,-14.96417628,-6.38885182,30.70240856,-0.00809834,1.19262676,-1.39121255

>  <Name>
ligand

>  <RI>
0

>  <Rbt.Current_Directory>
/home/itssahil/PROJECTS/Mol_Feturizer/New_Systems/rnas/3GX6

>  <Rbt.Executable>
rbdock ($Id: //depot/dev/client3/rdock/2013.1/src/exe/rbdock.cxx#4 $)

>  <Rbt.Library>
libRbt.so (2013.1, Build901 2013/11/27)

>  <Rbt.Parameter_File>
/export/apps/rDock/src/rDock_2013.1_src/data/scripts/dock_solv.prm

>  <Rbt.Receptor>
prm/pocket_docking_2.prm

>  <SCORE>
-12.7402

>  <SCORE.INTER>
-4.4037

>  <SCORE.INTER.CONST>
1

>  <SCORE.INTER.POLAR>
0

>  <SCORE.INTER.ROT>
7

>  <SCORE.INTER.SOLV>
13.4109

>  <SCORE.INTER.VDW>
-15.6728

>  <SCORE.INTER.norm>
-0.1631

>  <SCORE.INTRA>
-10.5121

>  <SCORE.INTRA.DIHEDRAL>
-8.38994

>  <SCORE.INTRA.DIHEDRAL.0>
15.0182

>  <SCORE.INTRA.POLAR>
0

>  <SCORE.INTRA.POLAR.0>
0

>  <SCORE.INTRA.REPUL>
0

>  <SCORE.INTRA.REPUL.0>
0

>  <SCORE.INTRA.SOLV>
-0.683566

>  <SCORE.INTRA.SOLV.lig_0>
-47.9129

>  <SCORE.INTRA.VDW>
-5.97534

>  <SCORE.INTRA.VDW.0>
2.00851

>  <SCORE.INTRA.norm>
-0.389337

>  <SCORE.RESTR>
2.17561

>  <SCORE.RESTR.CAVITY>
2.17561

>  <SCORE.RESTR.norm>
0.0805781

>  <SCORE.SYSTEM>
0

>  <SCORE.SYSTEM.CONST>
0

>  <SCORE.SYSTEM.DIHEDRAL>
0

>  <SCORE.SYSTEM.SOLV>
0

>  <SCORE.SYSTEM.norm>
0

>  <SCORE.heavy>
27

>  <SCORE.norm>
-0.471859

>  <RMSD>
5.225

$$$$
ligand
 OpenBabel11021811483D
libRbt.so/2013.1/901 2013/11/27
 27 29  0  0  0  0  0  0  0  0999 V2000
  -16.0498   -5.0451   29.2234 N   0  0  0  0  0  0  0  0  0  0  0  0
  -14.8795   -4.5125   28.5307 C   0  0  2  0  0  0  0  0  0  0  0  0
  -14.2001   -5.5702   27.6650 C   0  0  0  0  0  0  0  0  0  0  0  0
  -14.0143   -6.7143   28.0857 O   0  0  0  0  0  0  0  0  0  0  0  0
  -13.8985   -3.8893   29.5192 C   0  0  0  0  0  0  0  0  0  0  0  0
  -13.4074   -4.8655   30.5770 C   0  0  0  0  0  0  0  0  0  0  0  0
  -13.6699   -4.2974   32.2754 S   0  0  2  0  0  0  0  0  0  0  0  0
  -12.5068   -2.9119   32.3414 C   0  0  0  0  0  0  0  0  0  0  0  0
  -12.7660   -5.5642   33.2063 C   0  0  0  0  0  0  0  0  0  0  0  0
  -13.6715   -6.7665   33.4320 C   0  0  1  0  0  0  0  0  0  0  0  0
  -14.2568   -7.1173   32.2007 O   0  0  0  0  0  0  0  0  0  0  0  0
  -12.9793   -8.0331   33.8994 C   0  0  1  0  0  0  0  0  0  0  0  0
  -13.0503   -8.1579   35.3023 O   0  0  0  0  0  0  0  0  0  0  0  0
  -13.7898   -9.1295   33.2383 C   0  0  1  0  0  0  0  0  0  0  0  0
  -14.5912   -9.7426   34.2180 O   0  0  0  0  0  0  0  0  0  0  0  0
  -14.6799   -8.4567   32.2021 C   0  0  2  0  0  0  0  0  0  0  0  0
  -13.8185   -5.2974   26.5268 O   0  0  0  0  0  0  0  0  0  0  0  0
  -11.3587   -8.7371   28.1197 N   0  0  0  0  0  0  0  0  0  0  0  0
  -11.2259   -7.9947   29.2765 C   0  0  0  0  0  0  0  0  0  0  0  0
  -12.2018   -8.0355   30.2543 N   0  0  0  0  0  0  0  0  0  0  0  0
  -13.3053   -8.8026   30.0871 C   0  0  0  0  0  0  0  0  0  0  0  0
  -13.4521   -9.5629   28.9335 C   0  0  0  0  0  0  0  0  0  0  0  0
  -12.4761   -9.5245   27.9452 C   0  0  0  0  0  0  0  0  0  0  0  0
  -12.6214  -10.2455   26.8361 N   0  0  0  0  0  0  0  0  0  0  0  0
  -14.6219  -10.2314   29.0241 N   0  0  0  0  0  0  0  0  0  0  0  0
  -15.2046   -9.9265   30.2074 C   0  0  0  0  0  0  0  0  0  0  0  0
  -14.4027   -9.0426   30.8799 N   0  0  0  0  0  0  0  0  0  0  0  0
  2  1  1  1  0  0  0
  2  3  1  0  0  0  0
  2  5  1  0  0  0  0
  3  4  1  0  0  0  0
  3 17  1  0  0  0  0
  5  6  1  0  0  0  0
  7  6  1  6  0  0  0
  7  8  1  0  0  0  0
  7  9  1  0  0  0  0
 10  9  1  6  0  0  0
 10 11  1  0  0  0  0
 10 12  1  0  0  0  0
 11 16  1  0  0  0  0
 12 13  1  1  0  0  0
 12 14  1  0  0  0  0
 14 15  1  1  0  0  0
 14 16  1  0  0  0  0
 16 27  1  6  0  0  0
 18 19  2  0  0  0  0
 18 23  1  0  0  0  0
 19 20  1  0  0  0  0
 20 21  2  0  0  0  0
 21 22  1  0  0  0  0
 21 27  1  0  0  0  0
 22 23  2  0  0  0  0
 22 25  1  0  0  0  0
 23 24  1  0  0  0  0
 25 26  2  0  0  0  0
 26 27  1  0  0  0  0
M  END
>  <CHROM.1>
-43.93985994,58.62439099,-125.08386631,-68.36009582,-84.69968520,49.09589754
37.70247344,-13.60938460,-7.15069243,30.64797841,1.08281082,1.51907500,-1.26114553

>  <Name>
ligand

>  <RI>
0

>  <Rbt.Current_Directory>
/home/itssahil/PROJECTS/Mol_Feturizer/New_Systems/rnas/3GX6

>  <Rbt.Executable>
rbdock ($Id: //depot/dev/client3/rdock/2013.1/src/exe/rbdock.cxx#4 $)

>  <Rbt.Library>
libRbt.so (2013.1, Build901 2013/11/27)

>  <Rbt.Parameter_File>
/export/apps/rDock/src/rDock_2013.1_src/data/scripts/dock_solv.prm

>  <Rbt.Receptor>
prm/pocket_docking_3.prm

>  <SCORE>
-21.9982

>  <SCORE.INTER>
-12.7977

>  <SCORE.INTER.CONST>
1

>  <SCORE.INTER.POLAR>
0

>  <SCORE.INTER.ROT>
7

>  <SCORE.INTER.SOLV>
10.0244

>  <SCORE.INTER.VDW>
-20.14

>  <SCORE.INTER.norm>
-0.47399

>  <SCORE.INTRA>
-9.20043

>  <SCORE.INTRA.DIHEDRAL>
-5.24599

>  <SCORE.INTRA.DIHEDRAL.0>
15.0182

>  <SCORE.INTRA.POLAR>
0

>  <SCORE.INTRA.POLAR.0>
0

>  <SCORE.INTRA.REPUL>
0

>  <SCORE.INTRA.REPUL.0>
0

>  <SCORE.INTRA.SOLV>
-0.312701

>  <SCORE.INTRA.SOLV.lig_0>
-47.9129

>  <SCORE.INTRA.VDW>
-6.42109

>  <SCORE.INTRA.VDW.0>
2.00851

>  <SCORE.INTRA.norm>
-0.340757

>  <SCORE.RESTR>
0

>  <SCORE.RESTR.CAVITY>
0

>  <SCORE.RESTR.norm>
0

>  <SCORE.SYSTEM>
0

>  <SCORE.SYSTEM.CONST>
0

>  <SCORE.SYSTEM.DIHEDRAL>
0

>  <SCORE.SYSTEM.SOLV>
0

>  <SCORE.SYSTEM.norm>
0

>  <SCORE.heavy>
27

>  <SCORE.norm>
-0.814747

>  <RMSD>
5.227

$$$$
ligand
 OpenBabel11021811483D
libRbt.so/2013.1/901 2013/11/27
 27 29  0  0  0  0  0  0  0  0999 V2000
  -14.1436   -3.9039   27.5202 N   0  0  0  0  0  0  0  0  0  0  0  0
  -15.0118   -4.8045   28.2739 C   0  0  2  0  0  0  0  0  0  0  0  0
  -16.0146   -5.5171   27.3702 C   0  0  0  0  0  0  0  0  0  0  0  0
  -17.0973   -4.9994   27.0875 O   0  0  0  0  0  0  0  0  0  0  0  0
  -15.7144   -4.0622   29.4067 C   0  0  0  0  0  0  0  0  0  0  0  0
  -14.7527   -3.4535   30.4156 C   0  0  0  0  0  0  0  0  0  0  0  0
  -13.7669   -4.6754   31.3164 S   0  0  2  0  0  0  0  0  0  0  0  0
  -12.7306   -3.5839   32.3220 C   0  0  0  0  0  0  0  0  0  0  0  0
  -12.5966   -5.1900   30.0303 C   0  0  0  0  0  0  0  0  0  0  0  0
  -12.5199   -6.7097   29.9969 C   0  0  1  0  0  0  0  0  0  0  0  0
  -12.5667   -7.1846   31.3212 O   0  0  0  0  0  0  0  0  0  0  0  0
  -13.6702   -7.4115   29.2996 C   0  0  1  0  0  0  0  0  0  0  0  0
  -13.3394   -7.7147   27.9627 O   0  0  0  0  0  0  0  0  0  0  0  0
  -13.8262   -8.6891   30.0992 C   0  0  1  0  0  0  0  0  0  0  0  0
  -13.3079   -9.7544   29.3413 O   0  0  0  0  0  0  0  0  0  0  0  0
  -13.0012   -8.5195   31.3677 C   0  0  2  0  0  0  0  0  0  0  0  0
  -15.7613   -6.6301   26.9088 O   0  0  0  0  0  0  0  0  0  0  0  0
  -13.4929   -8.1297   36.6004 N   0  0  0  0  0  0  0  0  0  0  0  0
  -12.3887   -7.8372   35.8243 C   0  0  0  0  0  0  0  0  0  0  0  0
  -12.4301   -8.0000   34.4525 N   0  0  0  0  0  0  0  0  0  0  0  0
  -13.5557   -8.4540   33.8518 C   0  0  0  0  0  0  0  0  0  0  0  0
  -14.6793   -8.7453   34.6155 C   0  0  0  0  0  0  0  0  0  0  0  0
  -14.6437   -8.5864   35.9955 C   0  0  0  0  0  0  0  0  0  0  0  0
  -15.7169   -8.8745   36.7278 N   0  0  0  0  0  0  0  0  0  0  0  0
  -15.6516   -9.1661   33.7781 N   0  0  0  0  0  0  0  0  0  0  0  0
  -15.1770   -9.1310   32.5108 C   0  0  0  0  0  0  0  0  0  0  0  0
  -13.8797   -8.6916   32.5369 N   0  0  0  0  0  0  0  0  0  0  0  0
  2  1  1  6  0  0  0
  2  3  1  0  0  0  0
  2  5  1  0  0  0  0
  3  4  1  0  0  0  0
  3 17  1  0  0  0  0
  5  6  1  0  0  0  0
  7  6  1  6  0  0  0
  7  8  1  0  0  0  0
  7  9  1  0  0  0  0
 10  9  1  1  0  0  0
 10 11  1  0  0  0  0
 10 12  1  0  0  0  0
 11 16  1  0  0  0  0
 12 13  1  6  0  0  0
 12 14  1  0  0  0  0
 14 15  1  6  0  0  0
 14 16  1  0  0  0  0
 16 27  1  1  0  0  0
 18 19  2  0  0  0  0
 18 23  1  0  0  0  0
 19 20  1  0  0  0  0
 20 21  2  0  0  0  0
 21 22  1  0  0  0  0
 21 27  1  0  0  0  0
 22 23  2  0  0  0  0
 22 25  1  0  0  0  0
 23 24  1  0  0  0  0
 25 26  2  0  0  0  0
 26 27  1  0  0  0  0
M  END
>  <CHROM.1>
-86.55029029,-60.54494045,-63.87193223,177.43347308,-132.64750021,-38.87901852
-58.33627770,-14.11224746,-6.83386338,31.25382399,-2.49759751,1.41972085
2.92725615

>  <Name>
ligand

>  <RI>
0

>  <Rbt.Current_Directory>
/home/itssahil/PROJECTS/Mol_Feturizer/New_Systems/rnas/3GX6

>  <Rbt.Executable>
rbdock ($Id: //depot/dev/client3/rdock/2013.1/src/exe/rbdock.cxx#4 $)

>  <Rbt.Library>
libRbt.so (2013.1, Build901 2013/11/27)

>  <Rbt.Parameter_File>
/export/apps/rDock/src/rDock_2013.1_src/data/scripts/dock_solv.prm

>  <Rbt.Receptor>
prm/pocket_docking_2.prm

>  <SCORE>
-10.8561

>  <SCORE.INTER>
-6.31253

>  <SCORE.INTER.CONST>
1

>  <SCORE.INTER.POLAR>
0

>  <SCORE.INTER.ROT>
7

>  <SCORE.INTER.SOLV>
16.6647

>  <SCORE.INTER.VDW>
-18.0299

>  <SCORE.INTER.norm>
-0.233797

>  <SCORE.INTRA>
-6.31975

>  <SCORE.INTRA.DIHEDRAL>
-5.92449

>  <SCORE.INTRA.DIHEDRAL.0>
15.0182

>  <SCORE.INTRA.POLAR>
0

>  <SCORE.INTRA.POLAR.0>
0

>  <SCORE.INTRA.REPUL>
0

>  <SCORE.INTRA.REPUL.0>
0

>  <SCORE.INTRA.SOLV>
2.14563

>  <SCORE.INTRA.SOLV.lig_0>
-47.9129

>  <SCORE.INTRA.VDW>
-4.43032

>  <SCORE.INTRA.VDW.0>
2.00851

>  <SCORE.INTRA.norm>
-0.234065

>  <SCORE.RESTR>
1.7762

>  <SCORE.RESTR.CAVITY>
1.7762

>  <SCORE.RESTR.norm>
0.065785

>  <SCORE.SYSTEM>
0

>  <SCORE.SYSTEM.CONST>
0

>  <SCORE.SYSTEM.DIHEDRAL>
0

>  <SCORE.SYSTEM.SOLV>
0

>  <SCORE.SYSTEM.norm>
0

>  <SCORE.heavy>
27

>  <SCORE.norm>
-0.402077

>  <RMSD>
5.233

$$$$
ligand
 OpenBabel11021811483D
libRbt.so/2013.1/901 2013/11/27
 27 29  0  0  0  0  0  0  0  0999 V2000
  -16.5830   -5.6598   28.4602 N   0  0  0  0  0  0  0  0  0  0  0  0
  -17.7936   -5.5085   29.2630 C   0  0  2  0  0  0  0  0  0  0  0  0
  -18.9150   -4.8309   28.4797 C   0  0  0  0  0  0  0  0  0  0  0  0
  -20.0846   -5.2057   28.5888 O   0  0  0  0  0  0  0  0  0  0  0  0
  -17.4962   -4.7662   30.5624 C   0  0  0  0  0  0  0  0  0  0  0  0
  -16.6105   -3.5450   30.3694 C   0  0  0  0  0  0  0  0  0  0  0  0
  -16.0989   -2.7600   31.9180 S   0  0  2  0  0  0  0  0  0  0  0  0
  -17.2330   -1.3498   31.9613 C   0  0  0  0  0  0  0  0  0  0  0  0
  -14.5554   -1.9584   31.4047 C   0  0  0  0  0  0  0  0  0  0  0  0
  -13.4782   -3.0159   31.2104 C   0  0  1  0  0  0  0  0  0  0  0  0
  -13.2682   -3.6655   32.4415 O   0  0  0  0  0  0  0  0  0  0  0  0
  -13.8201   -4.1337   30.2432 C   0  0  1  0  0  0  0  0  0  0  0  0
  -13.2977   -3.8677   28.9606 O   0  0  0  0  0  0  0  0  0  0  0  0
  -13.1238   -5.3352   30.8493 C   0  0  1  0  0  0  0  0  0  0  0  0
  -11.9840   -5.6248   30.0781 O   0  0  0  0  0  0  0  0  0  0  0  0
  -12.6976   -4.9354   32.2555 C   0  0  2  0  0  0  0  0  0  0  0  0
  -18.6700   -3.8962   27.7169 O   0  0  0  0  0  0  0  0  0  0  0  0
  -17.0994   -7.2720   33.9700 N   0  0  0  0  0  0  0  0  0  0  0  0
  -16.9614   -6.3726   32.9313 C   0  0  0  0  0  0  0  0  0  0  0  0
  -15.7221   -5.8497   32.6136 N   0  0  0  0  0  0  0  0  0  0  0  0
  -14.6259   -6.2106   33.3221 C   0  0  0  0  0  0  0  0  0  0  0  0
  -14.7440   -7.1210   34.3651 C   0  0  0  0  0  0  0  0  0  0  0  0
  -15.9874   -7.6485   34.6916 C   0  0  0  0  0  0  0  0  0  0  0  0
  -16.1018   -8.5132   35.6968 N   0  0  0  0  0  0  0  0  0  0  0  0
  -13.5148   -7.3097   34.8914 N   0  0  0  0  0  0  0  0  0  0  0  0
  -12.6269   -6.5584   34.1986 C   0  0  0  0  0  0  0  0  0  0  0  0
  -13.2975   -5.8708   33.2217 N   0  0  0  0  0  0  0  0  0  0  0  0
  2  1  1  6  0  0  0
  2  3  1  0  0  0  0
  2  5  1  0  0  0  0
  3  4  1  0  0  0  0
  3 17  1  0  0  0  0
  5  6  1  0  0  0  0
  7  6  1  6  0  0  0
  7  8  1  0  0  0  0
  7  9  1  0  0  0  0
 10  9  1  1  0  0  0
 10 11  1  0  0  0  0
 10 12  1  0  0  0  0
 11 16  1  0  0  0  0
 12 13  1  6  0  0  0
 12 14  1  0  0  0  0
 14 15  1  6  0  0  0
 14 16  1  0  0  0  0
 16 27  1  1  0  0  0
 18 19  2  0  0  0  0
 18 23  1  0  0  0  0
 19 20  1  0  0  0  0
 20 21  2  0  0  0  0
 21 22  1  0  0  0  0
 21 27  1  0  0  0  0
 22 23  2  0  0  0  0
 22 25  1  0  0  0  0
 23 24  1  0  0  0  0
 25 26  2  0  0  0  0
 26 27  1  0  0  0  0
M  END
>  <CHROM.1>
140.24259205,44.60482968,-173.61649050,-101.82679413,-72.82246747,-61.39057091
60.68547413,-15.46796247,-4.96892285,31.58364981,2.19406387,-0.29333859,-0.87279143

>  <Name>
ligand

>  <RI>
0

>  <Rbt.Current_Directory>
/home/itssahil/PROJECTS/Mol_Feturizer/New_Systems/rnas/3GX6

>  <Rbt.Executable>
rbdock ($Id: //depot/dev/client3/rdock/2013.1/src/exe/rbdock.cxx#4 $)

>  <Rbt.Library>
libRbt.so (2013.1, Build901 2013/11/27)

>  <Rbt.Parameter_File>
/export/apps/rDock/src/rDock_2013.1_src/data/scripts/dock_solv.prm

>  <Rbt.Receptor>
prm/pocket_docking_6.prm

>  <SCORE>
-25.3623

>  <SCORE.INTER>
-17.2369

>  <SCORE.INTER.CONST>
1

>  <SCORE.INTER.POLAR>
0

>  <SCORE.INTER.ROT>
7

>  <SCORE.INTER.SOLV>
14.457

>  <SCORE.INTER.VDW>
-24.5769

>  <SCORE.INTER.norm>
-0.638402

>  <SCORE.INTRA>
-8.12545

>  <SCORE.INTRA.DIHEDRAL>
-8.0814

>  <SCORE.INTRA.DIHEDRAL.0>
15.0182

>  <SCORE.INTRA.POLAR>
0

>  <SCORE.INTRA.POLAR.0>
0

>  <SCORE.INTRA.REPUL>
0

>  <SCORE.INTRA.REPUL.0>
0

>  <SCORE.INTRA.SOLV>
0.809954

>  <SCORE.INTRA.SOLV.lig_0>
-47.9129

>  <SCORE.INTRA.VDW>
-4.48973

>  <SCORE.INTRA.VDW.0>
2.00851

>  <SCORE.INTRA.norm>
-0.300943

>  <SCORE.RESTR>
0

>  <SCORE.RESTR.CAVITY>
0

>  <SCORE.RESTR.norm>
0

>  <SCORE.SYSTEM>
0

>  <SCORE.SYSTEM.CONST>
0

>  <SCORE.SYSTEM.DIHEDRAL>
0

>  <SCORE.SYSTEM.SOLV>
0

>  <SCORE.SYSTEM.norm>
0

>  <SCORE.heavy>
27

>  <SCORE.norm>
-0.939345

>  <RMSD>
5.240

$$$$
ligand
 OpenBabel11021811483D
libRbt.so/2013.1/901 2013/11/27
 27 29  0  0  0  0  0  0  0  0999 V2000
  -21.6980  -10.0300   28.3074 N   0  0  0  0  0  0  0  0  0  0  0  0
  -20.5264   -9.5472   29.0334 C   0  0  2  0  0  0  0  0  0  0  0  0
  -19.2241   -9.9925   28.3732 C   0  0  0  0  0  0  0  0  0  0  0  0
  -19.2274  -10.7862   27.4296 O   0  0  0  0  0  0  0  0  0  0  0  0
  -20.5803   -9.9714   30.4980 C   0  0  0  0  0  0  0  0  0  0  0  0
  -19.5812   -9.2339   31.3760 C   0  0  0  0  0  0  0  0  0  0  0  0
  -19.9282   -9.3638   33.1477 S   0  0  2  0  0  0  0  0  0  0  0  0
  -21.4088   -8.3296   33.2688 C   0  0  0  0  0  0  0  0  0  0  0  0
  -18.6645   -8.2557   33.8287 C   0  0  0  0  0  0  0  0  0  0  0  0
  -17.3875   -9.0433   34.0840 C   0  0  1  0  0  0  0  0  0  0  0  0
  -16.3311   -8.4056   33.4066 O   0  0  0  0  0  0  0  0  0  0  0  0
  -16.9307   -9.1057   35.5294 C   0  0  1  0  0  0  0  0  0  0  0  0
  -17.3716  -10.2946   36.1465 O   0  0  0  0  0  0  0  0  0  0  0  0
  -15.4201   -9.1110   35.4106 C   0  0  1  0  0  0  0  0  0  0  0  0
  -14.9573  -10.4117   35.6785 O   0  0  0  0  0  0  0  0  0  0  0  0
  -15.0893   -8.7406   33.9712 C   0  0  2  0  0  0  0  0  0  0  0  0
  -18.1407   -9.5692   28.7764 O   0  0  0  0  0  0  0  0  0  0  0  0
  -14.7649   -3.5535   33.0971 N   0  0  0  0  0  0  0  0  0  0  0  0
  -15.8699   -4.3716   32.9685 C   0  0  0  0  0  0  0  0  0  0  0  0
  -15.7789   -5.7241   33.2381 N   0  0  0  0  0  0  0  0  0  0  0  0
  -14.6005   -6.2655   33.6282 C   0  0  0  0  0  0  0  0  0  0  0  0
  -13.4801   -5.4564   33.7714 C   0  0  0  0  0  0  0  0  0  0  0  0
  -13.5639   -4.0963   33.4994 C   0  0  0  0  0  0  0  0  0  0  0  0
  -12.4882   -3.3232   33.6274 N   0  0  0  0  0  0  0  0  0  0  0  0
  -12.4541   -6.2370   34.1733 N   0  0  0  0  0  0  0  0  0  0  0  0
  -12.9017   -7.5080   34.3031 C   0  0  0  0  0  0  0  0  0  0  0  0
  -14.2300   -7.5447   33.9699 N   0  0  0  0  0  0  0  0  0  0  0  0
  2  1  1  6  0  0  0
  2  3  1  0  0  0  0
  2  5  1  0  0  0  0
  3  4  1  0  0  0  0
  3 17  1  0  0  0  0
  5  6  1  0  0  0  0
  7  6  1  6  0  0  0
  7  8  1  0  0  0  0
  7  9  1  0  0  0  0
 10  9  1  1  0  0  0
 10 11  1  0  0  0  0
 10 12  1  0  0  0  0
 11 16  1  0  0  0  0
 12 13  1  6  0  0  0
 12 14  1  0  0  0  0
 14 15  1  6  0  0  0
 14 16  1  0  0  0  0
 16 27  1  1  0  0  0
 18 19  2  0  0  0  0
 18 23  1  0  0  0  0
 19 20  1  0  0  0  0
 20 21  2  0  0  0  0
 21 22  1  0  0  0  0
 21 27  1  0  0  0  0
 22 23  2  0  0  0  0
 22 25  1  0  0  0  0
 23 24  1  0  0  0  0
 25 26  2  0  0  0  0
 26 27  1  0  0  0  0
M  END
>  <CHROM.1>
-7.32933112,-166.19331214,163.73243678,-70.85802863,-88.60869123,125.08835936
7.10523660,-16.98531625,-8.08913624,32.75726097,-2.91655592,0.71042928,2.04666548

>  <Name>
ligand

>  <RI>
0

>  <Rbt.Current_Directory>
/home/itssahil/PROJECTS/Mol_Feturizer/New_Systems/rnas/3GX6

>  <Rbt.Executable>
rbdock ($Id: //depot/dev/client3/rdock/2013.1/src/exe/rbdock.cxx#4 $)

>  <Rbt.Library>
libRbt.so (2013.1, Build901 2013/11/27)

>  <Rbt.Parameter_File>
/export/apps/rDock/src/rDock_2013.1_src/data/scripts/dock_solv.prm

>  <Rbt.Receptor>
prm/pocket_docking_8.prm

>  <SCORE>
-19.2991

>  <SCORE.INTER>
-12.2295

>  <SCORE.INTER.CONST>
1

>  <SCORE.INTER.POLAR>
0

>  <SCORE.INTER.ROT>
7

>  <SCORE.INTER.SOLV>
18.4825

>  <SCORE.INTER.VDW>
-22.5805

>  <SCORE.INTER.norm>
-0.452946

>  <SCORE.INTRA>
-7.06958

>  <SCORE.INTRA.DIHEDRAL>
-3.94436

>  <SCORE.INTRA.DIHEDRAL.0>
15.0182

>  <SCORE.INTRA.POLAR>
0

>  <SCORE.INTRA.POLAR.0>
0

>  <SCORE.INTRA.REPUL>
0

>  <SCORE.INTRA.REPUL.0>
0

>  <SCORE.INTRA.SOLV>
-1.77689

>  <SCORE.INTRA.SOLV.lig_0>
-47.9129

>  <SCORE.INTRA.VDW>
-4.20895

>  <SCORE.INTRA.VDW.0>
2.00851

>  <SCORE.INTRA.norm>
-0.261836

>  <SCORE.RESTR>
0

>  <SCORE.RESTR.CAVITY>
0

>  <SCORE.RESTR.norm>
0

>  <SCORE.SYSTEM>
0

>  <SCORE.SYSTEM.CONST>
0

>  <SCORE.SYSTEM.DIHEDRAL>
0

>  <SCORE.SYSTEM.SOLV>
0

>  <SCORE.SYSTEM.norm>
0

>  <SCORE.heavy>
27

>  <SCORE.norm>
-0.714782

>  <RMSD>
5.242

$$$$
ligand
 OpenBabel11021811483D
libRbt.so/2013.1/901 2013/11/27
 27 29  0  0  0  0  0  0  0  0999 V2000
  -15.7668   -4.9049   29.5612 N   0  0  0  0  0  0  0  0  0  0  0  0
  -14.5216   -4.7587   28.8122 C   0  0  2  0  0  0  0  0  0  0  0  0
  -14.5355   -5.5719   27.5205 C   0  0  0  0  0  0  0  0  0  0  0  0
  -14.6834   -6.7959   27.5400 O   0  0  0  0  0  0  0  0  0  0  0  0
  -13.3188   -5.1153   29.6805 C   0  0  0  0  0  0  0  0  0  0  0  0
  -12.9883   -4.0530   30.7175 C   0  0  0  0  0  0  0  0  0  0  0  0
  -13.9255   -4.2170   32.2574 S   0  0  2  0  0  0  0  0  0  0  0  0
  -13.4738   -2.6705   33.0826 C   0  0  0  0  0  0  0  0  0  0  0  0
  -12.9018   -5.4122   33.1584 C   0  0  0  0  0  0  0  0  0  0  0  0
  -13.7193   -6.6644   33.4414 C   0  0  1  0  0  0  0  0  0  0  0  0
  -14.3815   -7.0380   32.2566 O   0  0  0  0  0  0  0  0  0  0  0  0
  -12.9238   -7.8942   33.8373 C   0  0  1  0  0  0  0  0  0  0  0  0
  -12.8752   -8.0329   35.2398 O   0  0  0  0  0  0  0  0  0  0  0  0
  -13.7237   -9.0288   33.2300 C   0  0  1  0  0  0  0  0  0  0  0  0
  -14.4093   -9.6925   34.2632 O   0  0  0  0  0  0  0  0  0  0  0  0
  -14.7294   -8.3987   32.2760 C   0  0  2  0  0  0  0  0  0  0  0  0
  -14.3933   -5.0182   26.4301 O   0  0  0  0  0  0  0  0  0  0  0  0
  -11.3447   -9.2656   28.3304 N   0  0  0  0  0  0  0  0  0  0  0  0
  -11.1016   -8.6473   29.5411 C   0  0  0  0  0  0  0  0  0  0  0  0
  -12.1134   -8.4990   30.4708 N   0  0  0  0  0  0  0  0  0  0  0  0
  -13.3600   -8.9554   30.2030 C   0  0  0  0  0  0  0  0  0  0  0  0
  -13.6213   -9.5877   28.9937 C   0  0  0  0  0  0  0  0  0  0  0  0
  -12.6093   -9.7378   28.0534 C   0  0  0  0  0  0  0  0  0  0  0  0
  -12.8621  -10.3350   26.8912 N   0  0  0  0  0  0  0  0  0  0  0  0
  -14.9230   -9.9470   28.9869 N   0  0  0  0  0  0  0  0  0  0  0  0
  -15.4814   -9.5745   30.1625 C   0  0  0  0  0  0  0  0  0  0  0  0
  -14.5275   -8.9588   30.9291 N   0  0  0  0  0  0  0  0  0  0  0  0
  2  1  1  1  0  0  0
  2  3  1  0  0  0  0
  2  5  1  0  0  0  0
  3  4  1  0  0  0  0
  3 17  1  0  0  0  0
  5  6  1  0  0  0  0
  7  6  1  6  0  0  0
  7  8  1  0  0  0  0
  7  9  1  0  0  0  0
 10  9  1  6  0  0  0
 10 11  1  0  0  0  0
 10 12  1  0  0  0  0
 11 16  1  0  0  0  0
 12 13  1  1  0  0  0
 12 14  1  0  0  0  0
 14 15  1  1  0  0  0
 14 16  1  0  0  0  0
 16 27  1  6  0  0  0
 18 19  2  0  0  0  0
 18 23  1  0  0  0  0
 19 20  1  0  0  0  0
 20 21  2  0  0  0  0
 21 22  1  0  0  0  0
 21 27  1  0  0  0  0
 22 23  2  0  0  0  0
 22 25  1  0  0  0  0
 23 24  1  0  0  0  0
 25 26  2  0  0  0  0
 26 27  1  0  0  0  0
M  END
>  <CHROM.1>
-59.57187487,-74.03243712,85.69442005,-171.04918581,-118.91044094,46.80242488
57.04181815,-13.70140891,-7.16244654,30.71014624,1.47064798,1.45166373,-1.89900582

>  <Name>
ligand

>  <RI>
0

>  <Rbt.Current_Directory>
/home/itssahil/PROJECTS/Mol_Feturizer/New_Systems/rnas/3GX6

>  <Rbt.Executable>
rbdock ($Id: //depot/dev/client3/rdock/2013.1/src/exe/rbdock.cxx#4 $)

>  <Rbt.Library>
libRbt.so (2013.1, Build901 2013/11/27)

>  <Rbt.Parameter_File>
/export/apps/rDock/src/rDock_2013.1_src/data/scripts/dock_solv.prm

>  <Rbt.Receptor>
prm/pocket_docking_3.prm

>  <SCORE>
-21.9175

>  <SCORE.INTER>
-13.1834

>  <SCORE.INTER.CONST>
1

>  <SCORE.INTER.POLAR>
0

>  <SCORE.INTER.ROT>
7

>  <SCORE.INTER.SOLV>
10.5965

>  <SCORE.INTER.VDW>
-20.5878

>  <SCORE.INTER.norm>
-0.488274

>  <SCORE.INTRA>
-8.73412

>  <SCORE.INTRA.DIHEDRAL>
-3.43683

>  <SCORE.INTRA.DIHEDRAL.0>
15.0182

>  <SCORE.INTRA.POLAR>
0

>  <SCORE.INTRA.POLAR.0>
0

>  <SCORE.INTRA.REPUL>
0

>  <SCORE.INTRA.REPUL.0>
0

>  <SCORE.INTRA.SOLV>
0.411628

>  <SCORE.INTRA.SOLV.lig_0>
-47.9129

>  <SCORE.INTRA.VDW>
-7.22152

>  <SCORE.INTRA.VDW.0>
2.00851

>  <SCORE.INTRA.norm>
-0.323486

>  <SCORE.RESTR>
0

>  <SCORE.RESTR.CAVITY>
0

>  <SCORE.RESTR.norm>
0

>  <SCORE.SYSTEM>
0

>  <SCORE.SYSTEM.CONST>
0

>  <SCORE.SYSTEM.DIHEDRAL>
0

>  <SCORE.SYSTEM.SOLV>
0

>  <SCORE.SYSTEM.norm>
0

>  <SCORE.heavy>
27

>  <SCORE.norm>
-0.81176

>  <RMSD>
5.266

$$$$
ligand
 OpenBabel11021811483D
libRbt.so/2013.1/901 2013/11/27
 27 29  0  0  0  0  0  0  0  0999 V2000
  -15.6944   -4.4687   32.3901 N   0  0  0  0  0  0  0  0  0  0  0  0
  -14.9827   -3.4582   31.6120 C   0  0  2  0  0  0  0  0  0  0  0  0
  -14.3833   -2.3725   32.5019 C   0  0  0  0  0  0  0  0  0  0  0  0
  -14.7163   -1.1917   32.3780 O   0  0  0  0  0  0  0  0  0  0  0  0
  -15.8874   -2.8604   30.5387 C   0  0  0  0  0  0  0  0  0  0  0  0
  -16.2292   -3.8387   29.4256 C   0  0  0  0  0  0  0  0  0  0  0  0
  -14.7833   -4.4823   28.5472 S   0  0  2  0  0  0  0  0  0  0  0  0
  -15.2999   -4.2242   26.8316 C   0  0  0  0  0  0  0  0  0  0  0  0
  -15.0363   -6.2687   28.7291 C   0  0  0  0  0  0  0  0  0  0  0  0
  -13.7126   -6.9324   29.0809 C   0  0  1  0  0  0  0  0  0  0  0  0
  -13.2943   -6.4487   30.3350 O   0  0  0  0  0  0  0  0  0  0  0  0
  -13.7563   -8.4396   29.2492 C   0  0  1  0  0  0  0  0  0  0  0  0
  -13.3660   -9.0908   28.0609 O   0  0  0  0  0  0  0  0  0  0  0  0
  -12.7350   -8.6916   30.3398 C   0  0  1  0  0  0  0  0  0  0  0  0
  -11.5823   -9.2418   29.7512 O   0  0  0  0  0  0  0  0  0  0  0  0
  -12.3972   -7.3378   30.9495 C   0  0  2  0  0  0  0  0  0  0  0  0
  -13.5482   -2.6567   33.3606 O   0  0  0  0  0  0  0  0  0  0  0  0
  -15.7139   -8.8953   34.7375 N   0  0  0  0  0  0  0  0  0  0  0  0
  -15.8310   -9.0797   33.3740 C   0  0  0  0  0  0  0  0  0  0  0  0
  -14.8615   -8.6001   32.5136 N   0  0  0  0  0  0  0  0  0  0  0  0
  -13.7845   -7.9376   32.9985 C   0  0  0  0  0  0  0  0  0  0  0  0
  -13.6454   -7.7501   34.3682 C   0  0  0  0  0  0  0  0  0  0  0  0
  -14.6177   -8.2274   35.2387 C   0  0  0  0  0  0  0  0  0  0  0  0
  -14.4891   -8.0393   36.5499 N   0  0  0  0  0  0  0  0  0  0  0  0
  -12.4944   -7.0761   34.5793 N   0  0  0  0  0  0  0  0  0  0  0  0
  -11.8991   -6.8507   33.3845 C   0  0  0  0  0  0  0  0  0  0  0  0
  -12.6840   -7.3780   32.3933 N   0  0  0  0  0  0  0  0  0  0  0  0
  2  1  1  1  0  0  0
  2  3  1  0  0  0  0
  2  5  1  0  0  0  0
  3  4  1  0  0  0  0
  3 17  1  0  0  0  0
  5  6  1  0  0  0  0
  7  6  1  1  0  0  0
  7  8  1  0  0  0  0
  7  9  1  0  0  0  0
 10  9  1  1  0  0  0
 10 11  1  0  0  0  0
 10 12  1  0  0  0  0
 11 16  1  0  0  0  0
 12 13  1  6  0  0  0
 12 14  1  0  0  0  0
 14 15  1  6  0  0  0
 14 16  1  0  0  0  0
 16 27  1  1  0  0  0
 18 19  2  0  0  0  0
 18 23  1  0  0  0  0
 19 20  1  0  0  0  0
 20 21  2  0  0  0  0
 21 22  1  0  0  0  0
 21 27  1  0  0  0  0
 22 23  2  0  0  0  0
 22 25  1  0  0  0  0
 23 24  1  0  0  0  0
 25 26  2  0  0  0  0
 26 27  1  0  0  0  0
M  END
>  <CHROM.1>
-119.55199223,-69.09357520,-59.06231526,-131.23040809,-136.74226628,63.84020825
70.46596327,-14.15027632,-6.22681892,31.41591664,2.28341108,1.29905519,-1.47778176

>  <Name>
ligand

>  <RI>
0

>  <Rbt.Current_Directory>
/home/itssahil/PROJECTS/Mol_Feturizer/New_Systems/rnas/3GX6

>  <Rbt.Executable>
rbdock ($Id: //depot/dev/client3/rdock/2013.1/src/exe/rbdock.cxx#4 $)

>  <Rbt.Library>
libRbt.so (2013.1, Build901 2013/11/27)

>  <Rbt.Parameter_File>
/export/apps/rDock/src/rDock_2013.1_src/data/scripts/dock_solv.prm

>  <Rbt.Receptor>
prm/pocket_docking_2.prm

>  <SCORE>
-13.7245

>  <SCORE.INTER>
-8.50713

>  <SCORE.INTER.CONST>
1

>  <SCORE.INTER.POLAR>
0

>  <SCORE.INTER.ROT>
7

>  <SCORE.INTER.SOLV>
15.5763

>  <SCORE.INTER.VDW>
-19.1302

>  <SCORE.INTER.norm>
-0.315079

>  <SCORE.INTRA>
-6.25765

>  <SCORE.INTRA.DIHEDRAL>
-2.95649

>  <SCORE.INTRA.DIHEDRAL.0>
15.0182

>  <SCORE.INTRA.POLAR>
0

>  <SCORE.INTRA.POLAR.0>
0

>  <SCORE.INTRA.REPUL>
0

>  <SCORE.INTRA.REPUL.0>
0

>  <SCORE.INTRA.SOLV>
0.235238

>  <SCORE.INTRA.SOLV.lig_0>
-47.9129

>  <SCORE.INTRA.VDW>
-4.89702

>  <SCORE.INTRA.VDW.0>
2.00851

>  <SCORE.INTRA.norm>
-0.231765

>  <SCORE.RESTR>
1.04027

>  <SCORE.RESTR.CAVITY>
1.04027

>  <SCORE.RESTR.norm>
0.0385285

>  <SCORE.SYSTEM>
0

>  <SCORE.SYSTEM.CONST>
0

>  <SCORE.SYSTEM.DIHEDRAL>
0

>  <SCORE.SYSTEM.SOLV>
0

>  <SCORE.SYSTEM.norm>
0

>  <SCORE.heavy>
27

>  <SCORE.norm>
-0.508315

>  <RMSD>
5.281

$$$$
ligand
 OpenBabel11021811483D
libRbt.so/2013.1/901 2013/11/27
 27 29  0  0  0  0  0  0  0  0999 V2000
  -15.6697   -4.5773   28.3215 N   0  0  0  0  0  0  0  0  0  0  0  0
  -15.2102   -4.8801   29.6743 C   0  0  2  0  0  0  0  0  0  0  0  0
  -16.2686   -4.5475   30.7228 C   0  0  0  0  0  0  0  0  0  0  0  0
  -16.7144   -5.4164   31.4756 O   0  0  0  0  0  0  0  0  0  0  0  0
  -13.8913   -4.1734   29.9724 C   0  0  0  0  0  0  0  0  0  0  0  0
  -13.1734   -4.7274   31.1934 C   0  0  0  0  0  0  0  0  0  0  0  0
  -13.9628   -4.2970   32.7644 S   0  0  2  0  0  0  0  0  0  0  0  0
  -13.1768   -2.7014   33.1001 C   0  0  0  0  0  0  0  0  0  0  0  0
  -13.0670   -5.3816   33.9088 C   0  0  0  0  0  0  0  0  0  0  0  0
  -13.7558   -6.7377   33.9620 C   0  0  1  0  0  0  0  0  0  0  0  0
  -14.1711   -7.0748   32.6599 O   0  0  0  0  0  0  0  0  0  0  0  0
  -12.8851   -7.9015   34.3975 C   0  0  1  0  0  0  0  0  0  0  0  0
  -13.0410   -8.1596   35.7751 O   0  0  0  0  0  0  0  0  0  0  0  0
  -13.4311   -9.0591   33.5866 C   0  0  1  0  0  0  0  0  0  0  0  0
  -14.1824   -9.8857   34.4411 O   0  0  0  0  0  0  0  0  0  0  0  0
  -14.3448   -8.4621   32.5248 C   0  0  2  0  0  0  0  0  0  0  0  0
  -16.7023   -3.4007   30.8331 O   0  0  0  0  0  0  0  0  0  0  0  0
  -15.6451  -10.1173   27.6931 N   0  0  0  0  0  0  0  0  0  0  0  0
  -16.4868   -9.8152   28.7454 C   0  0  0  0  0  0  0  0  0  0  0  0
  -15.9740   -9.3931   29.9575 N   0  0  0  0  0  0  0  0  0  0  0  0
  -14.6359   -9.2748   30.1295 C   0  0  0  0  0  0  0  0  0  0  0  0
  -13.7740   -9.5660   29.0794 C   0  0  0  0  0  0  0  0  0  0  0  0
  -14.2827   -9.9936   27.8590 C   0  0  0  0  0  0  0  0  0  0  0  0
  -13.4565  -10.2817   26.8563 N   0  0  0  0  0  0  0  0  0  0  0  0
  -12.5110   -9.3602   29.5108 N   0  0  0  0  0  0  0  0  0  0  0  0
  -12.5561   -8.9320   30.7943 C   0  0  0  0  0  0  0  0  0  0  0  0
  -13.8649   -8.8725   31.1944 N   0  0  0  0  0  0  0  0  0  0  0  0
  2  1  1  6  0  0  0
  2  3  1  0  0  0  0
  2  5  1  0  0  0  0
  3  4  1  0  0  0  0
  3 17  1  0  0  0  0
  5  6  1  0  0  0  0
  7  6  1  6  0  0  0
  7  8  1  0  0  0  0
  7  9  1  0  0  0  0
 10  9  1  6  0  0  0
 10 11  1  0  0  0  0
 10 12  1  0  0  0  0
 11 16  1  0  0  0  0
 12 13  1  1  0  0  0
 12 14  1  0  0  0  0
 14 15  1  1  0  0  0
 14 16  1  0  0  0  0
 16 27  1  6  0  0  0
 18 19  2  0  0  0  0
 18 23  1  0  0  0  0
 19 20  1  0  0  0  0
 20 21  2  0  0  0  0
 21 22  1  0  0  0  0
 21 27  1  0  0  0  0
 22 23  2  0  0  0  0
 22 25  1  0  0  0  0
 23 24  1  0  0  0  0
 25 26  2  0  0  0  0
 26 27  1  0  0  0  0
M  END
>  <CHROM.1>
120.66196460,-164.44062325,-72.14966537,-87.41407657,-87.08194387,39.55383170
-108.46345412,-14.31804739,-7.08763614,31.30871237,1.74442693,1.20951366
-2.62553458

>  <Name>
ligand

>  <RI>
0

>  <Rbt.Current_Directory>
/home/itssahil/PROJECTS/Mol_Feturizer/New_Systems/rnas/3GX6

>  <Rbt.Executable>
rbdock ($Id: //depot/dev/client3/rdock/2013.1/src/exe/rbdock.cxx#4 $)

>  <Rbt.Library>
libRbt.so (2013.1, Build901 2013/11/27)

>  <Rbt.Parameter_File>
/export/apps/rDock/src/rDock_2013.1_src/data/scripts/dock_solv.prm

>  <Rbt.Receptor>
prm/pocket_docking_4.prm

>  <SCORE>
-23.18

>  <SCORE.INTER>
-13.4801

>  <SCORE.INTER.CONST>
1

>  <SCORE.INTER.POLAR>
0

>  <SCORE.INTER.ROT>
7

>  <SCORE.INTER.SOLV>
12.8357

>  <SCORE.INTER.VDW>
-21.532

>  <SCORE.INTER.norm>
-0.499263

>  <SCORE.INTRA>
-9.69986

>  <SCORE.INTRA.DIHEDRAL>
-7.09597

>  <SCORE.INTRA.DIHEDRAL.0>
15.0182

>  <SCORE.INTRA.POLAR>
0

>  <SCORE.INTRA.POLAR.0>
0

>  <SCORE.INTRA.REPUL>
0

>  <SCORE.INTRA.REPUL.0>
0

>  <SCORE.INTRA.SOLV>
-1.46342

>  <SCORE.INTRA.SOLV.lig_0>
-47.9129

>  <SCORE.INTRA.VDW>
-5.42017

>  <SCORE.INTRA.VDW.0>
2.00851

>  <SCORE.INTRA.norm>
-0.359254

>  <SCORE.RESTR>
0

>  <SCORE.RESTR.CAVITY>
0

>  <SCORE.RESTR.norm>
0

>  <SCORE.SYSTEM>
0

>  <SCORE.SYSTEM.CONST>
0

>  <SCORE.SYSTEM.DIHEDRAL>
0

>  <SCORE.SYSTEM.SOLV>
0

>  <SCORE.SYSTEM.norm>
0

>  <SCORE.heavy>
27

>  <SCORE.norm>
-0.858517

>  <RMSD>
5.285

$$$$
ligand
 OpenBabel11021811483D
libRbt.so/2013.1/901 2013/11/27
 27 29  0  0  0  0  0  0  0  0999 V2000
  -13.5043   -8.0503   29.4210 N   0  0  0  0  0  0  0  0  0  0  0  0
  -12.2328   -7.9595   28.7082 C   0  0  2  0  0  0  0  0  0  0  0  0
  -11.1467   -8.8022   29.3718 C   0  0  0  0  0  0  0  0  0  0  0  0
  -10.0106   -8.8655   28.8969 O   0  0  0  0  0  0  0  0  0  0  0  0
  -11.7947   -6.5056   28.5591 C   0  0  0  0  0  0  0  0  0  0  0  0
  -12.6941   -5.6970   27.6369 C   0  0  0  0  0  0  0  0  0  0  0  0
  -14.2948   -5.2696   28.3657 S   0  0  2  0  0  0  0  0  0  0  0  0
  -15.0488   -4.3626   26.9927 C   0  0  0  0  0  0  0  0  0  0  0  0
  -13.8195   -3.9117   29.4696 C   0  0  0  0  0  0  0  0  0  0  0  0
  -15.0551   -3.3906   30.1893 C   0  0  1  0  0  0  0  0  0  0  0  0
  -15.7943   -4.4941   30.6556 O   0  0  0  0  0  0  0  0  0  0  0  0
  -14.7919   -2.5569   31.4293 C   0  0  1  0  0  0  0  0  0  0  0  0
  -14.8176   -1.1800   31.1257 O   0  0  0  0  0  0  0  0  0  0  0  0
  -15.9551   -2.9118   32.3331 C   0  0  1  0  0  0  0  0  0  0  0  0
  -16.8547   -1.8309   32.3457 O   0  0  0  0  0  0  0  0  0  0  0  0
  -16.6335   -4.1302   31.7216 C   0  0  2  0  0  0  0  0  0  0  0  0
  -11.3881   -9.4415   30.3958 O   0  0  0  0  0  0  0  0  0  0  0  0
  -13.7673   -7.5110   34.5730 N   0  0  0  0  0  0  0  0  0  0  0  0
  -13.3204   -6.5586   33.6785 C   0  0  0  0  0  0  0  0  0  0  0  0
  -14.2169   -5.7487   33.0072 N   0  0  0  0  0  0  0  0  0  0  0  0
  -15.5482   -5.8830   33.2157 C   0  0  0  0  0  0  0  0  0  0  0  0
  -16.0159   -6.8301   34.1184 C   0  0  0  0  0  0  0  0  0  0  0  0
  -15.1203   -7.6494   34.7947 C   0  0  0  0  0  0  0  0  0  0  0  0
  -15.5690   -8.5630   35.6522 N   0  0  0  0  0  0  0  0  0  0  0  0
  -17.3637   -6.7498   34.1418 N   0  0  0  0  0  0  0  0  0  0  0  0
  -17.7541   -5.7693   33.2940 C   0  0  0  0  0  0  0  0  0  0  0  0
  -16.6423   -5.2205   32.7114 N   0  0  0  0  0  0  0  0  0  0  0  0
  2  1  1  1  0  0  0
  2  3  1  0  0  0  0
  2  5  1  0  0  0  0
  3  4  1  0  0  0  0
  3 17  1  0  0  0  0
  5  6  1  0  0  0  0
  7  6  1  6  0  0  0
  7  8  1  0  0  0  0
  7  9  1  0  0  0  0
 10  9  1  1  0  0  0
 10 11  1  0  0  0  0
 10 12  1  0  0  0  0
 11 16  1  0  0  0  0
 12 13  1  6  0  0  0
 12 14  1  0  0  0  0
 14 15  1  6  0  0  0
 14 16  1  0  0  0  0
 16 27  1  1  0  0  0
 18 19  2  0  0  0  0
 18 23  1  0  0  0  0
 19 20  1  0  0  0  0
 20 21  2  0  0  0  0
 21 22  1  0  0  0  0
 21 27  1  0  0  0  0
 22 23  2  0  0  0  0
 22 25  1  0  0  0  0
 23 24  1  0  0  0  0
 25 26  2  0  0  0  0
 26 27  1  0  0  0  0
M  END
>  <CHROM.1>
178.84174237,-67.57570766,74.21512376,-179.26410159,179.61951420,45.53990127
47.27970724,-14.44551832,-5.71435864,31.14876999,-0.22667637,-0.87043059
2.29959935

>  <Name>
ligand

>  <RI>
0

>  <Rbt.Current_Directory>
/home/itssahil/PROJECTS/Mol_Feturizer/New_Systems/rnas/3GX6

>  <Rbt.Executable>
rbdock ($Id: //depot/dev/client3/rdock/2013.1/src/exe/rbdock.cxx#4 $)

>  <Rbt.Library>
libRbt.so (2013.1, Build901 2013/11/27)

>  <Rbt.Parameter_File>
/export/apps/rDock/src/rDock_2013.1_src/data/scripts/dock_solv.prm

>  <Rbt.Receptor>
prm/pocket_docking_6.prm

>  <SCORE>
-24.1707

>  <SCORE.INTER>
-14.6514

>  <SCORE.INTER.CONST>
1

>  <SCORE.INTER.POLAR>
0

>  <SCORE.INTER.ROT>
7

>  <SCORE.INTER.SOLV>
12.8268

>  <SCORE.INTER.VDW>
-22.3099

>  <SCORE.INTER.norm>
-0.542646

>  <SCORE.INTRA>
-9.5193

>  <SCORE.INTRA.DIHEDRAL>
-9.72706

>  <SCORE.INTRA.DIHEDRAL.0>
15.0182

>  <SCORE.INTRA.POLAR>
0

>  <SCORE.INTRA.POLAR.0>
0

>  <SCORE.INTRA.REPUL>
0.0044942

>  <SCORE.INTRA.REPUL.0>
0

>  <SCORE.INTRA.SOLV>
0.508946

>  <SCORE.INTRA.SOLV.lig_0>
-47.9129

>  <SCORE.INTRA.VDW>
-4.93271

>  <SCORE.INTRA.VDW.0>
2.00851

>  <SCORE.INTRA.norm>
-0.352567

>  <SCORE.RESTR>
0

>  <SCORE.RESTR.CAVITY>
0

>  <SCORE.RESTR.norm>
0

>  <SCORE.SYSTEM>
0

>  <SCORE.SYSTEM.CONST>
0

>  <SCORE.SYSTEM.DIHEDRAL>
0

>  <SCORE.SYSTEM.SOLV>
0

>  <SCORE.SYSTEM.norm>
0

>  <SCORE.heavy>
27

>  <SCORE.norm>
-0.895213

>  <RMSD>
5.291

$$$$
ligand
 OpenBabel11021811483D
libRbt.so/2013.1/901 2013/11/27
 27 29  0  0  0  0  0  0  0  0999 V2000
  -14.7813   -7.7222   25.3535 N   0  0  0  0  0  0  0  0  0  0  0  0
  -14.6400   -6.5175   26.1669 C   0  0  2  0  0  0  0  0  0  0  0  0
  -13.3096   -6.4881   26.9146 C   0  0  0  0  0  0  0  0  0  0  0  0
  -12.8829   -5.4449   27.4146 O   0  0  0  0  0  0  0  0  0  0  0  0
  -15.8187   -6.3651   27.1237 C   0  0  0  0  0  0  0  0  0  0  0  0
  -15.7944   -5.0616   27.9068 C   0  0  0  0  0  0  0  0  0  0  0  0
  -17.1233   -4.9161   29.1271 S   0  0  2  0  0  0  0  0  0  0  0  0
  -18.5251   -4.5466   28.0431 C   0  0  0  0  0  0  0  0  0  0  0  0
  -16.7730   -3.2792   29.8247 C   0  0  0  0  0  0  0  0  0  0  0  0
  -15.9494   -3.4378   31.0946 C   0  0  1  0  0  0  0  0  0  0  0  0
  -16.7867   -3.9484   32.1045 O   0  0  0  0  0  0  0  0  0  0  0  0
  -14.8014   -4.4267   31.0154 C   0  0  1  0  0  0  0  0  0  0  0  0
  -13.5879   -3.7681   30.7286 O   0  0  0  0  0  0  0  0  0  0  0  0
  -14.7576   -5.0123   32.4122 C   0  0  1  0  0  0  0  0  0  0  0  0
  -13.6505   -4.4688   33.0880 O   0  0  0  0  0  0  0  0  0  0  0  0
  -16.0404   -4.5829   33.1112 C   0  0  2  0  0  0  0  0  0  0  0  0
  -12.6323   -7.5099   27.0282 O   0  0  0  0  0  0  0  0  0  0  0  0
  -15.7238   -9.3593   35.3160 N   0  0  0  0  0  0  0  0  0  0  0  0
  -14.6987   -8.4713   35.0561 C   0  0  0  0  0  0  0  0  0  0  0  0
  -14.9593   -7.2498   34.4645 N   0  0  0  0  0  0  0  0  0  0  0  0
  -16.2262   -6.9100   34.1274 C   0  0  0  0  0  0  0  0  0  0  0  0
  -17.2715   -7.7871   34.3891 C   0  0  0  0  0  0  0  0  0  0  0  0
  -17.0162   -9.0180   34.9812 C   0  0  0  0  0  0  0  0  0  0  0  0
  -18.0165   -9.8619   35.2231 N   0  0  0  0  0  0  0  0  0  0  0  0
  -18.4151   -7.2063   33.9666 N   0  0  0  0  0  0  0  0  0  0  0  0
  -18.1204   -5.9845   33.4638 C   0  0  0  0  0  0  0  0  0  0  0  0
  -16.7684   -5.7834   33.5556 N   0  0  0  0  0  0  0  0  0  0  0  0
  2  1  1  1  0  0  0
  2  3  1  0  0  0  0
  2  5  1  0  0  0  0
  3  4  1  0  0  0  0
  3 17  1  0  0  0  0
  5  6  1  0  0  0  0
  7  6  1  6  0  0  0
  7  8  1  0  0  0  0
  7  9  1  0  0  0  0
 10  9  1  6  0  0  0
 10 11  1  0  0  0  0
 10 12  1  0  0  0  0
 11 16  1  0  0  0  0
 12 13  1  1  0  0  0
 12 14  1  0  0  0  0
 14 15  1  1  0  0  0
 14 16  1  0  0  0  0
 16 27  1  6  0  0  0
 18 19  2  0  0  0  0
 18 23  1  0  0  0  0
 19 20  1  0  0  0  0
 20 21  2  0  0  0  0
 21 22  1  0  0  0  0
 21 27  1  0  0  0  0
 22 23  2  0  0  0  0
 22 25  1  0  0  0  0
 23 24  1  0  0  0  0
 25 26  2  0  0  0  0
 26 27  1  0  0  0  0
M  END
>  <CHROM.1>
164.22640915,-174.63340324,-176.05256127,-75.90115904,-95.81592278,-72.41433438
154.59675245,-15.76294420,-6.00426799,31.03374739,-1.08075743,-1.04710003
2.24786647

>  <Name>
ligand

>  <RI>
0

>  <Rbt.Current_Directory>
/home/itssahil/PROJECTS/Mol_Feturizer/New_Systems/rnas/3GX6

>  <Rbt.Executable>
rbdock ($Id: //depot/dev/client3/rdock/2013.1/src/exe/rbdock.cxx#4 $)

>  <Rbt.Library>
libRbt.so (2013.1, Build901 2013/11/27)

>  <Rbt.Parameter_File>
/export/apps/rDock/src/rDock_2013.1_src/data/scripts/dock_solv.prm

>  <Rbt.Receptor>
prm/pocket_docking_6.prm

>  <SCORE>
-21.031

>  <SCORE.INTER>
-11.7622

>  <SCORE.INTER.CONST>
1

>  <SCORE.INTER.POLAR>
0

>  <SCORE.INTER.ROT>
7

>  <SCORE.INTER.SOLV>
13.8727

>  <SCORE.INTER.VDW>
-20.7324

>  <SCORE.INTER.norm>
-0.435638

>  <SCORE.INTRA>
-9.26874

>  <SCORE.INTRA.DIHEDRAL>
-9.07708

>  <SCORE.INTRA.DIHEDRAL.0>
15.0182

>  <SCORE.INTRA.POLAR>
0

>  <SCORE.INTRA.POLAR.0>
0

>  <SCORE.INTRA.REPUL>
0

>  <SCORE.INTRA.REPUL.0>
0

>  <SCORE.INTRA.SOLV>
-1.45197

>  <SCORE.INTRA.SOLV.lig_0>
-47.9129

>  <SCORE.INTRA.VDW>
-4.00422

>  <SCORE.INTRA.VDW.0>
2.00851

>  <SCORE.INTRA.norm>
-0.343287

>  <SCORE.RESTR>
0

>  <SCORE.RESTR.CAVITY>
0

>  <SCORE.RESTR.norm>
0

>  <SCORE.SYSTEM>
0

>  <SCORE.SYSTEM.CONST>
0

>  <SCORE.SYSTEM.DIHEDRAL>
0

>  <SCORE.SYSTEM.SOLV>
0

>  <SCORE.SYSTEM.norm>
0

>  <SCORE.heavy>
27

>  <SCORE.norm>
-0.778925

>  <RMSD>
5.293

$$$$
ligand
 OpenBabel11021811483D
libRbt.so/2013.1/901 2013/11/27
 27 29  0  0  0  0  0  0  0  0999 V2000
  -14.9103   -8.3259   25.3995 N   0  0  0  0  0  0  0  0  0  0  0  0
  -13.4801   -8.6193   25.4371 C   0  0  2  0  0  0  0  0  0  0  0  0
  -13.2079  -10.0830   25.7737 C   0  0  0  0  0  0  0  0  0  0  0  0
  -14.0020  -10.7389   26.4517 O   0  0  0  0  0  0  0  0  0  0  0  0
  -12.7573   -7.6836   26.4014 C   0  0  0  0  0  0  0  0  0  0  0  0
  -13.2005   -7.8486   27.8469 C   0  0  0  0  0  0  0  0  0  0  0  0
  -11.9419   -7.3719   29.0572 S   0  0  2  0  0  0  0  0  0  0  0  0
  -10.6444   -8.5739   28.6721 C   0  0  0  0  0  0  0  0  0  0  0  0
  -12.6393   -8.0766   30.5756 C   0  0  0  0  0  0  0  0  0  0  0  0
  -13.9474   -7.3717   30.9044 C   0  0  1  0  0  0  0  0  0  0  0  0
  -14.7230   -8.2294   31.7072 O   0  0  0  0  0  0  0  0  0  0  0  0
  -13.8219   -6.0977   31.7187 C   0  0  1  0  0  0  0  0  0  0  0  0
  -13.8261   -4.9624   30.8822 O   0  0  0  0  0  0  0  0  0  0  0  0
  -15.0706   -6.1159   32.5767 C   0  0  1  0  0  0  0  0  0  0  0  0
  -15.9748   -5.1672   32.0666 O   0  0  0  0  0  0  0  0  0  0  0  0
  -15.6719   -7.5093   32.4514 C   0  0  2  0  0  0  0  0  0  0  0  0
  -12.1827  -10.6370   25.3767 O   0  0  0  0  0  0  0  0  0  0  0  0
  -13.3739   -8.2387   37.1378 N   0  0  0  0  0  0  0  0  0  0  0  0
  -12.8864   -7.5432   36.0489 C   0  0  0  0  0  0  0  0  0  0  0  0
  -13.6253   -7.4516   34.8845 N   0  0  0  0  0  0  0  0  0  0  0  0
  -14.8377   -8.0484   34.7957 C   0  0  0  0  0  0  0  0  0  0  0  0
  -15.3483   -8.7452   35.8840 C   0  0  0  0  0  0  0  0  0  0  0  0
  -14.6095   -8.8435   37.0568 C   0  0  0  0  0  0  0  0  0  0  0  0
  -15.0945   -9.5190   38.0958 N   0  0  0  0  0  0  0  0  0  0  0  0
  -16.5600   -9.2284   35.5350 N   0  0  0  0  0  0  0  0  0  0  0  0
  -16.8321   -8.8409   34.2668 C   0  0  0  0  0  0  0  0  0  0  0  0
  -15.7761   -8.1082   33.7926 N   0  0  0  0  0  0  0  0  0  0  0  0
  2  1  1  1  0  0  0
  2  3  1  0  0  0  0
  2  5  1  0  0  0  0
  3  4  1  0  0  0  0
  3 17  1  0  0  0  0
  5  6  1  0  0  0  0
  7  6  1  6  0  0  0
  7  8  1  0  0  0  0
  7  9  1  0  0  0  0
 10  9  1  1  0  0  0
 10 11  1  0  0  0  0
 10 12  1  0  0  0  0
 11 16  1  0  0  0  0
 12 13  1  6  0  0  0
 12 14  1  0  0  0  0
 14 15  1  6  0  0  0
 14 16  1  0  0  0  0
 16 27  1  1  0  0  0
 18 19  2  0  0  0  0
 18 23  1  0  0  0  0
 19 20  1  0  0  0  0
 20 21  2  0  0  0  0
 21 22  1  0  0  0  0
 21 27  1  0  0  0  0
 22 23  2  0  0  0  0
 22 25  1  0  0  0  0
 23 24  1  0  0  0  0
 25 26  2  0  0  0  0
 26 27  1  0  0  0  0
M  END
>  <CHROM.1>
-27.88124609,63.66355642,153.78039265,-62.71834455,-64.81164780,156.59728459
71.16391012,-13.98104925,-8.03197841,31.26887120,0.51842210,-1.33015015,-2.68055548

>  <Name>
ligand

>  <RI>
0

>  <Rbt.Current_Directory>
/home/itssahil/PROJECTS/Mol_Feturizer/New_Systems/rnas/3GX6

>  <Rbt.Executable>
rbdock ($Id: //depot/dev/client3/rdock/2013.1/src/exe/rbdock.cxx#4 $)

>  <Rbt.Library>
libRbt.so (2013.1, Build901 2013/11/27)

>  <Rbt.Parameter_File>
/export/apps/rDock/src/rDock_2013.1_src/data/scripts/dock_solv.prm

>  <Rbt.Receptor>
prm/pocket_docking_4.prm

>  <SCORE>
-17.8567

>  <SCORE.INTER>
-9.01345

>  <SCORE.INTER.CONST>
1

>  <SCORE.INTER.POLAR>
0

>  <SCORE.INTER.ROT>
7

>  <SCORE.INTER.SOLV>
10.135

>  <SCORE.INTER.VDW>
-17.654

>  <SCORE.INTER.norm>
-0.333831

>  <SCORE.INTRA>
-8.86661

>  <SCORE.INTRA.DIHEDRAL>
-7.75121

>  <SCORE.INTRA.DIHEDRAL.0>
15.0182

>  <SCORE.INTRA.POLAR>
0

>  <SCORE.INTRA.POLAR.0>
0

>  <SCORE.INTRA.REPUL>
0

>  <SCORE.INTRA.REPUL.0>
0

>  <SCORE.INTRA.SOLV>
-1.03825

>  <SCORE.INTRA.SOLV.lig_0>
-47.9129

>  <SCORE.INTRA.VDW>
-4.47187

>  <SCORE.INTRA.VDW.0>
2.00851

>  <SCORE.INTRA.norm>
-0.328393

>  <SCORE.RESTR>
0.0233273

>  <SCORE.RESTR.CAVITY>
0.0233273

>  <SCORE.RESTR.norm>
0.000863975

>  <SCORE.SYSTEM>
0

>  <SCORE.SYSTEM.CONST>
0

>  <SCORE.SYSTEM.DIHEDRAL>
0

>  <SCORE.SYSTEM.SOLV>
0

>  <SCORE.SYSTEM.norm>
0

>  <SCORE.heavy>
27

>  <SCORE.norm>
-0.66136

>  <RMSD>
5.314

$$$$
ligand
 OpenBabel11021811483D
libRbt.so/2013.1/901 2013/11/27
 27 29  0  0  0  0  0  0  0  0999 V2000
  -15.9592   -8.5201   28.6867 N   0  0  0  0  0  0  0  0  0  0  0  0
  -16.2594   -8.2883   27.2764 C   0  0  2  0  0  0  0  0  0  0  0  0
  -15.8884   -9.4894   26.4105 C   0  0  0  0  0  0  0  0  0  0  0  0
  -14.9067  -10.1868   26.6758 O   0  0  0  0  0  0  0  0  0  0  0  0
  -15.5838   -7.0143   26.7781 C   0  0  0  0  0  0  0  0  0  0  0  0
  -16.3016   -5.7442   27.2078 C   0  0  0  0  0  0  0  0  0  0  0  0
  -16.3857   -5.5224   29.0022 S   0  0  2  0  0  0  0  0  0  0  0  0
  -18.0338   -6.1911   29.3386 C   0  0  0  0  0  0  0  0  0  0  0  0
  -16.6963   -3.7393   29.1150 C   0  0  0  0  0  0  0  0  0  0  0  0
  -16.3334   -3.2514   30.5102 C   0  0  1  0  0  0  0  0  0  0  0  0
  -17.1197   -3.9533   31.4433 O   0  0  0  0  0  0  0  0  0  0  0  0
  -14.9034   -3.5094   30.9464 C   0  0  1  0  0  0  0  0  0  0  0  0
  -14.0952   -2.3761   30.7202 O   0  0  0  0  0  0  0  0  0  0  0  0
  -15.0400   -3.7620   32.4342 C   0  0  1  0  0  0  0  0  0  0  0  0
  -14.5702   -2.6293   33.1227 O   0  0  0  0  0  0  0  0  0  0  0  0
  -16.5249   -3.9480   32.7157 C   0  0  2  0  0  0  0  0  0  0  0  0
  -16.5632   -9.7823   25.4233 O   0  0  0  0  0  0  0  0  0  0  0  0
  -14.2951   -8.1104   35.0561 N   0  0  0  0  0  0  0  0  0  0  0  0
  -13.6786   -6.9730   34.5732 C   0  0  0  0  0  0  0  0  0  0  0  0
  -14.4202   -5.9690   33.9797 N   0  0  0  0  0  0  0  0  0  0  0  0
  -15.7636   -6.0911   33.8602 C   0  0  0  0  0  0  0  0  0  0  0  0
  -16.4023   -7.2246   34.3479 C   0  0  0  0  0  0  0  0  0  0  0  0
  -15.6625   -8.2390   34.9433 C   0  0  0  0  0  0  0  0  0  0  0  0
  -16.2734   -9.3288   35.4018 N   0  0  0  0  0  0  0  0  0  0  0  0
  -17.7248   -7.0893   34.1105 N   0  0  0  0  0  0  0  0  0  0  0  0
  -17.9364   -5.8975   33.5043 C   0  0  0  0  0  0  0  0  0  0  0  0
  -16.7323   -5.2647   33.3414 N   0  0  0  0  0  0  0  0  0  0  0  0
  2  1  1  1  0  0  0
  2  3  1  0  0  0  0
  2  5  1  0  0  0  0
  3  4  1  0  0  0  0
  3 17  1  0  0  0  0
  5  6  1  0  0  0  0
  7  6  1  6  0  0  0
  7  8  1  0  0  0  0
  7  9  1  0  0  0  0
 10  9  1  6  0  0  0
 10 11  1  0  0  0  0
 10 12  1  0  0  0  0
 11 16  1  0  0  0  0
 12 13  1  1  0  0  0
 12 14  1  0  0  0  0
 14 15  1  1  0  0  0
 14 16  1  0  0  0  0
 16 27  1  6  0  0  0
 18 19  2  0  0  0  0
 18 23  1  0  0  0  0
 19 20  1  0  0  0  0
 20 21  2  0  0  0  0
 21 22  1  0  0  0  0
 21 27  1  0  0  0  0
 22 23  2  0  0  0  0
 22 25  1  0  0  0  0
 23 24  1  0  0  0  0
 25 26  2  0  0  0  0
 26 27  1  0  0  0  0
M  END
>  <CHROM.1>
-34.63141626,-77.56689996,61.38666536,-96.41139454,-160.65807918,-59.27193681
125.94493346,-15.94518532,-6.16942280,30.94801631,3.06247860,-1.50626650
-0.40069838

>  <Name>
ligand

>  <RI>
0

>  <Rbt.Current_Directory>
/home/itssahil/PROJECTS/Mol_Feturizer/New_Systems/rnas/3GX6

>  <Rbt.Executable>
rbdock ($Id: //depot/dev/client3/rdock/2013.1/src/exe/rbdock.cxx#4 $)

>  <Rbt.Library>
libRbt.so (2013.1, Build901 2013/11/27)

>  <Rbt.Parameter_File>
/export/apps/rDock/src/rDock_2013.1_src/data/scripts/dock_solv.prm

>  <Rbt.Receptor>
prm/pocket_docking_5.prm

>  <SCORE>
-17.8795

>  <SCORE.INTER>
-10.8283

>  <SCORE.INTER.CONST>
1

>  <SCORE.INTER.POLAR>
0

>  <SCORE.INTER.ROT>
7

>  <SCORE.INTER.SOLV>
13.8359

>  <SCORE.INTER.VDW>
-20.0975

>  <SCORE.INTER.norm>
-0.401048

>  <SCORE.INTRA>
-7.05117

>  <SCORE.INTRA.DIHEDRAL>
-6.74841

>  <SCORE.INTRA.DIHEDRAL.0>
15.0182

>  <SCORE.INTRA.POLAR>
0

>  <SCORE.INTRA.POLAR.0>
0

>  <SCORE.INTRA.REPUL>
0

>  <SCORE.INTRA.REPUL.0>
0

>  <SCORE.INTRA.SOLV>
1.33862

>  <SCORE.INTRA.SOLV.lig_0>
-47.9129

>  <SCORE.INTRA.VDW>
-4.34628

>  <SCORE.INTRA.VDW.0>
2.00851

>  <SCORE.INTRA.norm>
-0.261155

>  <SCORE.RESTR>
0

>  <SCORE.RESTR.CAVITY>
0

>  <SCORE.RESTR.norm>
0

>  <SCORE.SYSTEM>
0

>  <SCORE.SYSTEM.CONST>
0

>  <SCORE.SYSTEM.DIHEDRAL>
0

>  <SCORE.SYSTEM.SOLV>
0

>  <SCORE.SYSTEM.norm>
0

>  <SCORE.heavy>
27

>  <SCORE.norm>
-0.662203

>  <RMSD>
5.315

$$$$
ligand
 OpenBabel11021811483D
libRbt.so/2013.1/901 2013/11/27
 27 29  0  0  0  0  0  0  0  0999 V2000
  -14.3633   -7.9540   29.4576 N   0  0  0  0  0  0  0  0  0  0  0  0
  -15.7109   -8.1039   28.9151 C   0  0  2  0  0  0  0  0  0  0  0  0
  -15.9699   -9.5237   28.4180 C   0  0  0  0  0  0  0  0  0  0  0  0
  -17.0883  -10.0352   28.5060 O   0  0  0  0  0  0  0  0  0  0  0  0
  -15.9745   -7.0749   27.8198 C   0  0  0  0  0  0  0  0  0  0  0  0
  -15.8398   -5.6376   28.2985 C   0  0  0  0  0  0  0  0  0  0  0  0
  -17.0914   -5.1500   29.5119 S   0  0  2  0  0  0  0  0  0  0  0  0
  -18.5285   -4.9350   28.4326 C   0  0  0  0  0  0  0  0  0  0  0  0
  -16.6188   -3.4268   29.8211 C   0  0  0  0  0  0  0  0  0  0  0  0
  -15.5430   -3.3839   30.8967 C   0  0  1  0  0  0  0  0  0  0  0  0
  -16.0734   -3.9404   32.0759 O   0  0  0  0  0  0  0  0  0  0  0  0
  -14.2978   -4.2038   30.6151 C   0  0  1  0  0  0  0  0  0  0  0  0
  -13.2807   -3.4006   30.0593 O   0  0  0  0  0  0  0  0  0  0  0  0
  -13.8865   -4.6846   31.9919 C   0  0  1  0  0  0  0  0  0  0  0  0
  -12.7619   -3.9471   32.4032 O   0  0  0  0  0  0  0  0  0  0  0  0
  -15.0530   -4.3959   32.9270 C   0  0  2  0  0  0  0  0  0  0  0  0
  -15.0606  -10.1894   27.9223 O   0  0  0  0  0  0  0  0  0  0  0  0
  -13.6184   -8.6994   35.6097 N   0  0  0  0  0  0  0  0  0  0  0  0
  -12.8192   -7.6602   35.1758 C   0  0  0  0  0  0  0  0  0  0  0  0
  -13.3630   -6.5995   34.4761 N   0  0  0  0  0  0  0  0  0  0  0  0
  -14.6890   -6.5689   34.2028 C   0  0  0  0  0  0  0  0  0  0  0  0
  -15.5101   -7.6014   34.6389 C   0  0  0  0  0  0  0  0  0  0  0  0
  -14.9696   -8.6722   35.3405 C   0  0  0  0  0  0  0  0  0  0  0  0
  -15.7548   -9.6657   35.7498 N   0  0  0  0  0  0  0  0  0  0  0  0
  -16.7713   -7.3222   34.2451 N   0  0  0  0  0  0  0  0  0  0  0  0
  -16.7683   -6.1373   33.5904 C   0  0  0  0  0  0  0  0  0  0  0  0
  -15.4865   -5.6554   33.5549 N   0  0  0  0  0  0  0  0  0  0  0  0
  2  1  1  6  0  0  0
  2  3  1  0  0  0  0
  2  5  1  0  0  0  0
  3  4  1  0  0  0  0
  3 17  1  0  0  0  0
  5  6  1  0  0  0  0
  7  6  1  6  0  0  0
  7  8  1  0  0  0  0
  7  9  1  0  0  0  0
 10  9  1  6  0  0  0
 10 11  1  0  0  0  0
 10 12  1  0  0  0  0
 11 16  1  0  0  0  0
 12 13  1  1  0  0  0
 12 14  1  0  0  0  0
 14 15  1  1  0  0  0
 14 16  1  0  0  0  0
 16 27  1  6  0  0  0
 18 19  2  0  0  0  0
 18 23  1  0  0  0  0
 19 20  1  0  0  0  0
 20 21  2  0  0  0  0
 21 22  1  0  0  0  0
 21 27  1  0  0  0  0
 22 23  2  0  0  0  0
 22 25  1  0  0  0  0
 23 24  1  0  0  0  0
 25 26  2  0  0  0  0
 26 27  1  0  0  0  0
M  END
>  <CHROM.1>
146.22700346,-59.37274368,-66.09934153,-75.90625204,-85.63987318,-60.91992440
164.16812119,-15.38318948,-6.37775399,31.45753141,2.71578842,-1.26668883
-0.30459429

>  <Name>
ligand

>  <RI>
0

>  <Rbt.Current_Directory>
/home/itssahil/PROJECTS/Mol_Feturizer/New_Systems/rnas/3GX6

>  <Rbt.Executable>
rbdock ($Id: //depot/dev/client3/rdock/2013.1/src/exe/rbdock.cxx#4 $)

>  <Rbt.Library>
libRbt.so (2013.1, Build901 2013/11/27)

>  <Rbt.Parameter_File>
/export/apps/rDock/src/rDock_2013.1_src/data/scripts/dock_solv.prm

>  <Rbt.Receptor>
prm/pocket_docking_4.prm

>  <SCORE>
-20.7195

>  <SCORE.INTER>
-10.9085

>  <SCORE.INTER.CONST>
1

>  <SCORE.INTER.POLAR>
0

>  <SCORE.INTER.ROT>
7

>  <SCORE.INTER.SOLV>
12.5371

>  <SCORE.INTER.VDW>
-19.7181

>  <SCORE.INTER.norm>
-0.40402

>  <SCORE.INTRA>
-9.811

>  <SCORE.INTRA.DIHEDRAL>
-10.6662

>  <SCORE.INTRA.DIHEDRAL.0>
15.0182

>  <SCORE.INTRA.POLAR>
0

>  <SCORE.INTRA.POLAR.0>
0

>  <SCORE.INTRA.REPUL>
0

>  <SCORE.INTRA.REPUL.0>
0

>  <SCORE.INTRA.SOLV>
0.548794

>  <SCORE.INTRA.SOLV.lig_0>
-47.9129

>  <SCORE.INTRA.VDW>
-4.75228

>  <SCORE.INTRA.VDW.0>
2.00851

>  <SCORE.INTRA.norm>
-0.36337

>  <SCORE.RESTR>
0

>  <SCORE.RESTR.CAVITY>
0

>  <SCORE.RESTR.norm>
0

>  <SCORE.SYSTEM>
0

>  <SCORE.SYSTEM.CONST>
0

>  <SCORE.SYSTEM.DIHEDRAL>
0

>  <SCORE.SYSTEM.SOLV>
0

>  <SCORE.SYSTEM.norm>
0

>  <SCORE.heavy>
27

>  <SCORE.norm>
-0.76739

>  <RMSD>
5.316

$$$$
ligand
 OpenBabel11021811483D
libRbt.so/2013.1/901 2013/11/27
 27 29  0  0  0  0  0  0  0  0999 V2000
  -11.4335   -9.7086   24.6649 N   0  0  0  0  0  0  0  0  0  0  0  0
  -11.7429   -8.8232   25.7844 C   0  0  2  0  0  0  0  0  0  0  0  0
  -12.1678   -7.4353   25.3119 C   0  0  0  0  0  0  0  0  0  0  0  0
  -11.7845   -6.9860   24.2295 O   0  0  0  0  0  0  0  0  0  0  0  0
  -10.5697   -8.7442   26.7566 C   0  0  0  0  0  0  0  0  0  0  0  0
  -10.9615   -9.0302   28.1981 C   0  0  0  0  0  0  0  0  0  0  0  0
  -12.3286   -8.0086   28.8013 S   0  0  2  0  0  0  0  0  0  0  0  0
  -11.4957   -6.4100   28.9663 C   0  0  0  0  0  0  0  0  0  0  0  0
  -12.4196   -8.5417   30.5322 C   0  0  0  0  0  0  0  0  0  0  0  0
  -13.7427   -8.0868   31.1313 C   0  0  1  0  0  0  0  0  0  0  0  0
  -13.9531   -8.7952   32.3294 O   0  0  0  0  0  0  0  0  0  0  0  0
  -13.8148   -6.6260   31.5347 C   0  0  1  0  0  0  0  0  0  0  0  0
  -14.4100   -5.8512   30.5178 O   0  0  0  0  0  0  0  0  0  0  0  0
  -14.7084   -6.6530   32.7581 C   0  0  1  0  0  0  0  0  0  0  0  0
  -15.9715   -6.1504   32.3977 O   0  0  0  0  0  0  0  0  0  0  0  0
  -14.8420   -8.1114   33.1750 C   0  0  2  0  0  0  0  0  0  0  0  0
  -12.9007   -6.7334   26.0089 O   0  0  0  0  0  0  0  0  0  0  0  0
  -16.1103   -9.4033   38.1245 N   0  0  0  0  0  0  0  0  0  0  0  0
  -16.9231   -9.4071   37.0081 C   0  0  0  0  0  0  0  0  0  0  0  0
  -16.4250   -9.0335   35.7742 N   0  0  0  0  0  0  0  0  0  0  0  0
  -15.1316   -8.6536   35.6458 C   0  0  0  0  0  0  0  0  0  0  0  0
  -14.2966   -8.6517   36.7563 C   0  0  0  0  0  0  0  0  0  0  0  0
  -14.7914   -9.0236   38.0004 C   0  0  0  0  0  0  0  0  0  0  0  0
  -13.9939   -9.0126   39.0657 N   0  0  0  0  0  0  0  0  0  0  0  0
  -13.0735   -8.2443   36.3543 N   0  0  0  0  0  0  0  0  0  0  0  0
  -13.1120   -8.0074   35.0220 C   0  0  0  0  0  0  0  0  0  0  0  0
  -14.3795   -8.2562   34.5656 N   0  0  0  0  0  0  0  0  0  0  0  0
  2  1  1  6  0  0  0
  2  3  1  0  0  0  0
  2  5  1  0  0  0  0
  3  4  1  0  0  0  0
  3 17  1  0  0  0  0
  5  6  1  0  0  0  0
  7  6  1  6  0  0  0
  7  8  1  0  0  0  0
  7  9  1  0  0  0  0
 10  9  1  1  0  0  0
 10 11  1  0  0  0  0
 10 12  1  0  0  0  0
 11 16  1  0  0  0  0
 12 13  1  6  0  0  0
 12 14  1  0  0  0  0
 14 15  1  6  0  0  0
 14 16  1  0  0  0  0
 16 27  1  1  0  0  0
 18 19  2  0  0  0  0
 18 23  1  0  0  0  0
 19 20  1  0  0  0  0
 20 21  2  0  0  0  0
 21 22  1  0  0  0  0
 21 27  1  0  0  0  0
 22 23  2  0  0  0  0
 22 25  1  0  0  0  0
 23 24  1  0  0  0  0
 25 26  2  0  0  0  0
 26 27  1  0  0  0  0
M  END
>  <CHROM.1>
-26.59665545,-127.79866947,-53.51773523,-72.42985732,-164.69550327,164.63105033
-129.83204329,-13.52390024,-8.04207597,31.53864767,-1.17541161,-0.70409819
1.90948462

>  <Name>
ligand

>  <RI>
0

>  <Rbt.Current_Directory>
/home/itssahil/PROJECTS/Mol_Feturizer/New_Systems/rnas/3GX6

>  <Rbt.Executable>
rbdock ($Id: //depot/dev/client3/rdock/2013.1/src/exe/rbdock.cxx#4 $)

>  <Rbt.Library>
libRbt.so (2013.1, Build901 2013/11/27)

>  <Rbt.Parameter_File>
/export/apps/rDock/src/rDock_2013.1_src/data/scripts/dock_solv.prm

>  <Rbt.Receptor>
prm/pocket_docking_5.prm

>  <SCORE>
-19.9738

>  <SCORE.INTER>
-12.1807

>  <SCORE.INTER.CONST>
1

>  <SCORE.INTER.POLAR>
0

>  <SCORE.INTER.ROT>
7

>  <SCORE.INTER.SOLV>
10.0513

>  <SCORE.INTER.VDW>
-19.7375

>  <SCORE.INTER.norm>
-0.451135

>  <SCORE.INTRA>
-7.79314

>  <SCORE.INTRA.DIHEDRAL>
-3.91118

>  <SCORE.INTRA.DIHEDRAL.0>
15.0182

>  <SCORE.INTRA.POLAR>
0

>  <SCORE.INTRA.POLAR.0>
0

>  <SCORE.INTRA.REPUL>
0

>  <SCORE.INTRA.REPUL.0>
0

>  <SCORE.INTRA.SOLV>
-1.32323

>  <SCORE.INTRA.SOLV.lig_0>
-47.9129

>  <SCORE.INTRA.VDW>
-5.17593

>  <SCORE.INTRA.VDW.0>
2.00851

>  <SCORE.INTRA.norm>
-0.288635

>  <SCORE.RESTR>
0

>  <SCORE.RESTR.CAVITY>
0

>  <SCORE.RESTR.norm>
0

>  <SCORE.SYSTEM>
0

>  <SCORE.SYSTEM.CONST>
0

>  <SCORE.SYSTEM.DIHEDRAL>
0

>  <SCORE.SYSTEM.SOLV>
0

>  <SCORE.SYSTEM.norm>
0

>  <SCORE.heavy>
27

>  <SCORE.norm>
-0.73977

>  <RMSD>
5.323

$$$$
ligand
 OpenBabel11021811483D
libRbt.so/2013.1/901 2013/11/27
 27 29  0  0  0  0  0  0  0  0999 V2000
  -17.6664   -4.7983   27.7251 N   0  0  0  0  0  0  0  0  0  0  0  0
  -16.2558   -4.6850   28.0857 C   0  0  2  0  0  0  0  0  0  0  0  0
  -15.4533   -5.9027   27.6348 C   0  0  0  0  0  0  0  0  0  0  0  0
  -15.8047   -7.0450   27.9383 O   0  0  0  0  0  0  0  0  0  0  0  0
  -16.0946   -4.4364   29.5824 C   0  0  0  0  0  0  0  0  0  0  0  0
  -16.5743   -3.0610   30.0197 C   0  0  0  0  0  0  0  0  0  0  0  0
  -16.5037   -2.7960   31.8089 S   0  0  2  0  0  0  0  0  0  0  0  0
  -16.8360   -1.0185   31.8906 C   0  0  0  0  0  0  0  0  0  0  0  0
  -14.7132   -2.8358   32.0929 C   0  0  0  0  0  0  0  0  0  0  0  0
  -14.3314   -4.1689   32.7201 C   0  0  1  0  0  0  0  0  0  0  0  0
  -14.5526   -5.1844   31.7707 O   0  0  0  0  0  0  0  0  0  0  0  0
  -12.8722   -4.3203   33.1071 C   0  0  1  0  0  0  0  0  0  0  0  0
  -12.6790   -4.0211   34.4716 O   0  0  0  0  0  0  0  0  0  0  0  0
  -12.6020   -5.7895   32.8537 C   0  0  1  0  0  0  0  0  0  0  0  0
  -12.5334   -6.4496   34.0936 O   0  0  0  0  0  0  0  0  0  0  0  0
  -13.7847   -6.3250   32.0579 C   0  0  2  0  0  0  0  0  0  0  0  0
  -14.4324   -5.7655   26.9607 O   0  0  0  0  0  0  0  0  0  0  0  0
  -14.2048  -10.2093   28.5209 N   0  0  0  0  0  0  0  0  0  0  0  0
  -14.9318  -10.0315   29.6814 C   0  0  0  0  0  0  0  0  0  0  0  0
  -14.6889   -8.9483   30.5046 N   0  0  0  0  0  0  0  0  0  0  0  0
  -13.7290   -8.0482   30.1845 C   0  0  0  0  0  0  0  0  0  0  0  0
  -12.9933   -8.2060   29.0165 C   0  0  0  0  0  0  0  0  0  0  0  0
  -13.2305   -9.2943   28.1856 C   0  0  0  0  0  0  0  0  0  0  0  0
  -12.5191   -9.4504   27.0718 N   0  0  0  0  0  0  0  0  0  0  0  0
  -12.1202   -7.1790   28.9349 N   0  0  0  0  0  0  0  0  0  0  0  0
  -12.2984   -6.3727   30.0077 C   0  0  0  0  0  0  0  0  0  0  0  0
  -13.2918   -6.8954   30.7930 N   0  0  0  0  0  0  0  0  0  0  0  0
  2  1  1  1  0  0  0
  2  3  1  0  0  0  0
  2  5  1  0  0  0  0
  3  4  1  0  0  0  0
  3 17  1  0  0  0  0
  5  6  1  0  0  0  0
  7  6  1  6  0  0  0
  7  8  1  0  0  0  0
  7  9  1  0  0  0  0
 10  9  1  6  0  0  0
 10 11  1  0  0  0  0
 10 12  1  0  0  0  0
 11 16  1  0  0  0  0
 12 13  1  1  0  0  0
 12 14  1  0  0  0  0
 14 15  1  1  0  0  0
 14 16  1  0  0  0  0
 16 27  1  6  0  0  0
 18 19  2  0  0  0  0
 18 23  1  0  0  0  0
 19 20  1  0  0  0  0
 20 21  2  0  0  0  0
 21 22  1  0  0  0  0
 21 27  1  0  0  0  0
 22 23  2  0  0  0  0
 22 25  1  0  0  0  0
 23 24  1  0  0  0  0
 25 26  2  0  0  0  0
 26 27  1  0  0  0  0
M  END
>  <CHROM.1>
-52.92300966,-69.17475442,175.71741080,169.93426803,-104.11581993,67.05181507
-107.16659326,-14.47884927,-5.82621648,30.39696115,1.89140832,-0.82383595
0.84239571

>  <Name>
ligand

>  <RI>
0

>  <Rbt.Current_Directory>
/home/itssahil/PROJECTS/Mol_Feturizer/New_Systems/rnas/3GX6

>  <Rbt.Executable>
rbdock ($Id: //depot/dev/client3/rdock/2013.1/src/exe/rbdock.cxx#4 $)

>  <Rbt.Library>
libRbt.so (2013.1, Build901 2013/11/27)

>  <Rbt.Parameter_File>
/export/apps/rDock/src/rDock_2013.1_src/data/scripts/dock_solv.prm

>  <Rbt.Receptor>
prm/pocket_docking_4.prm

>  <SCORE>
-23.9341

>  <SCORE.INTER>
-12.9678

>  <SCORE.INTER.CONST>
1

>  <SCORE.INTER.POLAR>
0

>  <SCORE.INTER.ROT>
7

>  <SCORE.INTER.SOLV>
13.6133

>  <SCORE.INTER.VDW>
-21.4497

>  <SCORE.INTER.norm>
-0.48029

>  <SCORE.INTRA>
-10.9663

>  <SCORE.INTRA.DIHEDRAL>
-8.40989

>  <SCORE.INTRA.DIHEDRAL.0>
15.0182

>  <SCORE.INTRA.POLAR>
0

>  <SCORE.INTRA.POLAR.0>
0

>  <SCORE.INTRA.REPUL>
0

>  <SCORE.INTRA.REPUL.0>
0

>  <SCORE.INTRA.SOLV>
-1.07437

>  <SCORE.INTRA.SOLV.lig_0>
-47.9129

>  <SCORE.INTRA.VDW>
-6.22412

>  <SCORE.INTRA.VDW.0>
2.00851

>  <SCORE.INTRA.norm>
-0.406158

>  <SCORE.RESTR>
0

>  <SCORE.RESTR.CAVITY>
0

>  <SCORE.RESTR.norm>
0

>  <SCORE.SYSTEM>
0

>  <SCORE.SYSTEM.CONST>
0

>  <SCORE.SYSTEM.DIHEDRAL>
0

>  <SCORE.SYSTEM.SOLV>
0

>  <SCORE.SYSTEM.norm>
0

>  <SCORE.heavy>
27

>  <SCORE.norm>
-0.886448

>  <RMSD>
5.325

$$$$
ligand
 OpenBabel11021811483D
libRbt.so/2013.1/901 2013/11/27
 27 29  0  0  0  0  0  0  0  0999 V2000
  -17.1654   -3.3671   28.8334 N   0  0  0  0  0  0  0  0  0  0  0  0
  -16.3828   -4.3493   29.5790 C   0  0  2  0  0  0  0  0  0  0  0  0
  -17.1938   -5.6039   29.8925 C   0  0  0  0  0  0  0  0  0  0  0  0
  -16.6383   -6.6615   30.1978 O   0  0  0  0  0  0  0  0  0  0  0  0
  -15.8007   -3.7324   30.8472 C   0  0  0  0  0  0  0  0  0  0  0  0
  -14.6892   -4.5654   31.4669 C   0  0  0  0  0  0  0  0  0  0  0  0
  -14.2540   -4.0674   33.1518 S   0  0  2  0  0  0  0  0  0  0  0  0
  -13.1968   -2.6386   32.8089 C   0  0  0  0  0  0  0  0  0  0  0  0
  -13.0209   -5.3275   33.5761 C   0  0  0  0  0  0  0  0  0  0  0  0
  -13.7192   -6.6611   33.8004 C   0  0  1  0  0  0  0  0  0  0  0  0
  -14.3808   -7.0201   32.6109 O   0  0  0  0  0  0  0  0  0  0  0  0
  -12.8097   -7.8379   34.1005 C   0  0  1  0  0  0  0  0  0  0  0  0
  -12.7087   -8.0551   35.4902 O   0  0  0  0  0  0  0  0  0  0  0  0
  -13.5263   -9.0001   33.4434 C   0  0  1  0  0  0  0  0  0  0  0  0
  -14.1220   -9.7816   34.4495 O   0  0  0  0  0  0  0  0  0  0  0  0
  -14.6097   -8.4048   32.5543 C   0  0  2  0  0  0  0  0  0  0  0  0
  -18.4236   -5.5839   29.8411 O   0  0  0  0  0  0  0  0  0  0  0  0
  -11.6431   -8.0792   28.2105 N   0  0  0  0  0  0  0  0  0  0  0  0
  -11.4738   -7.4153   29.4095 C   0  0  0  0  0  0  0  0  0  0  0  0
  -12.3543   -7.6170   30.4555 N   0  0  0  0  0  0  0  0  0  0  0  0
  -13.3993   -8.4669   30.3152 C   0  0  0  0  0  0  0  0  0  0  0  0
  -13.5807   -9.1501   29.1191 C   0  0  0  0  0  0  0  0  0  0  0  0
  -12.7008   -8.9501   28.0624 C   0  0  0  0  0  0  0  0  0  0  0  0
  -12.8802   -9.5974   26.9135 N   0  0  0  0  0  0  0  0  0  0  0  0
  -14.6775   -9.9273   29.2482 N   0  0  0  0  0  0  0  0  0  0  0  0
  -15.1791   -9.7650   30.4950 C   0  0  0  0  0  0  0  0  0  0  0  0
  -14.3996   -8.8638   31.1709 N   0  0  0  0  0  0  0  0  0  0  0  0
  2  1  1  1  0  0  0
  2  3  1  0  0  0  0
  2  5  1  0  0  0  0
  3  4  1  0  0  0  0
  3 17  1  0  0  0  0
  5  6  1  0  0  0  0
  7  6  1  6  0  0  0
  7  8  1  0  0  0  0
  7  9  1  0  0  0  0
 10  9  1  6  0  0  0
 10 11  1  0  0  0  0
 10 12  1  0  0  0  0
 11 16  1  0  0  0  0
 12 13  1  1  0  0  0
 12 14  1  0  0  0  0
 14 15  1  1  0  0  0
 14 16  1  0  0  0  0
 16 27  1  6  0  0  0
 18 19  2  0  0  0  0
 18 23  1  0  0  0  0
 19 20  1  0  0  0  0
 20 21  2  0  0  0  0
 21 22  1  0  0  0  0
 21 27  1  0  0  0  0
 22 23  2  0  0  0  0
 22 25  1  0  0  0  0
 23 24  1  0  0  0  0
 25 26  2  0  0  0  0
 26 27  1  0  0  0  0
M  END
>  <CHROM.1>
161.17533872,-164.49759696,-166.49730534,-80.01551663,-72.58452711,60.25329165
41.19733023,-14.29016051,-6.87594908,31.27543430,2.30809413,-0.99768789,1.01918420

>  <Name>
ligand

>  <RI>
0

>  <Rbt.Current_Directory>
/home/itssahil/PROJECTS/Mol_Feturizer/New_Systems/rnas/3GX6

>  <Rbt.Executable>
rbdock ($Id: //depot/dev/client3/rdock/2013.1/src/exe/rbdock.cxx#4 $)

>  <Rbt.Library>
libRbt.so (2013.1, Build901 2013/11/27)

>  <Rbt.Parameter_File>
/export/apps/rDock/src/rDock_2013.1_src/data/scripts/dock_solv.prm

>  <Rbt.Receptor>
prm/pocket_docking_3.prm

>  <SCORE>
-22.4305

>  <SCORE.INTER>
-11.4915

>  <SCORE.INTER.CONST>
1

>  <SCORE.INTER.POLAR>
0

>  <SCORE.INTER.ROT>
7

>  <SCORE.INTER.SOLV>
12.5174

>  <SCORE.INTER.VDW>
-20.1001

>  <SCORE.INTER.norm>
-0.425611

>  <SCORE.INTRA>
-10.939

>  <SCORE.INTRA.DIHEDRAL>
-9.82918

>  <SCORE.INTRA.DIHEDRAL.0>
15.0182

>  <SCORE.INTRA.POLAR>
0

>  <SCORE.INTRA.POLAR.0>
0

>  <SCORE.INTRA.REPUL>
0

>  <SCORE.INTRA.REPUL.0>
0

>  <SCORE.INTRA.SOLV>
-1.60275

>  <SCORE.INTRA.SOLV.lig_0>
-47.9129

>  <SCORE.INTRA.VDW>
-5.22301

>  <SCORE.INTRA.VDW.0>
2.00851

>  <SCORE.INTRA.norm>
-0.405147

>  <SCORE.RESTR>
0

>  <SCORE.RESTR.CAVITY>
0

>  <SCORE.RESTR.norm>
0

>  <SCORE.SYSTEM>
0

>  <SCORE.SYSTEM.CONST>
0

>  <SCORE.SYSTEM.DIHEDRAL>
0

>  <SCORE.SYSTEM.SOLV>
0

>  <SCORE.SYSTEM.norm>
0

>  <SCORE.heavy>
27

>  <SCORE.norm>
-0.830758

>  <RMSD>
5.328

$$$$
ligand
 OpenBabel11021811483D
libRbt.so/2013.1/901 2013/11/27
 27 29  0  0  0  0  0  0  0  0999 V2000
  -13.9372   -3.6729   30.2872 N   0  0  0  0  0  0  0  0  0  0  0  0
  -14.0589   -2.5855   31.2546 C   0  0  2  0  0  0  0  0  0  0  0  0
  -13.1409   -2.7880   32.4572 C   0  0  0  0  0  0  0  0  0  0  0  0
  -12.1621   -3.5351   32.3926 O   0  0  0  0  0  0  0  0  0  0  0  0
  -15.5103   -2.4021   31.6880 C   0  0  0  0  0  0  0  0  0  0  0  0
  -16.0093   -3.5076   32.6055 C   0  0  0  0  0  0  0  0  0  0  0  0
  -15.6151   -5.1756   32.0233 S   0  0  2  0  0  0  0  0  0  0  0  0
  -17.1158   -5.5594   31.0868 C   0  0  0  0  0  0  0  0  0  0  0  0
  -15.8836   -6.1407   33.5349 C   0  0  0  0  0  0  0  0  0  0  0  0
  -15.2417   -7.5118   33.3786 C   0  0  1  0  0  0  0  0  0  0  0  0
  -15.6341   -8.0454   32.1364 O   0  0  0  0  0  0  0  0  0  0  0  0
  -13.7251   -7.5278   33.3381 C   0  0  1  0  0  0  0  0  0  0  0  0
  -13.1900   -7.8096   34.6120 O   0  0  0  0  0  0  0  0  0  0  0  0
  -13.4205   -8.6642   32.3833 C   0  0  1  0  0  0  0  0  0  0  0  0
  -12.9639   -9.7638   33.1316 O   0  0  0  0  0  0  0  0  0  0  0  0
  -14.7302   -9.0262   31.6959 C   0  0  2  0  0  0  0  0  0  0  0  0
  -13.3652   -2.2101   33.5208 O   0  0  0  0  0  0  0  0  0  0  0  0
  -12.7572   -6.1590   27.7384 N   0  0  0  0  0  0  0  0  0  0  0  0
  -12.6854   -5.9038   29.0936 C   0  0  0  0  0  0  0  0  0  0  0  0
  -13.2654   -6.7672   30.0037 N   0  0  0  0  0  0  0  0  0  0  0  0
  -13.9170   -7.8746   29.5758 C   0  0  0  0  0  0  0  0  0  0  0  0
  -13.9921   -8.1523   28.2165 C   0  0  0  0  0  0  0  0  0  0  0  0
  -13.4135   -7.2871   27.2959 C   0  0  0  0  0  0  0  0  0  0  0  0
  -13.4938   -7.5483   25.9934 N   0  0  0  0  0  0  0  0  0  0  0  0
  -14.6807   -9.3042   28.0664 N   0  0  0  0  0  0  0  0  0  0  0  0
  -15.0245   -9.7661   29.2916 C   0  0  0  0  0  0  0  0  0  0  0  0
  -14.5592   -8.8932   30.2394 N   0  0  0  0  0  0  0  0  0  0  0  0
  2  1  1  6  0  0  0
  2  3  1  0  0  0  0
  2  5  1  0  0  0  0
  3  4  1  0  0  0  0
  3 17  1  0  0  0  0
  5  6  1  0  0  0  0
  7  6  1  1  0  0  0
  7  8  1  0  0  0  0
  7  9  1  0  0  0  0
 10  9  1  6  0  0  0
 10 11  1  0  0  0  0
 10 12  1  0  0  0  0
 11 16  1  0  0  0  0
 12 13  1  1  0  0  0
 12 14  1  0  0  0  0
 14 15  1  1  0  0  0
 14 16  1  0  0  0  0
 16 27  1  6  0  0  0
 18 19  2  0  0  0  0
 18 23  1  0  0  0  0
 19 20  1  0  0  0  0
 20 21  2  0  0  0  0
 21 22  1  0  0  0  0
 21 27  1  0  0  0  0
 22 23  2  0  0  0  0
 22 25  1  0  0  0  0
 23 24  1  0  0  0  0
 25 26  2  0  0  0  0
 26 27  1  0  0  0  0
M  END
>  <CHROM.1>
20.41632553,72.65917623,-47.30646475,-92.59536566,-164.36869631,-48.21443764
70.11164595,-14.27290612,-6.33995919,31.13803444,-2.04809108,-1.42652955
-2.99285980

>  <Name>
ligand

>  <RI>
0

>  <Rbt.Current_Directory>
/home/itssahil/PROJECTS/Mol_Feturizer/New_Systems/rnas/3GX6

>  <Rbt.Executable>
rbdock ($Id: //depot/dev/client3/rdock/2013.1/src/exe/rbdock.cxx#4 $)

>  <Rbt.Library>
libRbt.so (2013.1, Build901 2013/11/27)

>  <Rbt.Parameter_File>
/export/apps/rDock/src/rDock_2013.1_src/data/scripts/dock_solv.prm

>  <Rbt.Receptor>
prm/pocket_docking_2.prm

>  <SCORE>
-14.3069

>  <SCORE.INTER>
-8.49954

>  <SCORE.INTER.CONST>
1

>  <SCORE.INTER.POLAR>
0

>  <SCORE.INTER.ROT>
7

>  <SCORE.INTER.SOLV>
8.96857

>  <SCORE.INTER.VDW>
-16.9225

>  <SCORE.INTER.norm>
-0.314798

>  <SCORE.INTRA>
-7.41344

>  <SCORE.INTRA.DIHEDRAL>
-7.10161

>  <SCORE.INTRA.DIHEDRAL.0>
15.0182

>  <SCORE.INTRA.POLAR>
0

>  <SCORE.INTRA.POLAR.0>
0

>  <SCORE.INTRA.REPUL>
0

>  <SCORE.INTRA.REPUL.0>
0

>  <SCORE.INTRA.SOLV>
2.3048

>  <SCORE.INTRA.SOLV.lig_0>
-47.9129

>  <SCORE.INTRA.VDW>
-5.01504

>  <SCORE.INTRA.VDW.0>
2.00851

>  <SCORE.INTRA.norm>
-0.274572

>  <SCORE.RESTR>
1.60609

>  <SCORE.RESTR.CAVITY>
1.60609

>  <SCORE.RESTR.norm>
0.059485

>  <SCORE.SYSTEM>
0

>  <SCORE.SYSTEM.CONST>
0

>  <SCORE.SYSTEM.DIHEDRAL>
0

>  <SCORE.SYSTEM.SOLV>
0

>  <SCORE.SYSTEM.norm>
0

>  <SCORE.heavy>
27

>  <SCORE.norm>
-0.529885

>  <RMSD>
5.340

$$$$
ligand
 OpenBabel11021811483D
libRbt.so/2013.1/901 2013/11/27
 27 29  0  0  0  0  0  0  0  0999 V2000
  -15.7576   -6.6872   28.7493 N   0  0  0  0  0  0  0  0  0  0  0  0
  -16.4184   -5.5683   29.4159 C   0  0  2  0  0  0  0  0  0  0  0  0
  -17.8160   -5.3171   28.8559 C   0  0  0  0  0  0  0  0  0  0  0  0
  -17.9854   -5.0422   27.6659 O   0  0  0  0  0  0  0  0  0  0  0  0
  -15.5585   -4.3098   29.3490 C   0  0  0  0  0  0  0  0  0  0  0  0
  -16.2589   -3.0722   29.8883 C   0  0  0  0  0  0  0  0  0  0  0  0
  -16.4263   -3.0529   31.6905 S   0  0  2  0  0  0  0  0  0  0  0  0
  -16.9575   -1.3423   31.9523 C   0  0  0  0  0  0  0  0  0  0  0  0
  -14.6874   -2.9660   32.1974 C   0  0  0  0  0  0  0  0  0  0  0  0
  -14.2842   -4.2831   32.8448 C   0  0  1  0  0  0  0  0  0  0  0  0
  -14.4885   -5.3163   31.9108 O   0  0  0  0  0  0  0  0  0  0  0  0
  -12.8229   -4.4049   33.2341 C   0  0  1  0  0  0  0  0  0  0  0  0
  -12.6351   -4.0820   34.5939 O   0  0  0  0  0  0  0  0  0  0  0  0
  -12.5288   -5.8732   33.0030 C   0  0  1  0  0  0  0  0  0  0  0  0
  -12.4499   -6.5132   34.2528 O   0  0  0  0  0  0  0  0  0  0  0  0
  -13.7023   -6.4398   32.2153 C   0  0  2  0  0  0  0  0  0  0  0  0
  -18.8044   -5.3797   29.5872 O   0  0  0  0  0  0  0  0  0  0  0  0
  -14.2212  -10.2483   28.6096 N   0  0  0  0  0  0  0  0  0  0  0  0
  -14.9761  -10.0441   29.7477 C   0  0  0  0  0  0  0  0  0  0  0  0
  -14.7003   -8.9871   30.5944 N   0  0  0  0  0  0  0  0  0  0  0  0
  -13.6807   -8.1393   30.3196 C   0  0  0  0  0  0  0  0  0  0  0  0
  -12.9157   -8.3239   29.1745 C   0  0  0  0  0  0  0  0  0  0  0  0
  -13.1858   -9.3861   28.3203 C   0  0  0  0  0  0  0  0  0  0  0  0
  -12.4469   -9.5684   27.2286 N   0  0  0  0  0  0  0  0  0  0  0  0
  -11.9837   -7.3475   29.1371 N   0  0  0  0  0  0  0  0  0  0  0  0
  -12.1523   -6.5461   30.2151 C   0  0  0  0  0  0  0  0  0  0  0  0
  -13.1998   -7.0212   30.9592 N   0  0  0  0  0  0  0  0  0  0  0  0
  2  1  1  6  0  0  0
  2  3  1  0  0  0  0
  2  5  1  0  0  0  0
  3  4  1  0  0  0  0
  3 17  1  0  0  0  0
  5  6  1  0  0  0  0
  7  6  1  6  0  0  0
  7  8  1  0  0  0  0
  7  9  1  0  0  0  0
 10  9  1  6  0  0  0
 10 11  1  0  0  0  0
 10 12  1  0  0  0  0
 11 16  1  0  0  0  0
 12 13  1  1  0  0  0
 12 14  1  0  0  0  0
 14 15  1  1  0  0  0
 14 16  1  0  0  0  0
 16 27  1  6  0  0  0
 18 19  2  0  0  0  0
 18 23  1  0  0  0  0
 19 20  1  0  0  0  0
 20 21  2  0  0  0  0
 21 22  1  0  0  0  0
 21 27  1  0  0  0  0
 22 23  2  0  0  0  0
 22 25  1  0  0  0  0
 23 24  1  0  0  0  0
 25 26  2  0  0  0  0
 26 27  1  0  0  0  0
M  END
>  <CHROM.1>
-59.75983334,173.53382017,72.88926149,168.72383528,-110.65757572,58.79342830
-102.26978537,-14.68942844,-5.89795099,30.67816827,1.12914862,0.63261408
-2.41624714

>  <Name>
ligand

>  <RI>
0

>  <Rbt.Current_Directory>
/home/itssahil/PROJECTS/Mol_Feturizer/New_Systems/rnas/3GX6

>  <Rbt.Executable>
rbdock ($Id: //depot/dev/client3/rdock/2013.1/src/exe/rbdock.cxx#4 $)

>  <Rbt.Library>
libRbt.so (2013.1, Build901 2013/11/27)

>  <Rbt.Parameter_File>
/export/apps/rDock/src/rDock_2013.1_src/data/scripts/dock_solv.prm

>  <Rbt.Receptor>
prm/pocket_docking_3.prm

>  <SCORE>
-22.5427

>  <SCORE.INTER>
-13.9143

>  <SCORE.INTER.CONST>
1

>  <SCORE.INTER.POLAR>
0

>  <SCORE.INTER.ROT>
7

>  <SCORE.INTER.SOLV>
9.41943

>  <SCORE.INTER.VDW>
-20.6826

>  <SCORE.INTER.norm>
-0.515343

>  <SCORE.INTRA>
-8.83292

>  <SCORE.INTRA.DIHEDRAL>
-7.53618

>  <SCORE.INTRA.DIHEDRAL.0>
15.0182

>  <SCORE.INTRA.POLAR>
0

>  <SCORE.INTRA.POLAR.0>
0

>  <SCORE.INTRA.REPUL>
0

>  <SCORE.INTRA.REPUL.0>
0

>  <SCORE.INTRA.SOLV>
1.68916

>  <SCORE.INTRA.SOLV.lig_0>
-47.9129

>  <SCORE.INTRA.VDW>
-5.90941

>  <SCORE.INTRA.VDW.0>
2.00851

>  <SCORE.INTRA.norm>
-0.327145

>  <SCORE.RESTR>
0.204436

>  <SCORE.RESTR.CAVITY>
0.204436

>  <SCORE.RESTR.norm>
0.0075717

>  <SCORE.SYSTEM>
0

>  <SCORE.SYSTEM.CONST>
0

>  <SCORE.SYSTEM.DIHEDRAL>
0

>  <SCORE.SYSTEM.SOLV>
0

>  <SCORE.SYSTEM.norm>
0

>  <SCORE.heavy>
27

>  <SCORE.norm>
-0.834916

>  <RMSD>
5.350

$$$$
ligand
 OpenBabel11021811483D
libRbt.so/2013.1/901 2013/11/27
 27 29  0  0  0  0  0  0  0  0999 V2000
  -16.0649   -5.4782   29.1767 N   0  0  0  0  0  0  0  0  0  0  0  0
  -15.0729   -4.4096   29.2603 C   0  0  2  0  0  0  0  0  0  0  0  0
  -14.1506   -4.3926   28.0442 C   0  0  0  0  0  0  0  0  0  0  0  0
  -12.9291   -4.5047   28.1696 O   0  0  0  0  0  0  0  0  0  0  0  0
  -14.2781   -4.5048   30.5592 C   0  0  0  0  0  0  0  0  0  0  0  0
  -15.1425   -4.3837   31.8047 C   0  0  0  0  0  0  0  0  0  0  0  0
  -14.2085   -4.0163   33.3110 S   0  0  2  0  0  0  0  0  0  0  0  0
  -13.2024   -2.6234   32.7415 C   0  0  0  0  0  0  0  0  0  0  0  0
  -12.9920   -5.3611   33.2990 C   0  0  0  0  0  0  0  0  0  0  0  0
  -13.6907   -6.6761   33.6133 C   0  0  1  0  0  0  0  0  0  0  0  0
  -14.4255   -7.0693   32.4788 O   0  0  0  0  0  0  0  0  0  0  0  0
  -12.7784   -7.8532   33.9031 C   0  0  1  0  0  0  0  0  0  0  0  0
  -12.5978   -8.0210   35.2916 O   0  0  0  0  0  0  0  0  0  0  0  0
  -13.5456   -9.0289   33.3329 C   0  0  1  0  0  0  0  0  0  0  0  0
  -14.0896   -9.7651   34.4005 O   0  0  0  0  0  0  0  0  0  0  0  0
  -14.6729   -8.4519   32.4873 C   0  0  2  0  0  0  0  0  0  0  0  0
  -14.6115   -4.2606   26.9102 O   0  0  0  0  0  0  0  0  0  0  0  0
  -11.4690   -9.3947   28.4104 N   0  0  0  0  0  0  0  0  0  0  0  0
  -11.1474   -8.8527   29.6391 C   0  0  0  0  0  0  0  0  0  0  0  0
  -12.1202   -8.6698   30.6036 N   0  0  0  0  0  0  0  0  0  0  0  0
  -13.4050   -9.0168   30.3529 C   0  0  0  0  0  0  0  0  0  0  0  0
  -13.7459   -9.5715   29.1254 C   0  0  0  0  0  0  0  0  0  0  0  0
  -12.7733   -9.7557   28.1502 C   0  0  0  0  0  0  0  0  0  0  0  0
  -13.1017  -10.2782   26.9711 N   0  0  0  0  0  0  0  0  0  0  0  0
  -15.0713   -9.8294   29.1411 N   0  0  0  0  0  0  0  0  0  0  0  0
  -15.5685   -9.4692   30.3477 C   0  0  0  0  0  0  0  0  0  0  0  0
  -14.5501   -8.9638   31.1120 N   0  0  0  0  0  0  0  0  0  0  0  0
  2  1  1  6  0  0  0
  2  3  1  0  0  0  0
  2  5  1  0  0  0  0
  3  4  1  0  0  0  0
  3 17  1  0  0  0  0
  5  6  1  0  0  0  0
  7  6  1  6  0  0  0
  7  8  1  0  0  0  0
  7  9  1  0  0  0  0
 10  9  1  6  0  0  0
 10 11  1  0  0  0  0
 10 12  1  0  0  0  0
 11 16  1  0  0  0  0
 12 13  1  1  0  0  0
 12 14  1  0  0  0  0
 14 15  1  1  0  0  0
 14 16  1  0  0  0  0
 16 27  1  6  0  0  0
 18 19  2  0  0  0  0
 18 23  1  0  0  0  0
 19 20  1  0  0  0  0
 20 21  2  0  0  0  0
 21 22  1  0  0  0  0
 21 27  1  0  0  0  0
 22 23  2  0  0  0  0
 22 25  1  0  0  0  0
 23 24  1  0  0  0  0
 25 26  2  0  0  0  0
 26 27  1  0  0  0  0
M  END
>  <CHROM.1>
-121.87098553,-60.50297870,-163.31100551,49.38035648,-70.87561874,74.32466150
66.30875304,-13.78108860,-6.99420570,31.00019332,2.20851562,-1.40316890,1.39471431

>  <Name>
ligand

>  <RI>
0

>  <Rbt.Current_Directory>
/home/itssahil/PROJECTS/Mol_Feturizer/New_Systems/rnas/3GX6

>  <Rbt.Executable>
rbdock ($Id: //depot/dev/client3/rdock/2013.1/src/exe/rbdock.cxx#4 $)

>  <Rbt.Library>
libRbt.so (2013.1, Build901 2013/11/27)

>  <Rbt.Parameter_File>
/export/apps/rDock/src/rDock_2013.1_src/data/scripts/dock_solv.prm

>  <Rbt.Receptor>
prm/pocket_docking_3.prm

>  <SCORE>
-24.7866

>  <SCORE.INTER>
-16.219

>  <SCORE.INTER.CONST>
1

>  <SCORE.INTER.POLAR>
0

>  <SCORE.INTER.ROT>
7

>  <SCORE.INTER.SOLV>
11.2211

>  <SCORE.INTER.VDW>
-22.8197

>  <SCORE.INTER.norm>
-0.600705

>  <SCORE.INTRA>
-8.56753

>  <SCORE.INTRA.DIHEDRAL>
-10.0949

>  <SCORE.INTRA.DIHEDRAL.0>
15.0182

>  <SCORE.INTRA.POLAR>
0

>  <SCORE.INTRA.POLAR.0>
0

>  <SCORE.INTRA.REPUL>
0

>  <SCORE.INTRA.REPUL.0>
0

>  <SCORE.INTRA.SOLV>
-0.740955

>  <SCORE.INTRA.SOLV.lig_0>
-47.9129

>  <SCORE.INTRA.VDW>
-3.14963

>  <SCORE.INTRA.VDW.0>
2.00851

>  <SCORE.INTRA.norm>
-0.317316

>  <SCORE.RESTR>
0

>  <SCORE.RESTR.CAVITY>
0

>  <SCORE.RESTR.norm>
0

>  <SCORE.SYSTEM>
0

>  <SCORE.SYSTEM.CONST>
0

>  <SCORE.SYSTEM.DIHEDRAL>
0

>  <SCORE.SYSTEM.SOLV>
0

>  <SCORE.SYSTEM.norm>
0

>  <SCORE.heavy>
27

>  <SCORE.norm>
-0.918021

>  <RMSD>
5.372

$$$$
ligand
 OpenBabel11021811483D
libRbt.so/2013.1/901 2013/11/27
 27 29  0  0  0  0  0  0  0  0999 V2000
  -13.1574  -11.4862   25.6188 N   0  0  0  0  0  0  0  0  0  0  0  0
  -13.8274  -10.2007   25.4413 C   0  0  2  0  0  0  0  0  0  0  0  0
  -14.0583   -9.8778   23.9674 C   0  0  0  0  0  0  0  0  0  0  0  0
  -15.0241   -9.2011   23.6074 O   0  0  0  0  0  0  0  0  0  0  0  0
  -13.0578   -9.0843   26.1409 C   0  0  0  0  0  0  0  0  0  0  0  0
  -13.0210   -9.2345   27.6539 C   0  0  0  0  0  0  0  0  0  0  0  0
  -11.9668   -8.0199   28.4844 S   0  0  2  0  0  0  0  0  0  0  0  0
  -10.3292   -8.6835   28.0911 C   0  0  0  0  0  0  0  0  0  0  0  0
  -12.1502   -8.5302   30.2148 C   0  0  0  0  0  0  0  0  0  0  0  0
  -13.4384   -7.9478   30.7786 C   0  0  1  0  0  0  0  0  0  0  0  0
  -13.6850   -8.5464   32.0286 O   0  0  0  0  0  0  0  0  0  0  0  0
  -13.4164   -6.4585   31.0670 C   0  0  1  0  0  0  0  0  0  0  0  0
  -13.9685   -5.7291   29.9937 O   0  0  0  0  0  0  0  0  0  0  0  0
  -14.3020   -6.3340   32.2902 C   0  0  1  0  0  0  0  0  0  0  0  0
  -15.5334   -5.7826   31.8936 O   0  0  0  0  0  0  0  0  0  0  0  0
  -14.5239   -7.7443   32.8198 C   0  0  2  0  0  0  0  0  0  0  0  0
  -13.2831  -10.2937   23.1061 O   0  0  0  0  0  0  0  0  0  0  0  0
  -15.5008   -9.4686   37.7032 N   0  0  0  0  0  0  0  0  0  0  0  0
  -16.2674   -9.6448   36.5682 C   0  0  0  0  0  0  0  0  0  0  0  0
  -15.8612   -9.1188   35.3564 N   0  0  0  0  0  0  0  0  0  0  0  0
  -14.7056   -8.4183   35.2683 C   0  0  0  0  0  0  0  0  0  0  0  0
  -13.9169   -8.2381   36.3979 C   0  0  0  0  0  0  0  0  0  0  0  0
  -14.3206   -8.7620   37.6199 C   0  0  0  0  0  0  0  0  0  0  0  0
  -13.5698   -8.5811   38.7037 N   0  0  0  0  0  0  0  0  0  0  0  0
  -12.8319   -7.5205   36.0353 N   0  0  0  0  0  0  0  0  0  0  0  0
  -12.9080   -7.2603   34.7090 C   0  0  0  0  0  0  0  0  0  0  0  0
  -14.0624   -7.8094   34.2166 N   0  0  0  0  0  0  0  0  0  0  0  0
  2  1  1  6  0  0  0
  2  3  1  0  0  0  0
  2  5  1  0  0  0  0
  3  4  1  0  0  0  0
  3 17  1  0  0  0  0
  5  6  1  0  0  0  0
  7  6  1  6  0  0  0
  7  8  1  0  0  0  0
  7  9  1  0  0  0  0
 10  9  1  1  0  0  0
 10 11  1  0  0  0  0
 10 12  1  0  0  0  0
 11 16  1  0  0  0  0
 12 13  1  6  0  0  0
 12 14  1  0  0  0  0
 14 15  1  6  0  0  0
 14 16  1  0  0  0  0
 16 27  1  1  0  0  0
 18 19  2  0  0  0  0
 18 23  1  0  0  0  0
 19 20  1  0  0  0  0
 20 21  2  0  0  0  0
 21 22  1  0  0  0  0
 21 27  1  0  0  0  0
 22 23  2  0  0  0  0
 22 25  1  0  0  0  0
 23 24  1  0  0  0  0
 25 26  2  0  0  0  0
 26 27  1  0  0  0  0
M  END
>  <CHROM.1>
149.60037226,-65.16544938,173.84189724,-75.09538753,-81.97834990,169.45883695
-110.42491513,-13.70324009,-8.41214909,31.02890971,1.38144554,-0.96475207
-1.83379315

>  <Name>
ligand

>  <RI>
0

>  <Rbt.Current_Directory>
/home/itssahil/PROJECTS/Mol_Feturizer/New_Systems/rnas/3GX6

>  <Rbt.Executable>
rbdock ($Id: //depot/dev/client3/rdock/2013.1/src/exe/rbdock.cxx#4 $)

>  <Rbt.Library>
libRbt.so (2013.1, Build901 2013/11/27)

>  <Rbt.Parameter_File>
/export/apps/rDock/src/rDock_2013.1_src/data/scripts/dock_solv.prm

>  <Rbt.Receptor>
prm/pocket_docking_7.prm

>  <SCORE>
-20.2418

>  <SCORE.INTER>
-10.2039

>  <SCORE.INTER.CONST>
1

>  <SCORE.INTER.POLAR>
0

>  <SCORE.INTER.ROT>
7

>  <SCORE.INTER.SOLV>
17.2024

>  <SCORE.INTER.VDW>
-20.8034

>  <SCORE.INTER.norm>
-0.377921

>  <SCORE.INTRA>
-10.0379

>  <SCORE.INTRA.DIHEDRAL>
-10.5075

>  <SCORE.INTRA.DIHEDRAL.0>
15.0182

>  <SCORE.INTRA.POLAR>
0

>  <SCORE.INTRA.POLAR.0>
0

>  <SCORE.INTRA.REPUL>
0

>  <SCORE.INTRA.REPUL.0>
0

>  <SCORE.INTRA.SOLV>
-1.02302

>  <SCORE.INTRA.SOLV.lig_0>
-47.9129

>  <SCORE.INTRA.VDW>
-4.27265

>  <SCORE.INTRA.VDW.0>
2.00851

>  <SCORE.INTRA.norm>
-0.371774

>  <SCORE.RESTR>
0

>  <SCORE.RESTR.CAVITY>
0

>  <SCORE.RESTR.norm>
0

>  <SCORE.SYSTEM>
0

>  <SCORE.SYSTEM.CONST>
0

>  <SCORE.SYSTEM.DIHEDRAL>
0

>  <SCORE.SYSTEM.SOLV>
0

>  <SCORE.SYSTEM.norm>
0

>  <SCORE.heavy>
27

>  <SCORE.norm>
-0.749695

>  <RMSD>
5.392

$$$$
ligand
 OpenBabel11021811483D
libRbt.so/2013.1/901 2013/11/27
 27 29  0  0  0  0  0  0  0  0999 V2000
  -16.0166   -5.2839   28.9716 N   0  0  0  0  0  0  0  0  0  0  0  0
  -16.2996   -4.8851   30.3477 C   0  0  2  0  0  0  0  0  0  0  0  0
  -17.7543   -5.1476   30.7287 C   0  0  0  0  0  0  0  0  0  0  0  0
  -18.1542   -4.9634   31.8804 O   0  0  0  0  0  0  0  0  0  0  0  0
  -15.9185   -3.4263   30.5813 C   0  0  0  0  0  0  0  0  0  0  0  0
  -15.9480   -3.0233   32.0475 C   0  0  0  0  0  0  0  0  0  0  0  0
  -14.3699   -3.2570   32.9027 S   0  0  2  0  0  0  0  0  0  0  0  0
  -13.2370   -2.4937   31.7150 C   0  0  0  0  0  0  0  0  0  0  0  0
  -14.0699   -5.0191   32.5972 C   0  0  0  0  0  0  0  0  0  0  0  0
  -14.7423   -5.8416   33.6871 C   0  0  1  0  0  0  0  0  0  0  0  0
  -16.1334   -5.8049   33.4749 O   0  0  0  0  0  0  0  0  0  0  0  0
  -14.3982   -7.3192   33.7033 C   0  0  1  0  0  0  0  0  0  0  0  0
  -13.3656   -7.5860   34.6260 O   0  0  0  0  0  0  0  0  0  0  0  0
  -15.6883   -7.9656   34.1656 C   0  0  1  0  0  0  0  0  0  0  0  0
  -15.5276   -8.3736   35.5018 O   0  0  0  0  0  0  0  0  0  0  0  0
  -16.7702   -6.8969   34.0873 C   0  0  2  0  0  0  0  0  0  0  0  0
  -18.5578   -5.5551   29.8897 O   0  0  0  0  0  0  0  0  0  0  0  0
  -18.0337   -9.0961   29.4676 N   0  0  0  0  0  0  0  0  0  0  0  0
  -16.7761   -8.7943   29.9518 C   0  0  0  0  0  0  0  0  0  0  0  0
  -16.6226   -8.2112   31.1955 N   0  0  0  0  0  0  0  0  0  0  0  0
  -17.7069   -7.9239   31.9542 C   0  0  0  0  0  0  0  0  0  0  0  0
  -18.9796   -8.2283   31.4872 C   0  0  0  0  0  0  0  0  0  0  0  0
  -19.1414   -8.8121   30.2366 C   0  0  0  0  0  0  0  0  0  0  0  0
  -20.3610   -9.0948   29.7854 N   0  0  0  0  0  0  0  0  0  0  0  0
  -19.8685   -7.8503   32.4308 N   0  0  0  0  0  0  0  0  0  0  0  0
  -19.1905   -7.3340   33.4826 C   0  0  0  0  0  0  0  0  0  0  0  0
  -17.8495   -7.3719   33.2053 N   0  0  0  0  0  0  0  0  0  0  0  0
  2  1  1  6  0  0  0
  2  3  1  0  0  0  0
  2  5  1  0  0  0  0
  3  4  1  0  0  0  0
  3 17  1  0  0  0  0
  5  6  1  0  0  0  0
  7  6  1  6  0  0  0
  7  8  1  0  0  0  0
  7  9  1  0  0  0  0
 10  9  1  6  0  0  0
 10 11  1  0  0  0  0
 10 12  1  0  0  0  0
 11 16  1  0  0  0  0
 12 13  1  1  0  0  0
 12 14  1  0  0  0  0
 14 15  1  1  0  0  0
 14 16  1  0  0  0  0
 16 27  1  6  0  0  0
 18 19  2  0  0  0  0
 18 23  1  0  0  0  0
 19 20  1  0  0  0  0
 20 21  2  0  0  0  0
 21 22  1  0  0  0  0
 21 27  1  0  0  0  0
 22 23  2  0  0  0  0
 22 25  1  0  0  0  0
 23 24  1  0  0  0  0
 25 26  2  0  0  0  0
 26 27  1  0  0  0  0
M  END
>  <CHROM.1>
174.75747121,-169.41944669,90.44598915,47.62454999,-87.51925529,72.61000260
64.68463845,-16.56115973,-6.30202887,32.07824333,0.31101808,-0.73526586,-0.69571091

>  <Name>
ligand

>  <RI>
0

>  <Rbt.Current_Directory>
/home/itssahil/PROJECTS/Mol_Feturizer/New_Systems/rnas/3GX6

>  <Rbt.Executable>
rbdock ($Id: //depot/dev/client3/rdock/2013.1/src/exe/rbdock.cxx#4 $)

>  <Rbt.Library>
libRbt.so (2013.1, Build901 2013/11/27)

>  <Rbt.Parameter_File>
/export/apps/rDock/src/rDock_2013.1_src/data/scripts/dock_solv.prm

>  <Rbt.Receptor>
prm/pocket_docking_8.prm

>  <SCORE>
-21.7296

>  <SCORE.INTER>
-10.896

>  <SCORE.INTER.CONST>
1

>  <SCORE.INTER.POLAR>
0

>  <SCORE.INTER.ROT>
7

>  <SCORE.INTER.SOLV>
6.53947

>  <SCORE.INTER.VDW>
-17.7105

>  <SCORE.INTER.norm>
-0.403556

>  <SCORE.INTRA>
-10.8336

>  <SCORE.INTRA.DIHEDRAL>
-6.99413

>  <SCORE.INTRA.DIHEDRAL.0>
15.0182

>  <SCORE.INTRA.POLAR>
0

>  <SCORE.INTRA.POLAR.0>
0

>  <SCORE.INTRA.REPUL>
0

>  <SCORE.INTRA.REPUL.0>
0

>  <SCORE.INTRA.SOLV>
-0.542469

>  <SCORE.INTRA.SOLV.lig_0>
-47.9129

>  <SCORE.INTRA.VDW>
-7.06532

>  <SCORE.INTRA.VDW.0>
2.00851

>  <SCORE.INTRA.norm>
-0.401245

>  <SCORE.RESTR>
0

>  <SCORE.RESTR.CAVITY>
0

>  <SCORE.RESTR.norm>
0

>  <SCORE.SYSTEM>
0

>  <SCORE.SYSTEM.CONST>
0

>  <SCORE.SYSTEM.DIHEDRAL>
0

>  <SCORE.SYSTEM.SOLV>
0

>  <SCORE.SYSTEM.norm>
0

>  <SCORE.heavy>
27

>  <SCORE.norm>
-0.804801

>  <RMSD>
5.399

$$$$
ligand
 OpenBabel11021811483D
libRbt.so/2013.1/901 2013/11/27
 27 29  0  0  0  0  0  0  0  0999 V2000
  -16.3261   -5.8356   27.4885 N   0  0  0  0  0  0  0  0  0  0  0  0
  -15.3352   -4.9359   28.0729 C   0  0  2  0  0  0  0  0  0  0  0  0
  -13.9107   -5.3396   27.7017 C   0  0  0  0  0  0  0  0  0  0  0  0
  -12.9478   -4.6345   28.0113 O   0  0  0  0  0  0  0  0  0  0  0  0
  -15.5099   -4.8421   29.5857 C   0  0  0  0  0  0  0  0  0  0  0  0
  -14.6381   -3.7741   30.2278 C   0  0  0  0  0  0  0  0  0  0  0  0
  -14.6558   -3.8055   32.0375 S   0  0  2  0  0  0  0  0  0  0  0  0
  -13.8705   -2.2156   32.4009 C   0  0  0  0  0  0  0  0  0  0  0  0
  -13.2971   -4.9580   32.3755 C   0  0  0  0  0  0  0  0  0  0  0  0
  -13.8372   -6.3806   32.4028 C   0  0  1  0  0  0  0  0  0  0  0  0
  -13.9026   -6.8548   31.0790 O   0  0  0  0  0  0  0  0  0  0  0  0
  -12.9772   -7.3973   33.1298 C   0  0  1  0  0  0  0  0  0  0  0  0
  -13.4211   -7.5764   34.4562 O   0  0  0  0  0  0  0  0  0  0  0  0
  -13.1991   -8.6659   32.3315 C   0  0  1  0  0  0  0  0  0  0  0  0
  -14.0396   -9.5162   33.0720 O   0  0  0  0  0  0  0  0  0  0  0  0
  -13.8976   -8.2589   31.0411 C   0  0  2  0  0  0  0  0  0  0  0  0
  -13.6966   -6.3795   27.0785 O   0  0  0  0  0  0  0  0  0  0  0  0
  -10.1169   -7.0095   27.5885 N   0  0  0  0  0  0  0  0  0  0  0  0
  -10.6355   -6.2296   28.6033 C   0  0  0  0  0  0  0  0  0  0  0  0
  -11.6356   -6.7165   29.4235 N   0  0  0  0  0  0  0  0  0  0  0  0
  -12.1236   -7.9661   29.2384 C   0  0  0  0  0  0  0  0  0  0  0  0
  -11.6082   -8.7684   28.2279 C   0  0  0  0  0  0  0  0  0  0  0  0
  -10.6044   -8.2842   27.3978 C   0  0  0  0  0  0  0  0  0  0  0  0
  -10.1175   -9.0494   26.4240 N   0  0  0  0  0  0  0  0  0  0  0  0
  -12.2572   -9.9520   28.2670 N   0  0  0  0  0  0  0  0  0  0  0  0
  -13.1519   -9.9221   29.2825 C   0  0  0  0  0  0  0  0  0  0  0  0
  -13.0829   -8.6993   29.8962 N   0  0  0  0  0  0  0  0  0  0  0  0
  2  1  1  1  0  0  0
  2  3  1  0  0  0  0
  2  5  1  0  0  0  0
  3  4  1  0  0  0  0
  3 17  1  0  0  0  0
  5  6  1  0  0  0  0
  7  6  1  6  0  0  0
  7  8  1  0  0  0  0
  7  9  1  0  0  0  0
 10  9  1  6  0  0  0
 10 11  1  0  0  0  0
 10 12  1  0  0  0  0
 11 16  1  0  0  0  0
 12 13  1  1  0  0  0
 12 14  1  0  0  0  0
 14 15  1  1  0  0  0
 14 16  1  0  0  0  0
 16 27  1  6  0  0  0
 18 19  2  0  0  0  0
 18 23  1  0  0  0  0
 19 20  1  0  0  0  0
 20 21  2  0  0  0  0
 21 22  1  0  0  0  0
 21 27  1  0  0  0  0
 22 23  2  0  0  0  0
 22 25  1  0  0  0  0
 23 24  1  0  0  0  0
 25 26  2  0  0  0  0
 26 27  1  0  0  0  0
M  END
>  <CHROM.1>
173.92480366,-171.87848352,-171.79959199,-167.16370588,-88.42855443,83.57522758
20.53119878,-13.25040550,-6.63385396,30.03736881,2.77922245,-1.07929608,2.05562918

>  <Name>
ligand

>  <RI>
0

>  <Rbt.Current_Directory>
/home/itssahil/PROJECTS/Mol_Feturizer/New_Systems/rnas/3GX6

>  <Rbt.Executable>
rbdock ($Id: //depot/dev/client3/rdock/2013.1/src/exe/rbdock.cxx#4 $)

>  <Rbt.Library>
libRbt.so (2013.1, Build901 2013/11/27)

>  <Rbt.Parameter_File>
/export/apps/rDock/src/rDock_2013.1_src/data/scripts/dock_solv.prm

>  <Rbt.Receptor>
prm/pocket_docking_6.prm

>  <SCORE>
-21.3889

>  <SCORE.INTER>
-9.78129

>  <SCORE.INTER.CONST>
1

>  <SCORE.INTER.POLAR>
0

>  <SCORE.INTER.ROT>
7

>  <SCORE.INTER.SOLV>
12.4484

>  <SCORE.INTER.VDW>
-18.937

>  <SCORE.INTER.norm>
-0.36227

>  <SCORE.INTRA>
-11.6076

>  <SCORE.INTRA.DIHEDRAL>
-7.28614

>  <SCORE.INTRA.DIHEDRAL.0>
15.0182

>  <SCORE.INTRA.POLAR>
0

>  <SCORE.INTRA.POLAR.0>
0

>  <SCORE.INTRA.REPUL>
0

>  <SCORE.INTRA.REPUL.0>
0

>  <SCORE.INTRA.SOLV>
-1.5915

>  <SCORE.INTRA.SOLV.lig_0>
-47.9129

>  <SCORE.INTRA.VDW>
-7.16874

>  <SCORE.INTRA.VDW.0>
2.00851

>  <SCORE.INTRA.norm>
-0.42991

>  <SCORE.RESTR>
0

>  <SCORE.RESTR.CAVITY>
0

>  <SCORE.RESTR.norm>
0

>  <SCORE.SYSTEM>
0

>  <SCORE.SYSTEM.CONST>
0

>  <SCORE.SYSTEM.DIHEDRAL>
0

>  <SCORE.SYSTEM.SOLV>
0

>  <SCORE.SYSTEM.norm>
0

>  <SCORE.heavy>
27

>  <SCORE.norm>
-0.79218

>  <RMSD>
5.400

$$$$
ligand
 OpenBabel11021811483D
libRbt.so/2013.1/901 2013/11/27
 27 29  0  0  0  0  0  0  0  0999 V2000
  -16.5737   -9.2176   26.9124 N   0  0  0  0  0  0  0  0  0  0  0  0
  -15.9358   -8.6371   28.0909 C   0  0  2  0  0  0  0  0  0  0  0  0
  -16.9337   -8.4062   29.2227 C   0  0  0  0  0  0  0  0  0  0  0  0
  -18.1486   -8.4789   29.0253 O   0  0  0  0  0  0  0  0  0  0  0  0
  -15.1953   -7.3523   27.7321 C   0  0  0  0  0  0  0  0  0  0  0  0
  -14.3145   -6.8305   28.8568 C   0  0  0  0  0  0  0  0  0  0  0  0
  -13.2602   -5.4401   28.3757 S   0  0  2  0  0  0  0  0  0  0  0  0
  -11.6248   -6.2016   28.5243 C   0  0  0  0  0  0  0  0  0  0  0  0
  -13.3180   -4.4273   29.8788 C   0  0  0  0  0  0  0  0  0  0  0  0
  -14.5617   -3.5507   29.8489 C   0  0  1  0  0  0  0  0  0  0  0  0
  -15.6690   -4.3635   29.5409 O   0  0  0  0  0  0  0  0  0  0  0  0
  -14.9303   -2.8862   31.1621 C   0  0  1  0  0  0  0  0  0  0  0  0
  -14.4300   -1.5690   31.2183 O   0  0  0  0  0  0  0  0  0  0  0  0
  -16.4449   -2.8658   31.1216 C   0  0  1  0  0  0  0  0  0  0  0  0
  -16.8651   -1.5503   30.8558 O   0  0  0  0  0  0  0  0  0  0  0  0
  -16.8681   -3.7755   29.9763 C   0  0  2  0  0  0  0  0  0  0  0  0
  -16.5417   -8.1367   30.3582 O   0  0  0  0  0  0  0  0  0  0  0  0
  -18.1154   -6.8195   34.0937 N   0  0  0  0  0  0  0  0  0  0  0  0
  -17.1230   -5.8628   34.0112 C   0  0  0  0  0  0  0  0  0  0  0  0
  -16.9283   -5.1503   32.8430 N   0  0  0  0  0  0  0  0  0  0  0  0
  -17.7076   -5.3858   31.7608 C   0  0  0  0  0  0  0  0  0  0  0  0
  -18.7167   -6.3385   31.8279 C   0  0  0  0  0  0  0  0  0  0  0  0
  -18.9162   -7.0604   32.9984 C   0  0  0  0  0  0  0  0  0  0  0  0
  -19.8766   -7.9797   33.0594 N   0  0  0  0  0  0  0  0  0  0  0  0
  -19.3394   -6.3675   30.6300 N   0  0  0  0  0  0  0  0  0  0  0  0
  -18.7624   -5.4494   29.8195 C   0  0  0  0  0  0  0  0  0  0  0  0
  -17.7494   -4.8308   30.5036 N   0  0  0  0  0  0  0  0  0  0  0  0
  2  1  1  6  0  0  0
  2  3  1  0  0  0  0
  2  5  1  0  0  0  0
  3  4  1  0  0  0  0
  3 17  1  0  0  0  0
  5  6  1  0  0  0  0
  7  6  1  1  0  0  0
  7  8  1  0  0  0  0
  7  9  1  0  0  0  0
 10  9  1  1  0  0  0
 10 11  1  0  0  0  0
 10 12  1  0  0  0  0
 11 16  1  0  0  0  0
 12 13  1  6  0  0  0
 12 14  1  0  0  0  0
 14 15  1  6  0  0  0
 14 16  1  0  0  0  0
 16 27  1  1  0  0  0
 18 19  2  0  0  0  0
 18 23  1  0  0  0  0
 19 20  1  0  0  0  0
 20 21  2  0  0  0  0
 21 22  1  0  0  0  0
 21 27  1  0  0  0  0
 22 23  2  0  0  0  0
 22 25  1  0  0  0  0
 23 24  1  0  0  0  0
 25 26  2  0  0  0  0
 26 27  1  0  0  0  0
M  END
>  <CHROM.1>
-12.50924238,-170.01285584,172.14387759,-114.03580218,-84.34288462,49.38614893
82.10790595,-16.27205412,-5.69917641,30.31559451,-0.01923478,-0.63963507
-2.60860363

>  <Name>
ligand

>  <RI>
0

>  <Rbt.Current_Directory>
/home/itssahil/PROJECTS/Mol_Feturizer/New_Systems/rnas/3GX6

>  <Rbt.Executable>
rbdock ($Id: //depot/dev/client3/rdock/2013.1/src/exe/rbdock.cxx#4 $)

>  <Rbt.Library>
libRbt.so (2013.1, Build901 2013/11/27)

>  <Rbt.Parameter_File>
/export/apps/rDock/src/rDock_2013.1_src/data/scripts/dock_solv.prm

>  <Rbt.Receptor>
prm/pocket_docking_7.prm

>  <SCORE>
-20.3147

>  <SCORE.INTER>
-10.1672

>  <SCORE.INTER.CONST>
1

>  <SCORE.INTER.POLAR>
0

>  <SCORE.INTER.ROT>
7

>  <SCORE.INTER.SOLV>
11.6951

>  <SCORE.INTER.VDW>
-18.9432

>  <SCORE.INTER.norm>
-0.376562

>  <SCORE.INTRA>
-10.1475

>  <SCORE.INTRA.DIHEDRAL>
-6.36367

>  <SCORE.INTRA.DIHEDRAL.0>
15.0182

>  <SCORE.INTRA.POLAR>
0

>  <SCORE.INTRA.POLAR.0>
0

>  <SCORE.INTRA.REPUL>
0

>  <SCORE.INTRA.REPUL.0>
0

>  <SCORE.INTRA.SOLV>
-1.63275

>  <SCORE.INTRA.SOLV.lig_0>
-47.9129

>  <SCORE.INTRA.VDW>
-6.14933

>  <SCORE.INTRA.VDW.0>
2.00851

>  <SCORE.INTRA.norm>
-0.375835

>  <SCORE.RESTR>
0

>  <SCORE.RESTR.CAVITY>
0

>  <SCORE.RESTR.norm>
0

>  <SCORE.SYSTEM>
0

>  <SCORE.SYSTEM.CONST>
0

>  <SCORE.SYSTEM.DIHEDRAL>
0

>  <SCORE.SYSTEM.SOLV>
0

>  <SCORE.SYSTEM.norm>
0

>  <SCORE.heavy>
27

>  <SCORE.norm>
-0.752397

>  <RMSD>
5.406

$$$$
ligand
 OpenBabel11021811483D
libRbt.so/2013.1/901 2013/11/27
 27 29  0  0  0  0  0  0  0  0999 V2000
  -13.2832   -3.7946   29.1950 N   0  0  0  0  0  0  0  0  0  0  0  0
  -14.5627   -3.8019   29.8992 C   0  0  2  0  0  0  0  0  0  0  0  0
  -15.7373   -3.9940   28.9435 C   0  0  0  0  0  0  0  0  0  0  0  0
  -16.8957   -3.7780   29.3067 O   0  0  0  0  0  0  0  0  0  0  0  0
  -14.7297   -2.5385   30.7381 C   0  0  0  0  0  0  0  0  0  0  0  0
  -13.8149   -2.4964   31.9524 C   0  0  0  0  0  0  0  0  0  0  0  0
  -14.0923   -3.8471   33.1249 S   0  0  2  0  0  0  0  0  0  0  0  0
  -13.1553   -5.1734   32.3252 C   0  0  0  0  0  0  0  0  0  0  0  0
  -15.7947   -4.3171   32.7129 C   0  0  0  0  0  0  0  0  0  0  0  0
  -16.2650   -5.4010   33.6722 C   0  0  1  0  0  0  0  0  0  0  0  0
  -17.6626   -5.5205   33.5544 O   0  0  0  0  0  0  0  0  0  0  0  0
  -15.7386   -6.7971   33.3969 C   0  0  1  0  0  0  0  0  0  0  0  0
  -14.6070   -7.0748   34.1912 O   0  0  0  0  0  0  0  0  0  0  0  0
  -16.8944   -7.6858   33.8097 C   0  0  1  0  0  0  0  0  0  0  0  0
  -16.5723   -8.2932   35.0365 O   0  0  0  0  0  0  0  0  0  0  0  0
  -18.1041   -6.7795   33.9937 C   0  0  2  0  0  0  0  0  0  0  0  0
  -15.5491   -4.3751   27.7881 O   0  0  0  0  0  0  0  0  0  0  0  0
  -20.4098   -6.3457   29.2745 N   0  0  0  0  0  0  0  0  0  0  0  0
  -19.3059   -5.6651   29.7492 C   0  0  0  0  0  0  0  0  0  0  0  0
  -18.8294   -5.9006   31.0250 N   0  0  0  0  0  0  0  0  0  0  0  0
  -19.4438   -6.8008   31.8287 C   0  0  0  0  0  0  0  0  0  0  0  0
  -20.5505   -7.5014   31.3652 C   0  0  0  0  0  0  0  0  0  0  0  0
  -21.0366   -7.2676   30.0846 C   0  0  0  0  0  0  0  0  0  0  0  0
  -22.1024   -7.9317   29.6443 N   0  0  0  0  0  0  0  0  0  0  0  0
  -20.9592   -8.3293   32.3507 N   0  0  0  0  0  0  0  0  0  0  0  0
  -20.1315   -8.1816   33.4117 C   0  0  0  0  0  0  0  0  0  0  0  0
  -19.1858   -7.2387   33.1062 N   0  0  0  0  0  0  0  0  0  0  0  0
  2  1  1  6  0  0  0
  2  3  1  0  0  0  0
  2  5  1  0  0  0  0
  3  4  1  0  0  0  0
  3 17  1  0  0  0  0
  5  6  1  0  0  0  0
  7  6  1  6  0  0  0
  7  8  1  0  0  0  0
  7  9  1  0  0  0  0
 10  9  1  6  0  0  0
 10 11  1  0  0  0  0
 10 12  1  0  0  0  0
 11 16  1  0  0  0  0
 12 13  1  1  0  0  0
 12 14  1  0  0  0  0
 14 15  1  1  0  0  0
 14 16  1  0  0  0  0
 16 27  1  6  0  0  0
 18 19  2  0  0  0  0
 18 23  1  0  0  0  0
 19 20  1  0  0  0  0
 20 21  2  0  0  0  0
 21 22  1  0  0  0  0
 21 27  1  0  0  0  0
 22 23  2  0  0  0  0
 22 25  1  0  0  0  0
 23 24  1  0  0  0  0
 25 26  2  0  0  0  0
 26 27  1  0  0  0  0
M  END
>  <CHROM.1>
-166.19171191,-70.70110648,-61.15750936,81.37220427,-176.10799508,165.95307026
20.65338479,-17.00229805,-5.68882698,31.76829194,0.26647110,-0.47334818,-1.09479191

>  <Name>
ligand

>  <RI>
0

>  <Rbt.Current_Directory>
/home/itssahil/PROJECTS/Mol_Feturizer/New_Systems/rnas/3GX6

>  <Rbt.Executable>
rbdock ($Id: //depot/dev/client3/rdock/2013.1/src/exe/rbdock.cxx#4 $)

>  <Rbt.Library>
libRbt.so (2013.1, Build901 2013/11/27)

>  <Rbt.Parameter_File>
/export/apps/rDock/src/rDock_2013.1_src/data/scripts/dock_solv.prm

>  <Rbt.Receptor>
prm/pocket_docking_8.prm

>  <SCORE>
-21.0062

>  <SCORE.INTER>
-14.9547

>  <SCORE.INTER.CONST>
1

>  <SCORE.INTER.POLAR>
0

>  <SCORE.INTER.ROT>
7

>  <SCORE.INTER.SOLV>
14.0312

>  <SCORE.INTER.VDW>
-22.9136

>  <SCORE.INTER.norm>
-0.553879

>  <SCORE.INTRA>
-6.05146

>  <SCORE.INTRA.DIHEDRAL>
-8.1274

>  <SCORE.INTRA.DIHEDRAL.0>
15.0182

>  <SCORE.INTRA.POLAR>
0

>  <SCORE.INTRA.POLAR.0>
0

>  <SCORE.INTRA.REPUL>
0

>  <SCORE.INTRA.REPUL.0>
0

>  <SCORE.INTRA.SOLV>
0.873071

>  <SCORE.INTRA.SOLV.lig_0>
-47.9129

>  <SCORE.INTRA.VDW>
-2.42429

>  <SCORE.INTRA.VDW.0>
2.00851

>  <SCORE.INTRA.norm>
-0.224128

>  <SCORE.RESTR>
0

>  <SCORE.RESTR.CAVITY>
0

>  <SCORE.RESTR.norm>
0

>  <SCORE.SYSTEM>
0

>  <SCORE.SYSTEM.CONST>
0

>  <SCORE.SYSTEM.DIHEDRAL>
0

>  <SCORE.SYSTEM.SOLV>
0

>  <SCORE.SYSTEM.norm>
0

>  <SCORE.heavy>
27

>  <SCORE.norm>
-0.778007

>  <RMSD>
5.409

$$$$
ligand
 OpenBabel11021811483D
libRbt.so/2013.1/901 2013/11/27
 27 29  0  0  0  0  0  0  0  0999 V2000
  -18.5995   -6.6954   30.3585 N   0  0  0  0  0  0  0  0  0  0  0  0
  -18.0527   -5.4122   29.9258 C   0  0  2  0  0  0  0  0  0  0  0  0
  -17.2155   -5.5491   28.6568 C   0  0  0  0  0  0  0  0  0  0  0  0
  -17.4081   -4.8157   27.6845 O   0  0  0  0  0  0  0  0  0  0  0  0
  -17.2568   -4.7531   31.0482 C   0  0  0  0  0  0  0  0  0  0  0  0
  -16.7180   -3.3797   30.6786 C   0  0  0  0  0  0  0  0  0  0  0  0
  -16.0200   -2.4667   32.0769 S   0  0  2  0  0  0  0  0  0  0  0  0
  -15.7985   -0.8348   31.3256 C   0  0  0  0  0  0  0  0  0  0  0  0
  -14.3171   -3.0900   32.0801 C   0  0  0  0  0  0  0  0  0  0  0  0
  -14.2456   -4.3580   32.9188 C   0  0  1  0  0  0  0  0  0  0  0  0
  -14.7000   -5.4344   32.1335 O   0  0  0  0  0  0  0  0  0  0  0  0
  -12.8569   -4.7731   33.3672 C   0  0  1  0  0  0  0  0  0  0  0  0
  -12.5905   -4.3129   34.6733 O   0  0  0  0  0  0  0  0  0  0  0  0
  -12.9316   -6.2864   33.3543 C   0  0  1  0  0  0  0  0  0  0  0  0
  -13.0066   -6.7395   34.6835 O   0  0  0  0  0  0  0  0  0  0  0  0
  -14.2111   -6.6589   32.6176 C   0  0  2  0  0  0  0  0  0  0  0  0
  -16.3313   -6.4023   28.5786 O   0  0  0  0  0  0  0  0  0  0  0  0
  -11.2803   -7.2585   28.2787 N   0  0  0  0  0  0  0  0  0  0  0  0
  -11.2906   -6.1950   29.1596 C   0  0  0  0  0  0  0  0  0  0  0  0
  -12.1314   -6.1984   30.2565 N   0  0  0  0  0  0  0  0  0  0  0  0
  -12.9608   -7.2456   30.4787 C   0  0  0  0  0  0  0  0  0  0  0  0
  -12.9581   -8.3283   29.6080 C   0  0  0  0  0  0  0  0  0  0  0  0
  -12.1172   -8.3303   28.5017 C   0  0  0  0  0  0  0  0  0  0  0  0
  -12.1216   -9.3632   27.6626 N   0  0  0  0  0  0  0  0  0  0  0  0
  -13.8607   -9.2254   30.0596 N   0  0  0  0  0  0  0  0  0  0  0  0
  -14.4168   -8.7455   31.1968 C   0  0  0  0  0  0  0  0  0  0  0  0
  -13.8709   -7.5196   31.4722 N   0  0  0  0  0  0  0  0  0  0  0  0
  2  1  1  1  0  0  0
  2  3  1  0  0  0  0
  2  5  1  0  0  0  0
  3  4  1  0  0  0  0
  3 17  1  0  0  0  0
  5  6  1  0  0  0  0
  7  6  1  6  0  0  0
  7  8  1  0  0  0  0
  7  9  1  0  0  0  0
 10  9  1  6  0  0  0
 10 11  1  0  0  0  0
 10 12  1  0  0  0  0
 11 16  1  0  0  0  0
 12 13  1  1  0  0  0
 12 14  1  0  0  0  0
 14 15  1  1  0  0  0
 14 16  1  0  0  0  0
 16 27  1  6  0  0  0
 18 19  2  0  0  0  0
 18 23  1  0  0  0  0
 19 20  1  0  0  0  0
 20 21  2  0  0  0  0
 21 22  1  0  0  0  0
 21 27  1  0  0  0  0
 22 23  2  0  0  0  0
 22 25  1  0  0  0  0
 23 24  1  0  0  0  0
 25 26  2  0  0  0  0
 26 27  1  0  0  0  0
M  END
>  <CHROM.1>
129.47859550,-177.19858915,170.09708130,-169.72080392,-87.55722955,80.64742075
59.49026907,-14.53312563,-5.71595340,30.94011187,2.30352733,-0.57836252,0.86127851

>  <Name>
ligand

>  <RI>
0

>  <Rbt.Current_Directory>
/home/itssahil/PROJECTS/Mol_Feturizer/New_Systems/rnas/3GX6

>  <Rbt.Executable>
rbdock ($Id: //depot/dev/client3/rdock/2013.1/src/exe/rbdock.cxx#4 $)

>  <Rbt.Library>
libRbt.so (2013.1, Build901 2013/11/27)

>  <Rbt.Parameter_File>
/export/apps/rDock/src/rDock_2013.1_src/data/scripts/dock_solv.prm

>  <Rbt.Receptor>
prm/pocket_docking_4.prm

>  <SCORE>
-24.1895

>  <SCORE.INTER>
-13.6204

>  <SCORE.INTER.CONST>
1

>  <SCORE.INTER.POLAR>
0

>  <SCORE.INTER.ROT>
7

>  <SCORE.INTER.SOLV>
10.1951

>  <SCORE.INTER.VDW>
-20.7453

>  <SCORE.INTER.norm>
-0.504461

>  <SCORE.INTRA>
-10.5691

>  <SCORE.INTRA.DIHEDRAL>
-8.10056

>  <SCORE.INTRA.DIHEDRAL.0>
15.0182

>  <SCORE.INTRA.POLAR>
0

>  <SCORE.INTRA.POLAR.0>
0

>  <SCORE.INTRA.REPUL>
0

>  <SCORE.INTRA.REPUL.0>
0

>  <SCORE.INTRA.SOLV>
-1.6266

>  <SCORE.INTRA.SOLV.lig_0>
-47.9129

>  <SCORE.INTRA.VDW>
-5.70552

>  <SCORE.INTRA.VDW.0>
2.00851

>  <SCORE.INTRA.norm>
-0.391448

>  <SCORE.RESTR>
0

>  <SCORE.RESTR.CAVITY>
0

>  <SCORE.RESTR.norm>
0

>  <SCORE.SYSTEM>
0

>  <SCORE.SYSTEM.CONST>
0

>  <SCORE.SYSTEM.DIHEDRAL>
0

>  <SCORE.SYSTEM.SOLV>
0

>  <SCORE.SYSTEM.norm>
0

>  <SCORE.heavy>
27

>  <SCORE.norm>
-0.895909

>  <RMSD>
5.413

$$$$
ligand
 OpenBabel11021811483D
libRbt.so/2013.1/901 2013/11/27
 27 29  0  0  0  0  0  0  0  0999 V2000
  -17.0510   -3.2095   28.9989 N   0  0  0  0  0  0  0  0  0  0  0  0
  -16.1538   -4.1832   29.6152 C   0  0  2  0  0  0  0  0  0  0  0  0
  -16.8114   -5.5535   29.7566 C   0  0  0  0  0  0  0  0  0  0  0  0
  -17.9494   -5.6693   30.2169 O   0  0  0  0  0  0  0  0  0  0  0  0
  -15.6366   -3.6739   30.9572 C   0  0  0  0  0  0  0  0  0  0  0  0
  -14.5894   -4.5820   31.5832 C   0  0  0  0  0  0  0  0  0  0  0  0
  -14.1335   -4.1178   33.2723 S   0  0  2  0  0  0  0  0  0  0  0  0
  -12.9509   -2.7884   32.9393 C   0  0  0  0  0  0  0  0  0  0  0  0
  -13.0211   -5.4795   33.7158 C   0  0  0  0  0  0  0  0  0  0  0  0
  -13.8392   -6.7385   33.9648 C   0  0  1  0  0  0  0  0  0  0  0  0
  -14.5749   -7.0262   32.7996 O   0  0  0  0  0  0  0  0  0  0  0  0
  -13.0404   -8.0003   34.2323 C   0  0  1  0  0  0  0  0  0  0  0  0
  -12.9121   -8.2313   35.6175 O   0  0  0  0  0  0  0  0  0  0  0  0
  -13.8911   -9.0837   33.6011 C   0  0  1  0  0  0  0  0  0  0  0  0
  -14.5251   -9.8062   34.6277 O   0  0  0  0  0  0  0  0  0  0  0  0
  -14.9412   -8.3813   32.7511 C   0  0  2  0  0  0  0  0  0  0  0  0
  -16.2123   -6.5738   29.4166 O   0  0  0  0  0  0  0  0  0  0  0  0
  -11.7275   -9.4223   28.7059 N   0  0  0  0  0  0  0  0  0  0  0  0
  -11.3936   -8.9479   29.9591 C   0  0  0  0  0  0  0  0  0  0  0  0
  -12.3711   -8.7256   30.9106 N   0  0  0  0  0  0  0  0  0  0  0  0
  -13.6723   -8.9666   30.6229 C   0  0  0  0  0  0  0  0  0  0  0  0
  -14.0263   -9.4522   29.3701 C   0  0  0  0  0  0  0  0  0  0  0  0
  -13.0489   -9.6754   28.4080 C   0  0  0  0  0  0  0  0  0  0  0  0
  -13.3893  -10.1315   27.2050 N   0  0  0  0  0  0  0  0  0  0  0  0
  -15.3673   -9.6105   29.3511 N   0  0  0  0  0  0  0  0  0  0  0  0
  -15.8627   -9.2552   30.5598 C   0  0  0  0  0  0  0  0  0  0  0  0
  -14.8266   -8.8539   31.3612 N   0  0  0  0  0  0  0  0  0  0  0  0
  2  1  1  1  0  0  0
  2  3  1  0  0  0  0
  2  5  1  0  0  0  0
  3  4  1  0  0  0  0
  3 17  1  0  0  0  0
  5  6  1  0  0  0  0
  7  6  1  6  0  0  0
  7  8  1  0  0  0  0
  7  9  1  0  0  0  0
 10  9  1  6  0  0  0
 10 11  1  0  0  0  0
 10 12  1  0  0  0  0
 11 16  1  0  0  0  0
 12 13  1  1  0  0  0
 12 14  1  0  0  0  0
 14 15  1  1  0  0  0
 14 16  1  0  0  0  0
 16 27  1  6  0  0  0
 18 19  2  0  0  0  0
 18 23  1  0  0  0  0
 19 20  1  0  0  0  0
 20 21  2  0  0  0  0
 21 22  1  0  0  0  0
 21 27  1  0  0  0  0
 22 23  2  0  0  0  0
 22 25  1  0  0  0  0
 23 24  1  0  0  0  0
 25 26  2  0  0  0  0
 26 27  1  0  0  0  0
M  END
>  <CHROM.1>
-47.24109250,-174.23498192,-171.99445420,-81.19783637,-73.83446289,58.06101970
65.54123191,-14.38199905,-7.06932300,31.43361322,2.14060842,-1.05513247,0.86127988

>  <Name>
ligand

>  <RI>
0

>  <Rbt.Current_Directory>
/home/itssahil/PROJECTS/Mol_Feturizer/New_Systems/rnas/3GX6

>  <Rbt.Executable>
rbdock ($Id: //depot/dev/client3/rdock/2013.1/src/exe/rbdock.cxx#4 $)

>  <Rbt.Library>
libRbt.so (2013.1, Build901 2013/11/27)

>  <Rbt.Parameter_File>
/export/apps/rDock/src/rDock_2013.1_src/data/scripts/dock_solv.prm

>  <Rbt.Receptor>
prm/pocket_docking_5.prm

>  <SCORE>
-23.2205

>  <SCORE.INTER>
-11.8729

>  <SCORE.INTER.CONST>
1

>  <SCORE.INTER.POLAR>
0

>  <SCORE.INTER.ROT>
7

>  <SCORE.INTER.SOLV>
15.1856

>  <SCORE.INTER.VDW>
-21.2438

>  <SCORE.INTER.norm>
-0.439738

>  <SCORE.INTRA>
-11.3476

>  <SCORE.INTRA.DIHEDRAL>
-10.8965

>  <SCORE.INTRA.DIHEDRAL.0>
15.0182

>  <SCORE.INTRA.POLAR>
0

>  <SCORE.INTRA.POLAR.0>
0

>  <SCORE.INTRA.REPUL>
0

>  <SCORE.INTRA.REPUL.0>
0

>  <SCORE.INTRA.SOLV>
-1.66246

>  <SCORE.INTRA.SOLV.lig_0>
-47.9129

>  <SCORE.INTRA.VDW>
-5.06811

>  <SCORE.INTRA.VDW.0>
2.00851

>  <SCORE.INTRA.norm>
-0.420281

>  <SCORE.RESTR>
0

>  <SCORE.RESTR.CAVITY>
0

>  <SCORE.RESTR.norm>
0

>  <SCORE.SYSTEM>
0

>  <SCORE.SYSTEM.CONST>
0

>  <SCORE.SYSTEM.DIHEDRAL>
0

>  <SCORE.SYSTEM.SOLV>
0

>  <SCORE.SYSTEM.norm>
0

>  <SCORE.heavy>
27

>  <SCORE.norm>
-0.860019

>  <RMSD>
5.427

$$$$
ligand
 OpenBabel11021811483D
libRbt.so/2013.1/901 2013/11/27
 27 29  0  0  0  0  0  0  0  0999 V2000
  -15.4374   -4.2210   27.8829 N   0  0  0  0  0  0  0  0  0  0  0  0
  -14.2821   -4.9532   28.3949 C   0  0  2  0  0  0  0  0  0  0  0  0
  -14.0872   -6.2848   27.6745 C   0  0  0  0  0  0  0  0  0  0  0  0
  -12.9774   -6.6293   27.2621 O   0  0  0  0  0  0  0  0  0  0  0  0
  -14.3863   -5.1481   29.9045 C   0  0  0  0  0  0  0  0  0  0  0  0
  -14.2204   -3.8573   30.6915 C   0  0  0  0  0  0  0  0  0  0  0  0
  -14.3244   -4.0753   32.4853 S   0  0  2  0  0  0  0  0  0  0  0  0
  -13.4452   -2.5961   33.0471 C   0  0  0  0  0  0  0  0  0  0  0  0
  -13.0687   -5.3565   32.7503 C   0  0  0  0  0  0  0  0  0  0  0  0
  -13.7536   -6.6684   33.1051 C   0  0  1  0  0  0  0  0  0  0  0  0
  -14.4352   -7.1346   31.9650 O   0  0  0  0  0  0  0  0  0  0  0  0
  -12.8309   -7.8094   33.4905 C   0  0  1  0  0  0  0  0  0  0  0  0
  -12.7022   -7.9022   34.8917 O   0  0  0  0  0  0  0  0  0  0  0  0
  -13.5519   -9.0288   32.9528 C   0  0  1  0  0  0  0  0  0  0  0  0
  -14.1234   -9.7211   34.0354 O   0  0  0  0  0  0  0  0  0  0  0  0
  -14.6558   -8.5200   32.0356 C   0  0  2  0  0  0  0  0  0  0  0  0
  -15.0405   -7.0408   27.4865 O   0  0  0  0  0  0  0  0  0  0  0  0
  -11.3542   -9.3155   28.0055 N   0  0  0  0  0  0  0  0  0  0  0  0
  -11.1038   -8.6613   29.1956 C   0  0  0  0  0  0  0  0  0  0  0  0
  -12.0931   -8.5395   30.1530 N   0  0  0  0  0  0  0  0  0  0  0  0
  -13.3248   -9.0576   29.9328 C   0  0  0  0  0  0  0  0  0  0  0  0
  -13.5927   -9.7266   28.7449 C   0  0  0  0  0  0  0  0  0  0  0  0
  -12.6034   -9.8505   27.7769 C   0  0  0  0  0  0  0  0  0  0  0  0
  -12.8630  -10.4830   26.6352 N   0  0  0  0  0  0  0  0  0  0  0  0
  -14.8761  -10.1448   28.7853 N   0  0  0  0  0  0  0  0  0  0  0  0
  -15.4157   -9.7732   29.9699 C   0  0  0  0  0  0  0  0  0  0  0  0
  -14.4687   -9.0987   30.6945 N   0  0  0  0  0  0  0  0  0  0  0  0
  2  1  1  6  0  0  0
  2  3  1  0  0  0  0
  2  5  1  0  0  0  0
  3  4  1  0  0  0  0
  3 17  1  0  0  0  0
  5  6  1  0  0  0  0
  7  6  1  6  0  0  0
  7  8  1  0  0  0  0
  7  9  1  0  0  0  0
 10  9  1  6  0  0  0
 10 11  1  0  0  0  0
 10 12  1  0  0  0  0
 11 16  1  0  0  0  0
 12 13  1  1  0  0  0
 12 14  1  0  0  0  0
 14 15  1  1  0  0  0
 14 16  1  0  0  0  0
 16 27  1  6  0  0  0
 18 19  2  0  0  0  0
 18 23  1  0  0  0  0
 19 20  1  0  0  0  0
 20 21  2  0  0  0  0
 21 22  1  0  0  0  0
 21 27  1  0  0  0  0
 22 23  2  0  0  0  0
 22 25  1  0  0  0  0
 23 24  1  0  0  0  0
 25 26  2  0  0  0  0
 26 27  1  0  0  0  0
M  END
>  <CHROM.1>
133.03107900,-69.58123205,-179.39720948,157.97870386,-108.74892945,68.80093539
59.87871459,-13.70969987,-7.25924428,30.51793717,2.08716702,-1.39882707,1.39932483

>  <Name>
ligand

>  <RI>
0

>  <Rbt.Current_Directory>
/home/itssahil/PROJECTS/Mol_Feturizer/New_Systems/rnas/3GX6

>  <Rbt.Executable>
rbdock ($Id: //depot/dev/client3/rdock/2013.1/src/exe/rbdock.cxx#4 $)

>  <Rbt.Library>
libRbt.so (2013.1, Build901 2013/11/27)

>  <Rbt.Parameter_File>
/export/apps/rDock/src/rDock_2013.1_src/data/scripts/dock_solv.prm

>  <Rbt.Receptor>
prm/pocket_docking_3.prm

>  <SCORE>
-21.4045

>  <SCORE.INTER>
-10.0905

>  <SCORE.INTER.CONST>
1

>  <SCORE.INTER.POLAR>
0

>  <SCORE.INTER.ROT>
7

>  <SCORE.INTER.SOLV>
13.4345

>  <SCORE.INTER.VDW>
-19.4718

>  <SCORE.INTER.norm>
-0.373722

>  <SCORE.INTRA>
-11.314

>  <SCORE.INTRA.DIHEDRAL>
-7.32626

>  <SCORE.INTRA.DIHEDRAL.0>
15.0182

>  <SCORE.INTRA.POLAR>
0

>  <SCORE.INTRA.POLAR.0>
0

>  <SCORE.INTRA.REPUL>
0

>  <SCORE.INTRA.REPUL.0>
0

>  <SCORE.INTRA.SOLV>
-0.948734

>  <SCORE.INTRA.SOLV.lig_0>
-47.9129

>  <SCORE.INTRA.VDW>
-7.17649

>  <SCORE.INTRA.VDW.0>
2.00851

>  <SCORE.INTRA.norm>
-0.419037

>  <SCORE.RESTR>
0

>  <SCORE.RESTR.CAVITY>
0

>  <SCORE.RESTR.norm>
0

>  <SCORE.SYSTEM>
0

>  <SCORE.SYSTEM.CONST>
0

>  <SCORE.SYSTEM.DIHEDRAL>
0

>  <SCORE.SYSTEM.SOLV>
0

>  <SCORE.SYSTEM.norm>
0

>  <SCORE.heavy>
27

>  <SCORE.norm>
-0.792759

>  <RMSD>
5.432

$$$$
ligand
 OpenBabel11021811483D
libRbt.so/2013.1/901 2013/11/27
 27 29  0  0  0  0  0  0  0  0999 V2000
  -16.5779   -8.1124   29.6856 N   0  0  0  0  0  0  0  0  0  0  0  0
  -16.3117   -8.2750   28.2588 C   0  0  2  0  0  0  0  0  0  0  0  0
  -15.5508   -9.5653   27.9651 C   0  0  0  0  0  0  0  0  0  0  0  0
  -14.8574  -10.1065   28.8292 O   0  0  0  0  0  0  0  0  0  0  0  0
  -15.5801   -7.0587   27.6992 C   0  0  0  0  0  0  0  0  0  0  0  0
  -16.5003   -5.8833   27.4084 C   0  0  0  0  0  0  0  0  0  0  0  0
  -17.3507   -5.2402   28.8712 S   0  0  2  0  0  0  0  0  0  0  0  0
  -18.9508   -4.7951   28.1514 C   0  0  0  0  0  0  0  0  0  0  0  0
  -16.5702   -3.6117   29.0357 C   0  0  0  0  0  0  0  0  0  0  0  0
  -16.1658   -3.3903   30.4861 C   0  0  1  0  0  0  0  0  0  0  0  0
  -17.2081   -3.8524   31.3118 O   0  0  0  0  0  0  0  0  0  0  0  0
  -14.9421   -4.1563   30.9525 C   0  0  1  0  0  0  0  0  0  0  0  0
  -13.7850   -3.3541   30.8734 O   0  0  0  0  0  0  0  0  0  0  0  0
  -15.2631   -4.4644   32.4010 C   0  0  1  0  0  0  0  0  0  0  0  0
  -14.4900   -3.6197   33.2174 O   0  0  0  0  0  0  0  0  0  0  0  0
  -16.7399   -4.1524   32.6017 C   0  0  2  0  0  0  0  0  0  0  0  0
  -15.6118  -10.0891   26.8527 O   0  0  0  0  0  0  0  0  0  0  0  0
  -20.3489   -7.8621   31.6073 N   0  0  0  0  0  0  0  0  0  0  0  0
  -19.9764   -6.7998   30.8075 C   0  0  0  0  0  0  0  0  0  0  0  0
  -19.0049   -5.9105   31.2266 N   0  0  0  0  0  0  0  0  0  0  0  0
  -18.4082   -6.0682   32.4320 C   0  0  0  0  0  0  0  0  0  0  0  0
  -18.7639   -7.1361   33.2466 C   0  0  0  0  0  0  0  0  0  0  0  0
  -19.7418   -8.0324   32.8326 C   0  0  0  0  0  0  0  0  0  0  0  0
  -20.0892   -9.0497   33.6172 N   0  0  0  0  0  0  0  0  0  0  0  0
  -18.0214   -7.0638   34.3722 N   0  0  0  0  0  0  0  0  0  0  0  0
  -17.1985   -5.9928   34.2803 C   0  0  0  0  0  0  0  0  0  0  0  0
  -17.4239   -5.3639   33.0843 N   0  0  0  0  0  0  0  0  0  0  0  0
  2  1  1  1  0  0  0
  2  3  1  0  0  0  0
  2  5  1  0  0  0  0
  3  4  1  0  0  0  0
  3 17  1  0  0  0  0
  5  6  1  0  0  0  0
  7  6  1  6  0  0  0
  7  8  1  0  0  0  0
  7  9  1  0  0  0  0
 10  9  1  6  0  0  0
 10 11  1  0  0  0  0
 10 12  1  0  0  0  0
 11 16  1  0  0  0  0
 12 13  1  1  0  0  0
 12 14  1  0  0  0  0
 14 15  1  1  0  0  0
 14 16  1  0  0  0  0
 16 27  1  6  0  0  0
 18 19  2  0  0  0  0
 18 23  1  0  0  0  0
 19 20  1  0  0  0  0
 20 21  2  0  0  0  0
 21 22  1  0  0  0  0
 21 27  1  0  0  0  0
 22 23  2  0  0  0  0
 22 25  1  0  0  0  0
 23 24  1  0  0  0  0
 25 26  2  0  0  0  0
 26 27  1  0  0  0  0
M  END
>  <CHROM.1>
-23.98885048,-79.86258007,61.66006121,-143.99687749,-133.19805209,-42.09373022
-2.95849093,-17.03739133,-6.19346690,30.67038721,1.18408165,-0.85939666,-2.37643569

>  <Name>
ligand

>  <RI>
0

>  <Rbt.Current_Directory>
/home/itssahil/PROJECTS/Mol_Feturizer/New_Systems/rnas/3GX6

>  <Rbt.Executable>
rbdock ($Id: //depot/dev/client3/rdock/2013.1/src/exe/rbdock.cxx#4 $)

>  <Rbt.Library>
libRbt.so (2013.1, Build901 2013/11/27)

>  <Rbt.Parameter_File>
/export/apps/rDock/src/rDock_2013.1_src/data/scripts/dock_solv.prm

>  <Rbt.Receptor>
prm/pocket_docking_6.prm

>  <SCORE>
-16.8491

>  <SCORE.INTER>
-10.5335

>  <SCORE.INTER.CONST>
1

>  <SCORE.INTER.POLAR>
0

>  <SCORE.INTER.ROT>
7

>  <SCORE.INTER.SOLV>
9.1432

>  <SCORE.INTER.VDW>
-18.3367

>  <SCORE.INTER.norm>
-0.390128

>  <SCORE.INTRA>
-6.31565

>  <SCORE.INTRA.DIHEDRAL>
-1.36288

>  <SCORE.INTRA.DIHEDRAL.0>
15.0182

>  <SCORE.INTRA.POLAR>
0

>  <SCORE.INTRA.POLAR.0>
0

>  <SCORE.INTRA.REPUL>
0

>  <SCORE.INTRA.REPUL.0>
0

>  <SCORE.INTRA.SOLV>
0.985284

>  <SCORE.INTRA.SOLV.lig_0>
-47.9129

>  <SCORE.INTRA.VDW>
-6.12685

>  <SCORE.INTRA.VDW.0>
2.00851

>  <SCORE.INTRA.norm>
-0.233913

>  <SCORE.RESTR>
0

>  <SCORE.RESTR.CAVITY>
0

>  <SCORE.RESTR.norm>
0

>  <SCORE.SYSTEM>
0

>  <SCORE.SYSTEM.CONST>
0

>  <SCORE.SYSTEM.DIHEDRAL>
0

>  <SCORE.SYSTEM.SOLV>
0

>  <SCORE.SYSTEM.norm>
0

>  <SCORE.heavy>
27

>  <SCORE.norm>
-0.624041

>  <RMSD>
5.432

$$$$
ligand
 OpenBabel11021811483D
libRbt.so/2013.1/901 2013/11/27
 27 29  0  0  0  0  0  0  0  0999 V2000
  -17.4314   -4.3313   29.6773 N   0  0  0  0  0  0  0  0  0  0  0  0
  -16.5209   -4.5444   30.7991 C   0  0  2  0  0  0  0  0  0  0  0  0
  -17.0479   -3.9170   32.0870 C   0  0  0  0  0  0  0  0  0  0  0  0
  -17.3595   -4.6151   33.0544 O   0  0  0  0  0  0  0  0  0  0  0  0
  -15.1202   -4.0387   30.4673 C   0  0  0  0  0  0  0  0  0  0  0  0
  -14.0384   -4.6357   31.3540 C   0  0  0  0  0  0  0  0  0  0  0  0
  -14.1649   -4.1476   33.0924 S   0  0  2  0  0  0  0  0  0  0  0  0
  -13.1401   -2.6555   33.0896 C   0  0  0  0  0  0  0  0  0  0  0  0
  -13.0463   -5.3450   33.8690 C   0  0  0  0  0  0  0  0  0  0  0  0
  -13.7649   -6.6772   34.0279 C   0  0  1  0  0  0  0  0  0  0  0  0
  -14.3863   -6.9936   32.8050 O   0  0  0  0  0  0  0  0  0  0  0  0
  -12.8782   -7.8719   34.3251 C   0  0  1  0  0  0  0  0  0  0  0  0
  -12.8297   -8.1313   35.7103 O   0  0  0  0  0  0  0  0  0  0  0  0
  -13.5815   -9.0064   33.6080 C   0  0  1  0  0  0  0  0  0  0  0  0
  -14.2207   -9.8111   34.5680 O   0  0  0  0  0  0  0  0  0  0  0  0
  -14.6261   -8.3736   32.6987 C   0  0  2  0  0  0  0  0  0  0  0  0
  -17.1770   -2.6963   32.1820 O   0  0  0  0  0  0  0  0  0  0  0  0
  -11.6752   -7.7353   28.3790 N   0  0  0  0  0  0  0  0  0  0  0  0
  -11.5695   -7.0764   29.5879 C   0  0  0  0  0  0  0  0  0  0  0  0
  -12.4351   -7.3670   30.6255 N   0  0  0  0  0  0  0  0  0  0  0  0
  -13.4030   -8.3008   30.4669 C   0  0  0  0  0  0  0  0  0  0  0  0
  -13.5191   -8.9802   29.2604 C   0  0  0  0  0  0  0  0  0  0  0  0
  -12.6539   -8.6911   28.2122 C   0  0  0  0  0  0  0  0  0  0  0  0
  -12.7714   -9.3351   27.0536 N   0  0  0  0  0  0  0  0  0  0  0  0
  -14.5463   -9.8497   29.3719 N   0  0  0  0  0  0  0  0  0  0  0  0
  -15.0665   -9.7482   30.6176 C   0  0  0  0  0  0  0  0  0  0  0  0
  -14.3703   -8.7935   31.3107 N   0  0  0  0  0  0  0  0  0  0  0  0
  2  1  1  6  0  0  0
  2  3  1  0  0  0  0
  2  5  1  0  0  0  0
  3  4  1  0  0  0  0
  3 17  1  0  0  0  0
  5  6  1  0  0  0  0
  7  6  1  6  0  0  0
  7  8  1  0  0  0  0
  7  9  1  0  0  0  0
 10  9  1  6  0  0  0
 10 11  1  0  0  0  0
 10 12  1  0  0  0  0
 11 16  1  0  0  0  0
 12 13  1  1  0  0  0
 12 14  1  0  0  0  0
 14 15  1  1  0  0  0
 14 16  1  0  0  0  0
 16 27  1  6  0  0  0
 18 19  2  0  0  0  0
 18 23  1  0  0  0  0
 19 20  1  0  0  0  0
 20 21  2  0  0  0  0
 21 22  1  0  0  0  0
 21 27  1  0  0  0  0
 22 23  2  0  0  0  0
 22 25  1  0  0  0  0
 23 24  1  0  0  0  0
 25 26  2  0  0  0  0
 26 27  1  0  0  0  0
M  END
>  <CHROM.1>
114.94655231,-160.23432867,-65.83032193,-90.31538066,-79.68581347,47.92250642
35.38823400,-14.22792709,-6.62312688,31.72241938,2.59712388,-1.09499463,1.46001664

>  <Name>
ligand

>  <RI>
0

>  <Rbt.Current_Directory>
/home/itssahil/PROJECTS/Mol_Feturizer/New_Systems/rnas/3GX6

>  <Rbt.Executable>
rbdock ($Id: //depot/dev/client3/rdock/2013.1/src/exe/rbdock.cxx#4 $)

>  <Rbt.Library>
libRbt.so (2013.1, Build901 2013/11/27)

>  <Rbt.Parameter_File>
/export/apps/rDock/src/rDock_2013.1_src/data/scripts/dock_solv.prm

>  <Rbt.Receptor>
prm/pocket_docking_3.prm

>  <SCORE>
-25.397

>  <SCORE.INTER>
-14.5397

>  <SCORE.INTER.CONST>
1

>  <SCORE.INTER.POLAR>
0

>  <SCORE.INTER.ROT>
7

>  <SCORE.INTER.SOLV>
9.4041

>  <SCORE.INTER.VDW>
-21.0945

>  <SCORE.INTER.norm>
-0.538507

>  <SCORE.INTRA>
-10.8573

>  <SCORE.INTRA.DIHEDRAL>
-8.15522

>  <SCORE.INTRA.DIHEDRAL.0>
15.0182

>  <SCORE.INTRA.POLAR>
0

>  <SCORE.INTRA.POLAR.0>
0

>  <SCORE.INTRA.REPUL>
0

>  <SCORE.INTRA.REPUL.0>
0

>  <SCORE.INTRA.SOLV>
-1.41647

>  <SCORE.INTRA.SOLV.lig_0>
-47.9129

>  <SCORE.INTRA.VDW>
-6.07149

>  <SCORE.INTRA.VDW.0>
2.00851

>  <SCORE.INTRA.norm>
-0.402123

>  <SCORE.RESTR>
0

>  <SCORE.RESTR.CAVITY>
0

>  <SCORE.RESTR.norm>
0

>  <SCORE.SYSTEM>
0

>  <SCORE.SYSTEM.CONST>
0

>  <SCORE.SYSTEM.DIHEDRAL>
0

>  <SCORE.SYSTEM.SOLV>
0

>  <SCORE.SYSTEM.norm>
0

>  <SCORE.heavy>
27

>  <SCORE.norm>
-0.94063

>  <RMSD>
5.457

$$$$
ligand
 OpenBabel11021811483D
libRbt.so/2013.1/901 2013/11/27
 27 29  0  0  0  0  0  0  0  0999 V2000
  -15.0050   -7.9860   26.8260 N   0  0  0  0  0  0  0  0  0  0  0  0
  -15.4358   -8.3073   28.1839 C   0  0  2  0  0  0  0  0  0  0  0  0
  -15.7681   -9.7889   28.3401 C   0  0  0  0  0  0  0  0  0  0  0  0
  -15.3332  -10.4423   29.2911 O   0  0  0  0  0  0  0  0  0  0  0  0
  -16.6087   -7.4273   28.6057 C   0  0  0  0  0  0  0  0  0  0  0  0
  -16.2207   -5.9743   28.8321 C   0  0  0  0  0  0  0  0  0  0  0  0
  -17.5598   -4.9545   29.4980 S   0  0  2  0  0  0  0  0  0  0  0  0
  -18.4982   -4.6179   27.9872 C   0  0  0  0  0  0  0  0  0  0  0  0
  -16.7019   -3.3756   29.7421 C   0  0  0  0  0  0  0  0  0  0  0  0
  -15.8570   -3.4506   31.0057 C   0  0  1  0  0  0  0  0  0  0  0  0
  -16.6681   -3.9268   32.0530 O   0  0  0  0  0  0  0  0  0  0  0  0
  -14.6881   -4.4168   30.9594 C   0  0  1  0  0  0  0  0  0  0  0  0
  -13.4940   -3.7474   30.6207 O   0  0  0  0  0  0  0  0  0  0  0  0
  -14.6112   -4.9288   32.3835 C   0  0  1  0  0  0  0  0  0  0  0  0
  -13.5072   -4.3271   33.0135 O   0  0  0  0  0  0  0  0  0  0  0  0
  -15.8934   -4.4923   33.0793 C   0  0  2  0  0  0  0  0  0  0  0  0
  -16.4758  -10.3629   27.5123 O   0  0  0  0  0  0  0  0  0  0  0  0
  -15.4158   -9.2612   35.2711 N   0  0  0  0  0  0  0  0  0  0  0  0
  -14.4114   -8.3839   34.9127 C   0  0  0  0  0  0  0  0  0  0  0  0
  -14.7150   -7.1627   34.3412 N   0  0  0  0  0  0  0  0  0  0  0  0
  -16.0046   -6.8129   34.1208 C   0  0  0  0  0  0  0  0  0  0  0  0
  -17.0289   -7.6791   34.4827 C   0  0  0  0  0  0  0  0  0  0  0  0
  -16.7307   -8.9096   35.0554 C   0  0  0  0  0  0  0  0  0  0  0  0
  -17.7115   -9.7432   35.3932 N   0  0  0  0  0  0  0  0  0  0  0  0
  -18.2015   -7.0899   34.1646 N   0  0  0  0  0  0  0  0  0  0  0  0
  -17.9440   -5.8730   33.6301 C   0  0  0  0  0  0  0  0  0  0  0  0
  -16.5876   -5.6839   33.5955 N   0  0  0  0  0  0  0  0  0  0  0  0
  2  1  1  6  0  0  0
  2  3  1  0  0  0  0
  2  5  1  0  0  0  0
  3  4  1  0  0  0  0
  3 17  1  0  0  0  0
  5  6  1  0  0  0  0
  7  6  1  6  0  0  0
  7  8  1  0  0  0  0
  7  9  1  0  0  0  0
 10  9  1  6  0  0  0
 10 11  1  0  0  0  0
 10 12  1  0  0  0  0
 11 16  1  0  0  0  0
 12 13  1  1  0  0  0
 12 14  1  0  0  0  0
 14 15  1  1  0  0  0
 14 16  1  0  0  0  0
 16 27  1  6  0  0  0
 18 19  2  0  0  0  0
 18 23  1  0  0  0  0
 19 20  1  0  0  0  0
 20 21  2  0  0  0  0
 21 22  1  0  0  0  0
 21 27  1  0  0  0  0
 22 23  2  0  0  0  0
 22 25  1  0  0  0  0
 23 24  1  0  0  0  0
 25 26  2  0  0  0  0
 26 27  1  0  0  0  0
M  END
>  <CHROM.1>
132.52955931,-70.35081040,-173.96972682,-80.26107264,-77.77921043,-50.36920947
149.11142349,-16.09360059,-6.52938153,31.40412594,2.02099468,-1.52018384
-1.03584144

>  <Name>
ligand

>  <RI>
0

>  <Rbt.Current_Directory>
/home/itssahil/PROJECTS/Mol_Feturizer/New_Systems/rnas/3GX6

>  <Rbt.Executable>
rbdock ($Id: //depot/dev/client3/rdock/2013.1/src/exe/rbdock.cxx#4 $)

>  <Rbt.Library>
libRbt.so (2013.1, Build901 2013/11/27)

>  <Rbt.Parameter_File>
/export/apps/rDock/src/rDock_2013.1_src/data/scripts/dock_solv.prm

>  <Rbt.Receptor>
prm/pocket_docking_5.prm

>  <SCORE>
-21.6911

>  <SCORE.INTER>
-11.9076

>  <SCORE.INTER.CONST>
1

>  <SCORE.INTER.POLAR>
0

>  <SCORE.INTER.ROT>
7

>  <SCORE.INTER.SOLV>
12.0089

>  <SCORE.INTER.VDW>
-20.2081

>  <SCORE.INTER.norm>
-0.441023

>  <SCORE.INTRA>
-9.78343

>  <SCORE.INTRA.DIHEDRAL>
-10.2202

>  <SCORE.INTRA.DIHEDRAL.0>
15.0182

>  <SCORE.INTRA.POLAR>
0

>  <SCORE.INTRA.POLAR.0>
0

>  <SCORE.INTRA.REPUL>
0

>  <SCORE.INTRA.REPUL.0>
0

>  <SCORE.INTRA.SOLV>
-0.872713

>  <SCORE.INTRA.SOLV.lig_0>
-47.9129

>  <SCORE.INTRA.VDW>
-4.23695

>  <SCORE.INTRA.VDW.0>
2.00851

>  <SCORE.INTRA.norm>
-0.362349

>  <SCORE.RESTR>
0

>  <SCORE.RESTR.CAVITY>
0

>  <SCORE.RESTR.norm>
0

>  <SCORE.SYSTEM>
0

>  <SCORE.SYSTEM.CONST>
0

>  <SCORE.SYSTEM.DIHEDRAL>
0

>  <SCORE.SYSTEM.SOLV>
0

>  <SCORE.SYSTEM.norm>
0

>  <SCORE.heavy>
27

>  <SCORE.norm>
-0.803372

>  <RMSD>
5.467

$$$$
ligand
 OpenBabel11021811483D
libRbt.so/2013.1/901 2013/11/27
 27 29  0  0  0  0  0  0  0  0999 V2000
  -15.0341   -7.9352   26.7949 N   0  0  0  0  0  0  0  0  0  0  0  0
  -15.4142   -8.3250   28.1500 C   0  0  2  0  0  0  0  0  0  0  0  0
  -15.7484   -9.8116   28.2422 C   0  0  0  0  0  0  0  0  0  0  0  0
  -15.3303  -10.5018   29.1744 O   0  0  0  0  0  0  0  0  0  0  0  0
  -16.5650   -7.4639   28.6618 C   0  0  0  0  0  0  0  0  0  0  0  0
  -16.2016   -5.9937   28.8013 C   0  0  0  0  0  0  0  0  0  0  0  0
  -17.5201   -4.9783   29.5133 S   0  0  2  0  0  0  0  0  0  0  0  0
  -18.4668   -4.5781   28.0232 C   0  0  0  0  0  0  0  0  0  0  0  0
  -16.6378   -3.4206   29.8021 C   0  0  0  0  0  0  0  0  0  0  0  0
  -15.8185   -3.5343   31.0797 C   0  0  1  0  0  0  0  0  0  0  0  0
  -16.6598   -4.0067   32.1046 O   0  0  0  0  0  0  0  0  0  0  0  0
  -14.6719   -4.5271   31.0400 C   0  0  1  0  0  0  0  0  0  0  0  0
  -13.4564   -3.8812   30.7335 O   0  0  0  0  0  0  0  0  0  0  0  0
  -14.6335   -5.0619   32.4573 C   0  0  1  0  0  0  0  0  0  0  0  0
  -13.5277   -4.4959   33.1165 O   0  0  0  0  0  0  0  0  0  0  0  0
  -15.9178   -4.6055   33.1361 C   0  0  2  0  0  0  0  0  0  0  0  0
  -16.4409  -10.3525   27.3799 O   0  0  0  0  0  0  0  0  0  0  0  0
  -15.5979   -9.3800   35.3445 N   0  0  0  0  0  0  0  0  0  0  0  0
  -14.5675   -8.5159   35.0302 C   0  0  0  0  0  0  0  0  0  0  0  0
  -14.8302   -7.2909   34.4466 N   0  0  0  0  0  0  0  0  0  0  0  0
  -16.1043   -6.9243   34.1709 C   0  0  0  0  0  0  0  0  0  0  0  0
  -17.1545   -7.7770   34.4878 C   0  0  0  0  0  0  0  0  0  0  0  0
  -16.8974   -9.0112   35.0722 C   0  0  0  0  0  0  0  0  0  0  0  0
  -17.9028   -9.8319   35.3670 N   0  0  0  0  0  0  0  0  0  0  0  0
  -18.3045   -7.1725   34.1195 N   0  0  0  0  0  0  0  0  0  0  0  0
  -18.0082   -5.9593   33.5972 C   0  0  0  0  0  0  0  0  0  0  0  0
  -16.6492   -5.7879   33.6213 N   0  0  0  0  0  0  0  0  0  0  0  0
  2  1  1  6  0  0  0
  2  3  1  0  0  0  0
  2  5  1  0  0  0  0
  3  4  1  0  0  0  0
  3 17  1  0  0  0  0
  5  6  1  0  0  0  0
  7  6  1  6  0  0  0
  7  8  1  0  0  0  0
  7  9  1  0  0  0  0
 10  9  1  6  0  0  0
 10 11  1  0  0  0  0
 10 12  1  0  0  0  0
 11 16  1  0  0  0  0
 12 13  1  1  0  0  0
 12 14  1  0  0  0  0
 14 15  1  1  0  0  0
 14 16  1  0  0  0  0
 16 27  1  6  0  0  0
 18 19  2  0  0  0  0
 18 23  1  0  0  0  0
 19 20  1  0  0  0  0
 20 21  2  0  0  0  0
 21 22  1  0  0  0  0
 21 27  1  0  0  0  0
 22 23  2  0  0  0  0
 22 25  1  0  0  0  0
 23 24  1  0  0  0  0
 25 26  2  0  0  0  0
 26 27  1  0  0  0  0
M  END
>  <CHROM.1>
135.85481867,-63.96405894,-176.07010412,-86.17167689,-79.61895774,-50.69214025
150.87373045,-16.12371192,-6.60030579,31.42444201,1.50855687,-1.51363709
-1.54268000

>  <Name>
ligand

>  <RI>
0

>  <Rbt.Current_Directory>
/home/itssahil/PROJECTS/Mol_Feturizer/New_Systems/rnas/3GX6

>  <Rbt.Executable>
rbdock ($Id: //depot/dev/client3/rdock/2013.1/src/exe/rbdock.cxx#4 $)

>  <Rbt.Library>
libRbt.so (2013.1, Build901 2013/11/27)

>  <Rbt.Parameter_File>
/export/apps/rDock/src/rDock_2013.1_src/data/scripts/dock_solv.prm

>  <Rbt.Receptor>
prm/pocket_docking_5.prm

>  <SCORE>
-21.7135

>  <SCORE.INTER>
-11.8839

>  <SCORE.INTER.CONST>
1

>  <SCORE.INTER.POLAR>
0

>  <SCORE.INTER.ROT>
7

>  <SCORE.INTER.SOLV>
11.8154

>  <SCORE.INTER.VDW>
-20.1277

>  <SCORE.INTER.norm>
-0.440143

>  <SCORE.INTRA>
-9.82963

>  <SCORE.INTRA.DIHEDRAL>
-10.0958

>  <SCORE.INTRA.DIHEDRAL.0>
15.0182

>  <SCORE.INTRA.POLAR>
0

>  <SCORE.INTRA.POLAR.0>
0

>  <SCORE.INTRA.REPUL>
0

>  <SCORE.INTRA.REPUL.0>
0

>  <SCORE.INTRA.SOLV>
-0.8236

>  <SCORE.INTRA.SOLV.lig_0>
-47.9129

>  <SCORE.INTRA.VDW>
-4.36995

>  <SCORE.INTRA.VDW.0>
2.00851

>  <SCORE.INTRA.norm>
-0.36406

>  <SCORE.RESTR>
0

>  <SCORE.RESTR.CAVITY>
0

>  <SCORE.RESTR.norm>
0

>  <SCORE.SYSTEM>
0

>  <SCORE.SYSTEM.CONST>
0

>  <SCORE.SYSTEM.DIHEDRAL>
0

>  <SCORE.SYSTEM.SOLV>
0

>  <SCORE.SYSTEM.norm>
0

>  <SCORE.heavy>
27

>  <SCORE.norm>
-0.804203

>  <RMSD>
5.483

$$$$
ligand
 OpenBabel11021811483D
libRbt.so/2013.1/901 2013/11/27
 27 29  0  0  0  0  0  0  0  0999 V2000
  -16.1990   -4.5566   27.9712 N   0  0  0  0  0  0  0  0  0  0  0  0
  -17.1387   -4.8782   29.0420 C   0  0  2  0  0  0  0  0  0  0  0  0
  -18.5860   -4.8467   28.5577 C   0  0  0  0  0  0  0  0  0  0  0  0
  -18.8856   -4.3301   27.4790 O   0  0  0  0  0  0  0  0  0  0  0  0
  -16.9338   -3.9573   30.2411 C   0  0  0  0  0  0  0  0  0  0  0  0
  -15.5245   -4.0135   30.8099 C   0  0  0  0  0  0  0  0  0  0  0  0
  -15.3056   -3.0405   32.3205 S   0  0  2  0  0  0  0  0  0  0  0  0
  -15.2130   -1.3718   31.6254 C   0  0  0  0  0  0  0  0  0  0  0  0
  -13.5610   -3.3677   32.6915 C   0  0  0  0  0  0  0  0  0  0  0  0
  -13.3956   -4.8263   33.0933 C   0  0  1  0  0  0  0  0  0  0  0  0
  -14.4582   -5.1730   33.9492 O   0  0  0  0  0  0  0  0  0  0  0  0
  -13.4738   -5.8337   31.9615 C   0  0  1  0  0  0  0  0  0  0  0  0
  -12.1853   -6.1778   31.5032 O   0  0  0  0  0  0  0  0  0  0  0  0
  -14.1303   -7.0325   32.6156 C   0  0  1  0  0  0  0  0  0  0  0  0
  -13.1492   -8.0182   32.8244 O   0  0  0  0  0  0  0  0  0  0  0  0
  -14.6711   -6.5614   33.9588 C   0  0  2  0  0  0  0  0  0  0  0  0
  -19.4860   -5.3347   29.2415 O   0  0  0  0  0  0  0  0  0  0  0  0
  -18.5207   -9.7637   35.6022 N   0  0  0  0  0  0  0  0  0  0  0  0
  -17.1593   -9.9033   35.7871 C   0  0  0  0  0  0  0  0  0  0  0  0
  -16.2809   -8.9629   35.2828 N   0  0  0  0  0  0  0  0  0  0  0  0
  -16.7458   -7.8928   34.5954 C   0  0  0  0  0  0  0  0  0  0  0  0
  -18.1129   -7.7311   34.4069 C   0  0  0  0  0  0  0  0  0  0  0  0
  -19.0014   -8.6741   34.9089 C   0  0  0  0  0  0  0  0  0  0  0  0
  -20.3102   -8.5241   34.7201 N   0  0  0  0  0  0  0  0  0  0  0  0
  -18.3026   -6.5927   33.7057 N   0  0  0  0  0  0  0  0  0  0  0  0
  -17.0968   -6.0268   33.4640 C   0  0  0  0  0  0  0  0  0  0  0  0
  -16.1202   -6.8183   34.0084 N   0  0  0  0  0  0  0  0  0  0  0  0
  2  1  1  6  0  0  0
  2  3  1  0  0  0  0
  2  5  1  0  0  0  0
  3  4  1  0  0  0  0
  3 17  1  0  0  0  0
  5  6  1  0  0  0  0
  7  6  1  6  0  0  0
  7  8  1  0  0  0  0
  7  9  1  0  0  0  0
 10  9  1  6  0  0  0
 10 11  1  0  0  0  0
 10 12  1  0  0  0  0
 11 16  1  0  0  0  0
 12 13  1  1  0  0  0
 12 14  1  0  0  0  0
 14 15  1  1  0  0  0
 14 16  1  0  0  0  0
 16 27  1  6  0  0  0
 18 19  2  0  0  0  0
 18 23  1  0  0  0  0
 19 20  1  0  0  0  0
 20 21  2  0  0  0  0
 21 22  1  0  0  0  0
 21 27  1  0  0  0  0
 22 23  2  0  0  0  0
 22 25  1  0  0  0  0
 23 24  1  0  0  0  0
 25 26  2  0  0  0  0
 26 27  1  0  0  0  0
M  END
>  <CHROM.1>
-14.27295928,-57.93868131,-174.83353548,-76.92066353,-68.15259480,-42.37781425
-149.22301272,-16.20497960,-5.88076332,32.38052630,1.38131969,-0.34378727
-0.87349740

>  <Name>
ligand

>  <RI>
0

>  <Rbt.Current_Directory>
/home/itssahil/PROJECTS/Mol_Feturizer/New_Systems/rnas/3GX6

>  <Rbt.Executable>
rbdock ($Id: //depot/dev/client3/rdock/2013.1/src/exe/rbdock.cxx#4 $)

>  <Rbt.Library>
libRbt.so (2013.1, Build901 2013/11/27)

>  <Rbt.Parameter_File>
/export/apps/rDock/src/rDock_2013.1_src/data/scripts/dock_solv.prm

>  <Rbt.Receptor>
prm/pocket_docking_8.prm

>  <SCORE>
-27.3382

>  <SCORE.INTER>
-17.428

>  <SCORE.INTER.CONST>
1

>  <SCORE.INTER.POLAR>
0

>  <SCORE.INTER.ROT>
7

>  <SCORE.INTER.SOLV>
12.4853

>  <SCORE.INTER.VDW>
-24.0471

>  <SCORE.INTER.norm>
-0.64548

>  <SCORE.INTRA>
-9.91025

>  <SCORE.INTRA.DIHEDRAL>
-10.4602

>  <SCORE.INTRA.DIHEDRAL.0>
15.0182

>  <SCORE.INTRA.POLAR>
0

>  <SCORE.INTRA.POLAR.0>
0

>  <SCORE.INTRA.REPUL>
0

>  <SCORE.INTRA.REPUL.0>
0

>  <SCORE.INTRA.SOLV>
-0.831356

>  <SCORE.INTRA.SOLV.lig_0>
-47.9129

>  <SCORE.INTRA.VDW>
-4.26447

>  <SCORE.INTRA.VDW.0>
2.00851

>  <SCORE.INTRA.norm>
-0.367046

>  <SCORE.RESTR>
0

>  <SCORE.RESTR.CAVITY>
0

>  <SCORE.RESTR.norm>
0

>  <SCORE.SYSTEM>
0

>  <SCORE.SYSTEM.CONST>
0

>  <SCORE.SYSTEM.DIHEDRAL>
0

>  <SCORE.SYSTEM.SOLV>
0

>  <SCORE.SYSTEM.norm>
0

>  <SCORE.heavy>
27

>  <SCORE.norm>
-1.01253

>  <RMSD>
5.497

$$$$
ligand
 OpenBabel11021811483D
libRbt.so/2013.1/901 2013/11/27
 27 29  0  0  0  0  0  0  0  0999 V2000
  -14.2431   -1.8146   31.4261 N   0  0  0  0  0  0  0  0  0  0  0  0
  -14.8759   -2.9720   30.7992 C   0  0  2  0  0  0  0  0  0  0  0  0
  -16.3944   -2.8281   30.7404 C   0  0  0  0  0  0  0  0  0  0  0  0
  -17.0112   -2.2222   31.6195 O   0  0  0  0  0  0  0  0  0  0  0  0
  -14.4667   -4.2633   31.5013 C   0  0  0  0  0  0  0  0  0  0  0  0
  -14.6452   -4.2109   33.0108 C   0  0  0  0  0  0  0  0  0  0  0  0
  -13.0880   -4.1200   33.9291 S   0  0  2  0  0  0  0  0  0  0  0  0
  -12.0591   -3.2206   32.7421 C   0  0  0  0  0  0  0  0  0  0  0  0
  -12.4684   -5.8121   33.7253 C   0  0  0  0  0  0  0  0  0  0  0  0
  -13.5780   -6.7991   34.0580 C   0  0  1  0  0  0  0  0  0  0  0  0
  -14.4063   -6.9317   32.9276 O   0  0  0  0  0  0  0  0  0  0  0  0
  -13.1284   -8.2144   34.3691 C   0  0  1  0  0  0  0  0  0  0  0  0
  -13.0135   -8.4123   35.7606 O   0  0  0  0  0  0  0  0  0  0  0  0
  -14.2564   -9.0610   33.8150 C   0  0  1  0  0  0  0  0  0  0  0  0
  -15.0187   -9.5467   34.8924 O   0  0  0  0  0  0  0  0  0  0  0  0
  -15.1167   -8.1432   32.9570 C   0  0  2  0  0  0  0  0  0  0  0  0
  -17.0349   -3.3216   29.8120 O   0  0  0  0  0  0  0  0  0  0  0  0
  -12.4289   -9.5809   28.6577 N   0  0  0  0  0  0  0  0  0  0  0  0
  -11.9332   -9.0702   29.8411 C   0  0  0  0  0  0  0  0  0  0  0  0
  -12.7867   -8.7402   30.8770 N   0  0  0  0  0  0  0  0  0  0  0  0
  -14.1234   -8.9098   30.7416 C   0  0  0  0  0  0  0  0  0  0  0  0
  -14.6396   -9.4303   29.5613 C   0  0  0  0  0  0  0  0  0  0  0  0
  -13.7875   -9.7618   28.5149 C   0  0  0  0  0  0  0  0  0  0  0  0
  -14.2830  -10.2514   27.3810 N   0  0  0  0  0  0  0  0  0  0  0  0
  -15.9817   -9.5021   29.6924 N   0  0  0  0  0  0  0  0  0  0  0  0
  -16.3209   -9.0586   30.9256 C   0  0  0  0  0  0  0  0  0  0  0  0
  -15.1820   -8.6876   31.5903 N   0  0  0  0  0  0  0  0  0  0  0  0
  2  1  1  1  0  0  0
  2  3  1  0  0  0  0
  2  5  1  0  0  0  0
  3  4  1  0  0  0  0
  3 17  1  0  0  0  0
  5  6  1  0  0  0  0
  7  6  1  6  0  0  0
  7  8  1  0  0  0  0
  7  9  1  0  0  0  0
 10  9  1  6  0  0  0
 10 11  1  0  0  0  0
 10 12  1  0  0  0  0
 11 16  1  0  0  0  0
 12 13  1  1  0  0  0
 12 14  1  0  0  0  0
 14 15  1  1  0  0  0
 14 16  1  0  0  0  0
 16 27  1  6  0  0  0
 18 19  2  0  0  0  0
 18 23  1  0  0  0  0
 19 20  1  0  0  0  0
 20 21  2  0  0  0  0
 21 22  1  0  0  0  0
 21 27  1  0  0  0  0
 22 23  2  0  0  0  0
 22 25  1  0  0  0  0
 23 24  1  0  0  0  0
 25 26  2  0  0  0  0
 26 27  1  0  0  0  0
M  END
>  <CHROM.1>
-32.33616289,50.64730645,-108.14711616,30.66483812,-48.65695441,81.83707456
53.08271286,-14.26382224,-6.64904943,31.86960932,1.83809660,-1.20670633,0.51379532

>  <Name>
ligand

>  <RI>
0

>  <Rbt.Current_Directory>
/home/itssahil/PROJECTS/Mol_Feturizer/New_Systems/rnas/3GX6

>  <Rbt.Executable>
rbdock ($Id: //depot/dev/client3/rdock/2013.1/src/exe/rbdock.cxx#4 $)

>  <Rbt.Library>
libRbt.so (2013.1, Build901 2013/11/27)

>  <Rbt.Parameter_File>
/export/apps/rDock/src/rDock_2013.1_src/data/scripts/dock_solv.prm

>  <Rbt.Receptor>
prm/pocket_docking_2.prm

>  <SCORE>
-14.2394

>  <SCORE.INTER>
-13.8821

>  <SCORE.INTER.CONST>
1

>  <SCORE.INTER.POLAR>
0

>  <SCORE.INTER.ROT>
7

>  <SCORE.INTER.SOLV>
17.5878

>  <SCORE.INTER.VDW>
-23.384

>  <SCORE.INTER.norm>
-0.514151

>  <SCORE.INTRA>
-1.79226

>  <SCORE.INTRA.DIHEDRAL>
-2.64018

>  <SCORE.INTRA.DIHEDRAL.0>
15.0182

>  <SCORE.INTRA.POLAR>
0

>  <SCORE.INTRA.POLAR.0>
0

>  <SCORE.INTRA.REPUL>
0

>  <SCORE.INTRA.REPUL.0>
0

>  <SCORE.INTRA.SOLV>
1.25471

>  <SCORE.INTRA.SOLV.lig_0>
-47.9129

>  <SCORE.INTRA.VDW>
-1.09953

>  <SCORE.INTRA.VDW.0>
2.00851

>  <SCORE.INTRA.norm>
-0.0663802

>  <SCORE.RESTR>
1.43489

>  <SCORE.RESTR.CAVITY>
1.43489

>  <SCORE.RESTR.norm>
0.0531441

>  <SCORE.SYSTEM>
0

>  <SCORE.SYSTEM.CONST>
0

>  <SCORE.SYSTEM.DIHEDRAL>
0

>  <SCORE.SYSTEM.SOLV>
0

>  <SCORE.SYSTEM.norm>
0

>  <SCORE.heavy>
27

>  <SCORE.norm>
-0.527387

>  <RMSD>
5.502

$$$$
ligand
 OpenBabel11021811483D
libRbt.so/2013.1/901 2013/11/27
 27 29  0  0  0  0  0  0  0  0999 V2000
  -15.5161   -0.3981   30.8073 N   0  0  0  0  0  0  0  0  0  0  0  0
  -15.7482   -1.7806   31.2167 C   0  0  2  0  0  0  0  0  0  0  0  0
  -17.1316   -1.9668   31.8343 C   0  0  0  0  0  0  0  0  0  0  0  0
  -17.5410   -3.0850   32.1542 O   0  0  0  0  0  0  0  0  0  0  0  0
  -14.6493   -2.2611   32.1599 C   0  0  0  0  0  0  0  0  0  0  0  0
  -14.6538   -3.7670   32.3726 C   0  0  0  0  0  0  0  0  0  0  0  0
  -13.4744   -4.3329   33.6236 S   0  0  2  0  0  0  0  0  0  0  0  0
  -11.9608   -3.5358   33.0320 C   0  0  0  0  0  0  0  0  0  0  0  0
  -13.2042   -6.0458   33.0928 C   0  0  0  0  0  0  0  0  0  0  0  0
  -14.5487   -6.7184   32.8555 C   0  0  1  0  0  0  0  0  0  0  0  0
  -14.9565   -6.4398   31.5372 O   0  0  0  0  0  0  0  0  0  0  0  0
  -14.5514   -8.2330   32.9431 C   0  0  1  0  0  0  0  0  0  0  0  0
  -14.9572   -8.6630   34.2234 O   0  0  0  0  0  0  0  0  0  0  0  0
  -15.5838   -8.6335   31.9088 C   0  0  1  0  0  0  0  0  0  0  0  0
  -16.7506   -9.0414   32.5796 O   0  0  0  0  0  0  0  0  0  0  0  0
  -15.8824   -7.3918   31.0795 C   0  0  2  0  0  0  0  0  0  0  0  0
  -17.8698   -0.9993   32.0205 O   0  0  0  0  0  0  0  0  0  0  0  0
  -14.1351   -5.5378   26.4660 N   0  0  0  0  0  0  0  0  0  0  0  0
  -14.2441   -4.8663   27.6677 C   0  0  0  0  0  0  0  0  0  0  0  0
  -14.7296   -5.5088   28.7910 N   0  0  0  0  0  0  0  0  0  0  0  0
  -15.1097   -6.8069   28.7251 C   0  0  0  0  0  0  0  0  0  0  0  0
  -14.9991   -7.5012   27.5267 C   0  0  0  0  0  0  0  0  0  0  0  0
  -14.5143   -6.8606   26.3929 C   0  0  0  0  0  0  0  0  0  0  0  0
  -14.4174   -7.5231   25.2427 N   0  0  0  0  0  0  0  0  0  0  0  0
  -15.4331   -8.7625   27.7370 N   0  0  0  0  0  0  0  0  0  0  0  0
  -15.7962   -8.8848   29.0355 C   0  0  0  0  0  0  0  0  0  0  0  0
  -15.6021   -7.6829   29.6635 N   0  0  0  0  0  0  0  0  0  0  0  0
  2  1  1  1  0  0  0
  2  3  1  0  0  0  0
  2  5  1  0  0  0  0
  3  4  1  0  0  0  0
  3 17  1  0  0  0  0
  5  6  1  0  0  0  0
  7  6  1  6  0  0  0
  7  8  1  0  0  0  0
  7  9  1  0  0  0  0
 10  9  1  6  0  0  0
 10 11  1  0  0  0  0
 10 12  1  0  0  0  0
 11 16  1  0  0  0  0
 12 13  1  1  0  0  0
 12 14  1  0  0  0  0
 14 15  1  1  0  0  0
 14 16  1  0  0  0  0
 16 27  1  6  0  0  0
 18 19  2  0  0  0  0
 18 23  1  0  0  0  0
 19 20  1  0  0  0  0
 20 21  2  0  0  0  0
 21 22  1  0  0  0  0
 21 27  1  0  0  0  0
 22 23  2  0  0  0  0
 22 25  1  0  0  0  0
 23 24  1  0  0  0  0
 25 26  2  0  0  0  0
 26 27  1  0  0  0  0
M  END
>  <CHROM.1>
174.91825605,-166.96876240,-173.75438070,-51.69743639,-48.95619874,86.14416168
-32.72258920,-15.05115735,-5.58082534,30.85842277,1.97390774,-1.47378637
1.09973173

>  <Name>
ligand

>  <RI>
0

>  <Rbt.Current_Directory>
/home/itssahil/PROJECTS/Mol_Feturizer/New_Systems/rnas/3GX6

>  <Rbt.Executable>
rbdock ($Id: //depot/dev/client3/rdock/2013.1/src/exe/rbdock.cxx#4 $)

>  <Rbt.Library>
libRbt.so (2013.1, Build901 2013/11/27)

>  <Rbt.Parameter_File>
/export/apps/rDock/src/rDock_2013.1_src/data/scripts/dock_solv.prm

>  <Rbt.Receptor>
prm/pocket_docking_3.prm

>  <SCORE>
-17.7017

>  <SCORE.INTER>
-10.7586

>  <SCORE.INTER.CONST>
1

>  <SCORE.INTER.POLAR>
0

>  <SCORE.INTER.ROT>
7

>  <SCORE.INTER.SOLV>
16.3974

>  <SCORE.INTER.VDW>
-20.9049

>  <SCORE.INTER.norm>
-0.398466

>  <SCORE.INTRA>
-6.94314

>  <SCORE.INTRA.DIHEDRAL>
-7.18356

>  <SCORE.INTRA.DIHEDRAL.0>
15.0182

>  <SCORE.INTRA.POLAR>
0

>  <SCORE.INTRA.POLAR.0>
0

>  <SCORE.INTRA.REPUL>
0

>  <SCORE.INTRA.REPUL.0>
0

>  <SCORE.INTRA.SOLV>
-1.68986

>  <SCORE.INTRA.SOLV.lig_0>
-47.9129

>  <SCORE.INTRA.VDW>
-2.50642

>  <SCORE.INTRA.VDW.0>
2.00851

>  <SCORE.INTRA.norm>
-0.257153

>  <SCORE.RESTR>
0

>  <SCORE.RESTR.CAVITY>
0

>  <SCORE.RESTR.norm>
0

>  <SCORE.SYSTEM>
0

>  <SCORE.SYSTEM.CONST>
0

>  <SCORE.SYSTEM.DIHEDRAL>
0

>  <SCORE.SYSTEM.SOLV>
0

>  <SCORE.SYSTEM.norm>
0

>  <SCORE.heavy>
27

>  <SCORE.norm>
-0.655619

>  <RMSD>
5.514

$$$$
ligand
 OpenBabel11021811483D
libRbt.so/2013.1/901 2013/11/27
 27 29  0  0  0  0  0  0  0  0999 V2000
  -13.0751   -3.6241   32.2743 N   0  0  0  0  0  0  0  0  0  0  0  0
  -14.4552   -3.6760   31.7994 C   0  0  2  0  0  0  0  0  0  0  0  0
  -14.9266   -2.3237   31.2712 C   0  0  0  0  0  0  0  0  0  0  0  0
  -15.9496   -2.2276   30.5895 O   0  0  0  0  0  0  0  0  0  0  0  0
  -15.3860   -4.2028   32.8875 C   0  0  0  0  0  0  0  0  0  0  0  0
  -16.7783   -4.5412   32.3774 C   0  0  0  0  0  0  0  0  0  0  0  0
  -16.8702   -6.1173   31.4921 S   0  0  2  0  0  0  0  0  0  0  0  0
  -18.5058   -5.9708   30.7304 C   0  0  0  0  0  0  0  0  0  0  0  0
  -17.2156   -7.2599   32.8573 C   0  0  0  0  0  0  0  0  0  0  0  0
  -15.9620   -8.0635   33.1718 C   0  0  1  0  0  0  0  0  0  0  0  0
  -15.6309   -8.8293   32.0380 O   0  0  0  0  0  0  0  0  0  0  0  0
  -14.7140   -7.2504   33.4601 C   0  0  1  0  0  0  0  0  0  0  0  0
  -14.5313   -7.0825   34.8483 O   0  0  0  0  0  0  0  0  0  0  0  0
  -13.6054   -8.1119   32.8902 C   0  0  1  0  0  0  0  0  0  0  0  0
  -12.9156   -8.7131   33.9582 O   0  0  0  0  0  0  0  0  0  0  0  0
  -14.2731   -9.1891   32.0462 C   0  0  2  0  0  0  0  0  0  0  0  0
  -14.2878   -1.2994   31.5132 O   0  0  0  0  0  0  0  0  0  0  0  0
  -15.2593   -9.9108   26.9196 N   0  0  0  0  0  0  0  0  0  0  0  0
  -16.1072  -10.1240   27.9885 C   0  0  0  0  0  0  0  0  0  0  0  0
  -15.6827   -9.8841   29.2818 N   0  0  0  0  0  0  0  0  0  0  0  0
  -14.4252   -9.4402   29.5171 C   0  0  0  0  0  0  0  0  0  0  0  0
  -13.5608   -9.2117   28.4536 C   0  0  0  0  0  0  0  0  0  0  0  0
  -13.9801   -9.4535   27.1510 C   0  0  0  0  0  0  0  0  0  0  0  0
  -13.1488   -9.2437   26.1331 N   0  0  0  0  0  0  0  0  0  0  0  0
  -12.3888   -8.7711   28.9595 N   0  0  0  0  0  0  0  0  0  0  0  0
  -12.4982   -8.6998   30.3070 C   0  0  0  0  0  0  0  0  0  0  0  0
  -13.7536   -9.1102   30.6706 N   0  0  0  0  0  0  0  0  0  0  0  0
  2  1  1  1  0  0  0
  2  3  1  0  0  0  0
  2  5  1  0  0  0  0
  3  4  1  0  0  0  0
  3 17  1  0  0  0  0
  5  6  1  0  0  0  0
  7  6  1  1  0  0  0
  7  8  1  0  0  0  0
  7  9  1  0  0  0  0
 10  9  1  6  0  0  0
 10 11  1  0  0  0  0
 10 12  1  0  0  0  0
 11 16  1  0  0  0  0
 12 13  1  1  0  0  0
 12 14  1  0  0  0  0
 14 15  1  1  0  0  0
 14 16  1  0  0  0  0
 16 27  1  6  0  0  0
 18 19  2  0  0  0  0
 18 23  1  0  0  0  0
 19 20  1  0  0  0  0
 20 21  2  0  0  0  0
 21 22  1  0  0  0  0
 21 27  1  0  0  0  0
 22 23  2  0  0  0  0
 22 25  1  0  0  0  0
 23 24  1  0  0  0  0
 25 26  2  0  0  0  0
 26 27  1  0  0  0  0
M  END
>  <CHROM.1>
165.26124699,-168.54410569,77.81198629,-167.15652975,-105.90572641,-62.56579795
-36.69268293,-14.93194613,-7.00043462,31.04884622,2.76246696,-1.39080172
1.74191559

>  <Name>
ligand

>  <RI>
0

>  <Rbt.Current_Directory>
/home/itssahil/PROJECTS/Mol_Feturizer/New_Systems/rnas/3GX6

>  <Rbt.Executable>
rbdock ($Id: //depot/dev/client3/rdock/2013.1/src/exe/rbdock.cxx#4 $)

>  <Rbt.Library>
libRbt.so (2013.1, Build901 2013/11/27)

>  <Rbt.Parameter_File>
/export/apps/rDock/src/rDock_2013.1_src/data/scripts/dock_solv.prm

>  <Rbt.Receptor>
prm/pocket_docking_4.prm

>  <SCORE>
-18.8345

>  <SCORE.INTER>
-10.305

>  <SCORE.INTER.CONST>
1

>  <SCORE.INTER.POLAR>
0

>  <SCORE.INTER.ROT>
7

>  <SCORE.INTER.SOLV>
7.05656

>  <SCORE.INTER.VDW>
-17.4889

>  <SCORE.INTER.norm>
-0.381667

>  <SCORE.INTRA>
-8.52946

>  <SCORE.INTRA.DIHEDRAL>
-6.04522

>  <SCORE.INTRA.DIHEDRAL.0>
15.0182

>  <SCORE.INTRA.POLAR>
0

>  <SCORE.INTRA.POLAR.0>
0

>  <SCORE.INTRA.REPUL>
0

>  <SCORE.INTRA.REPUL.0>
0

>  <SCORE.INTRA.SOLV>
-0.915551

>  <SCORE.INTRA.SOLV.lig_0>
-47.9129

>  <SCORE.INTRA.VDW>
-5.04908

>  <SCORE.INTRA.VDW.0>
2.00851

>  <SCORE.INTRA.norm>
-0.315906

>  <SCORE.RESTR>
0

>  <SCORE.RESTR.CAVITY>
0

>  <SCORE.RESTR.norm>
0

>  <SCORE.SYSTEM>
0

>  <SCORE.SYSTEM.CONST>
0

>  <SCORE.SYSTEM.DIHEDRAL>
0

>  <SCORE.SYSTEM.SOLV>
0

>  <SCORE.SYSTEM.norm>
0

>  <SCORE.heavy>
27

>  <SCORE.norm>
-0.697573

>  <RMSD>
5.522

$$$$
ligand
 OpenBabel11021811483D
libRbt.so/2013.1/901 2013/11/27
 27 29  0  0  0  0  0  0  0  0999 V2000
  -15.1615   -5.4055   28.5146 N   0  0  0  0  0  0  0  0  0  0  0  0
  -16.3317   -5.2647   29.3770 C   0  0  2  0  0  0  0  0  0  0  0  0
  -17.1334   -4.0081   29.0482 C   0  0  0  0  0  0  0  0  0  0  0  0
  -16.8548   -2.9223   29.5618 O   0  0  0  0  0  0  0  0  0  0  0  0
  -15.9308   -5.2989   30.8488 C   0  0  0  0  0  0  0  0  0  0  0  0
  -14.8527   -4.2864   31.2031 C   0  0  0  0  0  0  0  0  0  0  0  0
  -14.4794   -4.2038   32.9723 S   0  0  2  0  0  0  0  0  0  0  0  0
  -13.4808   -2.6950   33.0268 C   0  0  0  0  0  0  0  0  0  0  0  0
  -13.2003   -5.4812   33.1149 C   0  0  0  0  0  0  0  0  0  0  0  0
  -13.8585   -6.8256   33.3900 C   0  0  1  0  0  0  0  0  0  0  0  0
  -14.4919   -7.2583   32.2097 O   0  0  0  0  0  0  0  0  0  0  0  0
  -12.9160   -7.9577   33.7536 C   0  0  1  0  0  0  0  0  0  0  0  0
  -12.8271   -8.1097   35.1527 O   0  0  0  0  0  0  0  0  0  0  0  0
  -13.5860   -9.1706   33.1404 C   0  0  1  0  0  0  0  0  0  0  0  0
  -14.1701   -9.9258   34.1730 O   0  0  0  0  0  0  0  0  0  0  0  0
  -14.6755   -8.6509   32.2123 C   0  0  2  0  0  0  0  0  0  0  0  0
  -18.0811   -4.0570   28.2639 O   0  0  0  0  0  0  0  0  0  0  0  0
  -11.2362   -9.1667   28.2525 N   0  0  0  0  0  0  0  0  0  0  0  0
  -11.0408   -8.5586   29.4769 C   0  0  0  0  0  0  0  0  0  0  0  0
  -12.0606   -8.5093   30.4084 N   0  0  0  0  0  0  0  0  0  0  0  0
  -13.2684   -9.0542   30.1291 C   0  0  0  0  0  0  0  0  0  0  0  0
  -13.4808   -9.6778   28.9057 C   0  0  0  0  0  0  0  0  0  0  0  0
  -12.4608   -9.7286   27.9635 C   0  0  0  0  0  0  0  0  0  0  0  0
  -12.6674  -10.3175   26.7881 N   0  0  0  0  0  0  0  0  0  0  0  0
  -14.7510  -10.1360   28.8893 N   0  0  0  0  0  0  0  0  0  0  0  0
  -15.3359   -9.8338   30.0723 C   0  0  0  0  0  0  0  0  0  0  0  0
  -14.4319   -9.1636   30.8535 N   0  0  0  0  0  0  0  0  0  0  0  0
  2  1  1  6  0  0  0
  2  3  1  0  0  0  0
  2  5  1  0  0  0  0
  3  4  1  0  0  0  0
  3 17  1  0  0  0  0
  5  6  1  0  0  0  0
  7  6  1  6  0  0  0
  7  8  1  0  0  0  0
  7  9  1  0  0  0  0
 10  9  1  6  0  0  0
 10 11  1  0  0  0  0
 10 12  1  0  0  0  0
 11 16  1  0  0  0  0
 12 13  1  1  0  0  0
 12 14  1  0  0  0  0
 14 15  1  1  0  0  0
 14 16  1  0  0  0  0
 16 27  1  6  0  0  0
 18 19  2  0  0  0  0
 18 23  1  0  0  0  0
 19 20  1  0  0  0  0
 20 21  2  0  0  0  0
 21 22  1  0  0  0  0
 21 27  1  0  0  0  0
 22 23  2  0  0  0  0
 22 25  1  0  0  0  0
 23 24  1  0  0  0  0
 25 26  2  0  0  0  0
 26 27  1  0  0  0  0
M  END
>  <CHROM.1>
-86.90900851,53.71035364,174.43610333,-167.96166159,-89.01950322,72.38367986
59.65996542,-14.22777405,-7.03179523,30.96463660,2.58097402,-1.03436144,1.10595042

>  <Name>
ligand

>  <RI>
0

>  <Rbt.Current_Directory>
/home/itssahil/PROJECTS/Mol_Feturizer/New_Systems/rnas/3GX6

>  <Rbt.Executable>
rbdock ($Id: //depot/dev/client3/rdock/2013.1/src/exe/rbdock.cxx#4 $)

>  <Rbt.Library>
libRbt.so (2013.1, Build901 2013/11/27)

>  <Rbt.Parameter_File>
/export/apps/rDock/src/rDock_2013.1_src/data/scripts/dock_solv.prm

>  <Rbt.Receptor>
prm/pocket_docking_3.prm

>  <SCORE>
-22.952

>  <SCORE.INTER>
-13.4814

>  <SCORE.INTER.CONST>
1

>  <SCORE.INTER.POLAR>
0

>  <SCORE.INTER.ROT>
7

>  <SCORE.INTER.SOLV>
10.3858

>  <SCORE.INTER.VDW>
-20.7162

>  <SCORE.INTER.norm>
-0.49931

>  <SCORE.INTRA>
-9.47059

>  <SCORE.INTRA.DIHEDRAL>
-8.74203

>  <SCORE.INTRA.DIHEDRAL.0>
15.0182

>  <SCORE.INTRA.POLAR>
0

>  <SCORE.INTRA.POLAR.0>
0

>  <SCORE.INTRA.REPUL>
0

>  <SCORE.INTRA.REPUL.0>
0

>  <SCORE.INTRA.SOLV>
-0.787789

>  <SCORE.INTRA.SOLV.lig_0>
-47.9129

>  <SCORE.INTRA.VDW>
-4.70568

>  <SCORE.INTRA.VDW.0>
2.00851

>  <SCORE.INTRA.norm>
-0.350763

>  <SCORE.RESTR>
0

>  <SCORE.RESTR.CAVITY>
0

>  <SCORE.RESTR.norm>
0

>  <SCORE.SYSTEM>
0

>  <SCORE.SYSTEM.CONST>
0

>  <SCORE.SYSTEM.DIHEDRAL>
0

>  <SCORE.SYSTEM.SOLV>
0

>  <SCORE.SYSTEM.norm>
0

>  <SCORE.heavy>
27

>  <SCORE.norm>
-0.850073

>  <RMSD>
5.524

$$$$
ligand
 OpenBabel11021811483D
libRbt.so/2013.1/901 2013/11/27
 27 29  0  0  0  0  0  0  0  0999 V2000
  -12.8532   -8.4616   27.4339 N   0  0  0  0  0  0  0  0  0  0  0  0
  -11.8790   -7.7472   28.2546 C   0  0  2  0  0  0  0  0  0  0  0  0
  -10.7587   -7.1431   27.4120 C   0  0  0  0  0  0  0  0  0  0  0  0
  -10.6726   -7.3777   26.2046 O   0  0  0  0  0  0  0  0  0  0  0  0
  -11.3240   -8.6509   29.3515 C   0  0  0  0  0  0  0  0  0  0  0  0
  -12.3750   -9.0906   30.3591 C   0  0  0  0  0  0  0  0  0  0  0  0
  -13.1576   -7.7201   31.2455 S   0  0  2  0  0  0  0  0  0  0  0  0
  -13.8033   -8.5925   32.6941 C   0  0  0  0  0  0  0  0  0  0  0  0
  -14.6668   -7.4931   30.2660 C   0  0  0  0  0  0  0  0  0  0  0  0
  -15.3608   -6.2096   30.6988 C   0  0  1  0  0  0  0  0  0  0  0  0
  -16.4330   -5.9678   29.8194 O   0  0  0  0  0  0  0  0  0  0  0  0
  -15.9965   -6.2374   32.0762 C   0  0  1  0  0  0  0  0  0  0  0  0
  -15.1317   -5.6819   33.0416 O   0  0  0  0  0  0  0  0  0  0  0  0
  -17.2191   -5.3586   31.9062 C   0  0  1  0  0  0  0  0  0  0  0  0
  -16.9728   -4.1267   32.5383 O   0  0  0  0  0  0  0  0  0  0  0  0
  -17.3977   -5.1354   30.4106 C   0  0  2  0  0  0  0  0  0  0  0  0
   -9.9131   -6.4109   27.9264 O   0  0  0  0  0  0  0  0  0  0  0  0
  -21.4335   -8.3518   31.4794 N   0  0  0  0  0  0  0  0  0  0  0  0
  -20.2501   -8.2090   32.1767 C   0  0  0  0  0  0  0  0  0  0  0  0
  -19.2879   -7.3119   31.7529 N   0  0  0  0  0  0  0  0  0  0  0  0
  -19.4926   -6.5636   30.6430 C   0  0  0  0  0  0  0  0  0  0  0  0
  -20.6807   -6.6875   29.9334 C   0  0  0  0  0  0  0  0  0  0  0  0
  -21.6513   -7.5894   30.3523 C   0  0  0  0  0  0  0  0  0  0  0  0
  -22.7852   -7.7148   29.6671 N   0  0  0  0  0  0  0  0  0  0  0  0
  -20.6305   -5.8331   28.8889 N   0  0  0  0  0  0  0  0  0  0  0  0
  -19.4540   -5.1647   28.9322 C   0  0  0  0  0  0  0  0  0  0  0  0
  -18.7359   -5.6040   30.0129 N   0  0  0  0  0  0  0  0  0  0  0  0
  2  1  1  6  0  0  0
  2  3  1  0  0  0  0
  2  5  1  0  0  0  0
  3  4  1  0  0  0  0
  3 17  1  0  0  0  0
  5  6  1  0  0  0  0
  7  6  1  6  0  0  0
  7  8  1  0  0  0  0
  7  9  1  0  0  0  0
 10  9  1  6  0  0  0
 10 11  1  0  0  0  0
 10 12  1  0  0  0  0
 11 16  1  0  0  0  0
 12 13  1  1  0  0  0
 12 14  1  0  0  0  0
 14 15  1  1  0  0  0
 14 16  1  0  0  0  0
 16 27  1  6  0  0  0
 18 19  2  0  0  0  0
 18 23  1  0  0  0  0
 19 20  1  0  0  0  0
 20 21  2  0  0  0  0
 21 22  1  0  0  0  0
 21 27  1  0  0  0  0
 22 23  2  0  0  0  0
 22 25  1  0  0  0  0
 23 24  1  0  0  0  0
 25 26  2  0  0  0  0
 26 27  1  0  0  0  0
M  END
>  <CHROM.1>
-6.49205637,-64.33784003,-60.47582843,-159.54192872,-169.90136159,172.83425657
87.32089838,-16.02731197,-6.93212895,30.25317974,0.21653110,0.07830661,-1.66373397

>  <Name>
ligand

>  <RI>
0

>  <Rbt.Current_Directory>
/home/itssahil/PROJECTS/Mol_Feturizer/New_Systems/rnas/3GX6

>  <Rbt.Executable>
rbdock ($Id: //depot/dev/client3/rdock/2013.1/src/exe/rbdock.cxx#4 $)

>  <Rbt.Library>
libRbt.so (2013.1, Build901 2013/11/27)

>  <Rbt.Parameter_File>
/export/apps/rDock/src/rDock_2013.1_src/data/scripts/dock_solv.prm

>  <Rbt.Receptor>
prm/pocket_docking_8.prm

>  <SCORE>
-19.1352

>  <SCORE.INTER>
-10.7286

>  <SCORE.INTER.CONST>
1

>  <SCORE.INTER.POLAR>
0

>  <SCORE.INTER.ROT>
7

>  <SCORE.INTER.SOLV>
6.69496

>  <SCORE.INTER.VDW>
-17.6507

>  <SCORE.INTER.norm>
-0.397355

>  <SCORE.INTRA>
-8.40664

>  <SCORE.INTRA.DIHEDRAL>
-8.6222

>  <SCORE.INTRA.DIHEDRAL.0>
15.0182

>  <SCORE.INTRA.POLAR>
0

>  <SCORE.INTRA.POLAR.0>
0

>  <SCORE.INTRA.REPUL>
0

>  <SCORE.INTRA.REPUL.0>
0

>  <SCORE.INTRA.SOLV>
0.55992

>  <SCORE.INTRA.SOLV.lig_0>
-47.9129

>  <SCORE.INTRA.VDW>
-4.3755

>  <SCORE.INTRA.VDW.0>
2.00851

>  <SCORE.INTRA.norm>
-0.311357

>  <SCORE.RESTR>
0

>  <SCORE.RESTR.CAVITY>
0

>  <SCORE.RESTR.norm>
0

>  <SCORE.SYSTEM>
0

>  <SCORE.SYSTEM.CONST>
0

>  <SCORE.SYSTEM.DIHEDRAL>
0

>  <SCORE.SYSTEM.SOLV>
0

>  <SCORE.SYSTEM.norm>
0

>  <SCORE.heavy>
27

>  <SCORE.norm>
-0.708712

>  <RMSD>
5.530

$$$$
ligand
 OpenBabel11021811483D
libRbt.so/2013.1/901 2013/11/27
 27 29  0  0  0  0  0  0  0  0999 V2000
  -17.3574   -6.1153   28.5370 N   0  0  0  0  0  0  0  0  0  0  0  0
  -16.8292   -4.7611   28.6778 C   0  0  2  0  0  0  0  0  0  0  0  0
  -15.4805   -4.6008   27.9811 C   0  0  0  0  0  0  0  0  0  0  0  0
  -15.3728   -3.9385   26.9466 O   0  0  0  0  0  0  0  0  0  0  0  0
  -16.7470   -4.3587   30.1472 C   0  0  0  0  0  0  0  0  0  0  0  0
  -16.2674   -2.9304   30.3548 C   0  0  0  0  0  0  0  0  0  0  0  0
  -16.2378   -2.4131   32.0891 S   0  0  2  0  0  0  0  0  0  0  0  0
  -16.7226   -0.6772   31.9220 C   0  0  0  0  0  0  0  0  0  0  0  0
  -14.4534   -2.2576   32.3722 C   0  0  0  0  0  0  0  0  0  0  0  0
  -13.8682   -3.6308   32.6690 C   0  0  1  0  0  0  0  0  0  0  0  0
  -14.6703   -4.2526   33.6445 O   0  0  0  0  0  0  0  0  0  0  0  0
  -13.8565   -4.6064   31.5071 C   0  0  1  0  0  0  0  0  0  0  0  0
  -12.6054   -4.6003   30.8565 O   0  0  0  0  0  0  0  0  0  0  0  0
  -14.0854   -5.9439   32.1814 C   0  0  1  0  0  0  0  0  0  0  0  0
  -12.8678   -6.6473   32.1991 O   0  0  0  0  0  0  0  0  0  0  0  0
  -14.5225   -5.6490   33.6098 C   0  0  2  0  0  0  0  0  0  0  0  0
  -14.4713   -5.1369   28.4390 O   0  0  0  0  0  0  0  0  0  0  0  0
  -17.1527   -9.7662   35.5860 N   0  0  0  0  0  0  0  0  0  0  0  0
  -15.7881   -9.5551   35.5701 C   0  0  0  0  0  0  0  0  0  0  0  0
  -15.2600   -8.4104   35.0036 N   0  0  0  0  0  0  0  0  0  0  0  0
  -16.0766   -7.4817   34.4517 C   0  0  0  0  0  0  0  0  0  0  0  0
  -17.4527   -7.6729   34.4660 C   0  0  0  0  0  0  0  0  0  0  0  0
  -17.9902   -8.8227   35.0316 C   0  0  0  0  0  0  0  0  0  0  0  0
  -19.3078   -9.0102   35.0367 N   0  0  0  0  0  0  0  0  0  0  0  0
  -18.0253   -6.6072   33.8659 N   0  0  0  0  0  0  0  0  0  0  0  0
  -17.0507   -5.7456   33.4912 C   0  0  0  0  0  0  0  0  0  0  0  0
  -15.8363   -6.2707   33.8466 N   0  0  0  0  0  0  0  0  0  0  0  0
  2  1  1  1  0  0  0
  2  3  1  0  0  0  0
  2  5  1  0  0  0  0
  3  4  1  0  0  0  0
  3 17  1  0  0  0  0
  5  6  1  0  0  0  0
  7  6  1  6  0  0  0
  7  8  1  0  0  0  0
  7  9  1  0  0  0  0
 10  9  1  6  0  0  0
 10 11  1  0  0  0  0
 10 12  1  0  0  0  0
 11 16  1  0  0  0  0
 12 13  1  1  0  0  0
 12 14  1  0  0  0  0
 14 15  1  1  0  0  0
 14 16  1  0  0  0  0
 16 27  1  6  0  0  0
 18 19  2  0  0  0  0
 18 23  1  0  0  0  0
 19 20  1  0  0  0  0
 20 21  2  0  0  0  0
 21 22  1  0  0  0  0
 21 27  1  0  0  0  0
 22 23  2  0  0  0  0
 22 25  1  0  0  0  0
 23 24  1  0  0  0  0
 25 26  2  0  0  0  0
 26 27  1  0  0  0  0
M  END
>  <CHROM.1>
108.80311856,-177.16319808,177.31360879,-144.28555963,-82.07190711,-48.39534396
-149.52881357,-15.75692780,-5.40165062,32.15345314,1.09672639,-1.08141446
-1.24153230

>  <Name>
ligand

>  <RI>
0

>  <Rbt.Current_Directory>
/home/itssahil/PROJECTS/Mol_Feturizer/New_Systems/rnas/3GX6

>  <Rbt.Executable>
rbdock ($Id: //depot/dev/client3/rdock/2013.1/src/exe/rbdock.cxx#4 $)

>  <Rbt.Library>
libRbt.so (2013.1, Build901 2013/11/27)

>  <Rbt.Parameter_File>
/export/apps/rDock/src/rDock_2013.1_src/data/scripts/dock_solv.prm

>  <Rbt.Receptor>
prm/pocket_docking_6.prm

>  <SCORE>
-27.8141

>  <SCORE.INTER>
-17.7043

>  <SCORE.INTER.CONST>
1

>  <SCORE.INTER.POLAR>
0

>  <SCORE.INTER.ROT>
7

>  <SCORE.INTER.SOLV>
11.7935

>  <SCORE.INTER.VDW>
-24.0007

>  <SCORE.INTER.norm>
-0.655716

>  <SCORE.INTRA>
-10.1098

>  <SCORE.INTRA.DIHEDRAL>
-7.157

>  <SCORE.INTRA.DIHEDRAL.0>
15.0182

>  <SCORE.INTRA.POLAR>
0

>  <SCORE.INTRA.POLAR.0>
0

>  <SCORE.INTRA.REPUL>
0

>  <SCORE.INTRA.REPUL.0>
0

>  <SCORE.INTRA.SOLV>
-1.30403

>  <SCORE.INTRA.SOLV.lig_0>
-47.9129

>  <SCORE.INTRA.VDW>
-5.87924

>  <SCORE.INTRA.VDW.0>
2.00851

>  <SCORE.INTRA.norm>
-0.374435

>  <SCORE.RESTR>
0

>  <SCORE.RESTR.CAVITY>
0

>  <SCORE.RESTR.norm>
0

>  <SCORE.SYSTEM>
0

>  <SCORE.SYSTEM.CONST>
0

>  <SCORE.SYSTEM.DIHEDRAL>
0

>  <SCORE.SYSTEM.SOLV>
0

>  <SCORE.SYSTEM.norm>
0

>  <SCORE.heavy>
27

>  <SCORE.norm>
-1.03015

>  <RMSD>
5.547

$$$$
ligand
 OpenBabel11021811483D
libRbt.so/2013.1/901 2013/11/27
 27 29  0  0  0  0  0  0  0  0999 V2000
  -15.8906   -4.3861   30.1494 N   0  0  0  0  0  0  0  0  0  0  0  0
  -14.8290   -4.1624   29.1717 C   0  0  2  0  0  0  0  0  0  0  0  0
  -15.2027   -4.6996   27.7927 C   0  0  0  0  0  0  0  0  0  0  0  0
  -15.7583   -5.7928   27.6641 O   0  0  0  0  0  0  0  0  0  0  0  0
  -13.5080   -4.7508   29.6580 C   0  0  0  0  0  0  0  0  0  0  0  0
  -12.9290   -4.0200   30.8596 C   0  0  0  0  0  0  0  0  0  0  0  0
  -13.7552   -4.4111   32.4219 S   0  0  2  0  0  0  0  0  0  0  0  0
  -12.6953   -3.5180   33.5861 C   0  0  0  0  0  0  0  0  0  0  0  0
  -13.2080   -6.1202   32.6829 C   0  0  0  0  0  0  0  0  0  0  0  0
  -13.8393   -6.6630   33.9569 C   0  0  1  0  0  0  0  0  0  0  0  0
  -15.2361   -6.6864   33.7837 O   0  0  0  0  0  0  0  0  0  0  0  0
  -13.4757   -8.0919   34.3145 C   0  0  1  0  0  0  0  0  0  0  0  0
  -12.4148   -8.1247   35.2429 O   0  0  0  0  0  0  0  0  0  0  0  0
  -14.7441   -8.6172   34.9557 C   0  0  1  0  0  0  0  0  0  0  0  0
  -14.5414   -8.6937   36.3453 O   0  0  0  0  0  0  0  0  0  0  0  0
  -15.8415   -7.6046   34.6574 C   0  0  2  0  0  0  0  0  0  0  0  0
  -14.9503   -4.0499   26.7778 O   0  0  0  0  0  0  0  0  0  0  0  0
  -20.1097  -10.6712   35.0496 N   0  0  0  0  0  0  0  0  0  0  0  0
  -19.2860  -10.2239   36.0637 C   0  0  0  0  0  0  0  0  0  0  0  0
  -18.1969   -9.4207   35.7826 N   0  0  0  0  0  0  0  0  0  0  0  0
  -17.9212   -9.0654   34.5052 C   0  0  0  0  0  0  0  0  0  0  0  0
  -18.7439   -9.4988   33.4727 C   0  0  0  0  0  0  0  0  0  0  0  0
  -19.8389  -10.3088   33.7479 C   0  0  0  0  0  0  0  0  0  0  0  0
  -20.6212  -10.7316   32.7578 N   0  0  0  0  0  0  0  0  0  0  0  0
  -18.2544   -9.0015   32.3166 N   0  0  0  0  0  0  0  0  0  0  0  0
  -17.1599   -8.2551   32.5950 C   0  0  0  0  0  0  0  0  0  0  0  0
  -16.9384   -8.2828   33.9466 N   0  0  0  0  0  0  0  0  0  0  0  0
  2  1  1  1  0  0  0
  2  3  1  0  0  0  0
  2  5  1  0  0  0  0
  3  4  1  0  0  0  0
  3 17  1  0  0  0  0
  5  6  1  0  0  0  0
  7  6  1  6  0  0  0
  7  8  1  0  0  0  0
  7  9  1  0  0  0  0
 10  9  1  6  0  0  0
 10 11  1  0  0  0  0
 10 12  1  0  0  0  0
 11 16  1  0  0  0  0
 12 13  1  1  0  0  0
 12 14  1  0  0  0  0
 14 15  1  1  0  0  0
 14 16  1  0  0  0  0
 16 27  1  6  0  0  0
 18 19  2  0  0  0  0
 18 23  1  0  0  0  0
 19 20  1  0  0  0  0
 20 21  2  0  0  0  0
 21 22  1  0  0  0  0
 21 27  1  0  0  0  0
 22 23  2  0  0  0  0
 22 25  1  0  0  0  0
 23 24  1  0  0  0  0
 25 26  2  0  0  0  0
 26 27  1  0  0  0  0
M  END
>  <CHROM.1>
-42.46002803,-68.09639137,76.43898882,174.19798179,-178.37933070,63.06158999
-167.40973464,-15.73137266,-7.05648322,32.70003271,0.93829157,-0.53708437
-1.09558610

>  <Name>
ligand

>  <RI>
0

>  <Rbt.Current_Directory>
/home/itssahil/PROJECTS/Mol_Feturizer/New_Systems/rnas/3GX6

>  <Rbt.Executable>
rbdock ($Id: //depot/dev/client3/rdock/2013.1/src/exe/rbdock.cxx#4 $)

>  <Rbt.Library>
libRbt.so (2013.1, Build901 2013/11/27)

>  <Rbt.Parameter_File>
/export/apps/rDock/src/rDock_2013.1_src/data/scripts/dock_solv.prm

>  <Rbt.Receptor>
prm/pocket_docking_7.prm

>  <SCORE>
-22.8636

>  <SCORE.INTER>
-13.2106

>  <SCORE.INTER.CONST>
1

>  <SCORE.INTER.POLAR>
0

>  <SCORE.INTER.ROT>
7

>  <SCORE.INTER.SOLV>
10.2585

>  <SCORE.INTER.VDW>
-20.4932

>  <SCORE.INTER.norm>
-0.489282

>  <SCORE.INTRA>
-9.65299

>  <SCORE.INTRA.DIHEDRAL>
-10.2674

>  <SCORE.INTRA.DIHEDRAL.0>
15.0182

>  <SCORE.INTRA.POLAR>
0

>  <SCORE.INTRA.POLAR.0>
0

>  <SCORE.INTRA.REPUL>
0.00803259

>  <SCORE.INTRA.REPUL.0>
0

>  <SCORE.INTRA.SOLV>
0.357815

>  <SCORE.INTRA.SOLV.lig_0>
-47.9129

>  <SCORE.INTRA.VDW>
-4.73834

>  <SCORE.INTRA.VDW.0>
2.00851

>  <SCORE.INTRA.norm>
-0.357518

>  <SCORE.RESTR>
0

>  <SCORE.RESTR.CAVITY>
0

>  <SCORE.RESTR.norm>
0

>  <SCORE.SYSTEM>
0

>  <SCORE.SYSTEM.CONST>
0

>  <SCORE.SYSTEM.DIHEDRAL>
0

>  <SCORE.SYSTEM.SOLV>
0

>  <SCORE.SYSTEM.norm>
0

>  <SCORE.heavy>
27

>  <SCORE.norm>
-0.8468

>  <RMSD>
5.558

$$$$
ligand
 OpenBabel11021811483D
libRbt.so/2013.1/901 2013/11/27
 27 29  0  0  0  0  0  0  0  0999 V2000
  -14.7016   -4.4908   32.5141 N   0  0  0  0  0  0  0  0  0  0  0  0
  -13.9234   -3.4288   31.8822 C   0  0  2  0  0  0  0  0  0  0  0  0
  -14.7306   -2.1415   31.7359 C   0  0  0  0  0  0  0  0  0  0  0  0
  -14.2087   -1.1069   31.3145 O   0  0  0  0  0  0  0  0  0  0  0  0
  -13.3633   -3.8891   30.5397 C   0  0  0  0  0  0  0  0  0  0  0  0
  -14.4411   -4.2244   29.5203 C   0  0  0  0  0  0  0  0  0  0  0  0
  -13.7919   -4.7257   27.9068 S   0  0  2  0  0  0  0  0  0  0  0  0
  -15.1753   -4.2585   26.8370 C   0  0  0  0  0  0  0  0  0  0  0  0
  -14.0027   -6.5247   27.9942 C   0  0  0  0  0  0  0  0  0  0  0  0
  -12.9228   -7.1162   28.8886 C   0  0  1  0  0  0  0  0  0  0  0  0
  -13.2920   -6.9013   30.2299 O   0  0  0  0  0  0  0  0  0  0  0  0
  -12.7296   -8.6173   28.7825 C   0  0  1  0  0  0  0  0  0  0  0  0
  -11.6761   -8.9286   27.8981 O   0  0  0  0  0  0  0  0  0  0  0  0
  -12.3563   -9.0148   30.1962 C   0  0  1  0  0  0  0  0  0  0  0  0
  -10.9781   -9.2929   30.2309 O   0  0  0  0  0  0  0  0  0  0  0  0
  -12.6551   -7.8154   31.0854 C   0  0  2  0  0  0  0  0  0  0  0  0
  -15.9225   -2.1113   32.0426 O   0  0  0  0  0  0  0  0  0  0  0  0
  -13.5864   -8.2344   36.2557 N   0  0  0  0  0  0  0  0  0  0  0  0
  -12.4547   -7.7495   35.6305 C   0  0  0  0  0  0  0  0  0  0  0  0
  -12.3744   -7.7122   34.2512 N   0  0  0  0  0  0  0  0  0  0  0  0
  -13.4057   -8.1563   33.4943 C   0  0  0  0  0  0  0  0  0  0  0  0
  -14.5559   -8.6398   34.1057 C   0  0  0  0  0  0  0  0  0  0  0  0
  -14.6423   -8.6826   35.4919 C   0  0  0  0  0  0  0  0  0  0  0  0
  -15.7403   -9.1546   36.0774 N   0  0  0  0  0  0  0  0  0  0  0  0
  -15.4194   -9.0051   33.1339 N   0  0  0  0  0  0  0  0  0  0  0  0
  -14.8521   -8.7492   31.9316 C   0  0  0  0  0  0  0  0  0  0  0  0
  -13.6040   -8.2223   32.1353 N   0  0  0  0  0  0  0  0  0  0  0  0
  2  1  1  6  0  0  0
  2  3  1  0  0  0  0
  2  5  1  0  0  0  0
  3  4  1  0  0  0  0
  3 17  1  0  0  0  0
  5  6  1  0  0  0  0
  7  6  1  1  0  0  0
  7  8  1  0  0  0  0
  7  9  1  0  0  0  0
 10  9  1  6  0  0  0
 10 11  1  0  0  0  0
 10 12  1  0  0  0  0
 11 16  1  0  0  0  0
 12 13  1  6  0  0  0
 12 14  1  0  0  0  0
 14 15  1  6  0  0  0
 14 16  1  0  0  0  0
 16 27  1  1  0  0  0
 18 19  2  0  0  0  0
 18 23  1  0  0  0  0
 19 20  1  0  0  0  0
 20 21  2  0  0  0  0
 21 22  1  0  0  0  0
 21 27  1  0  0  0  0
 22 23  2  0  0  0  0
 22 25  1  0  0  0  0
 23 24  1  0  0  0  0
 25 26  2  0  0  0  0
 26 27  1  0  0  0  0
M  END
>  <CHROM.1>
174.60056917,63.00665889,178.30397355,-153.86911669,-75.95677742,78.45069707
-125.77952290,-13.75086000,-6.47733709,31.29773388,1.66883585,1.20896323
-0.97085482

>  <Name>
ligand

>  <RI>
0

>  <Rbt.Current_Directory>
/home/itssahil/PROJECTS/Mol_Feturizer/New_Systems/rnas/3GX6

>  <Rbt.Executable>
rbdock ($Id: //depot/dev/client3/rdock/2013.1/src/exe/rbdock.cxx#4 $)

>  <Rbt.Library>
libRbt.so (2013.1, Build901 2013/11/27)

>  <Rbt.Parameter_File>
/export/apps/rDock/src/rDock_2013.1_src/data/scripts/dock_solv.prm

>  <Rbt.Receptor>
prm/pocket_docking_6.prm

>  <SCORE>
-23.1228

>  <SCORE.INTER>
-14.1578

>  <SCORE.INTER.CONST>
1

>  <SCORE.INTER.POLAR>
0

>  <SCORE.INTER.ROT>
7

>  <SCORE.INTER.SOLV>
13.9683

>  <SCORE.INTER.VDW>
-22.3613

>  <SCORE.INTER.norm>
-0.524363

>  <SCORE.INTRA>
-8.965

>  <SCORE.INTRA.DIHEDRAL>
-7.81456

>  <SCORE.INTRA.DIHEDRAL.0>
15.0182

>  <SCORE.INTRA.POLAR>
0

>  <SCORE.INTRA.POLAR.0>
0

>  <SCORE.INTRA.REPUL>
0

>  <SCORE.INTRA.REPUL.0>
0

>  <SCORE.INTRA.SOLV>
-0.132423

>  <SCORE.INTRA.SOLV.lig_0>
-47.9129

>  <SCORE.INTRA.VDW>
-4.99151

>  <SCORE.INTRA.VDW.0>
2.00851

>  <SCORE.INTRA.norm>
-0.332037

>  <SCORE.RESTR>
0

>  <SCORE.RESTR.CAVITY>
0

>  <SCORE.RESTR.norm>
0

>  <SCORE.SYSTEM>
0

>  <SCORE.SYSTEM.CONST>
0

>  <SCORE.SYSTEM.DIHEDRAL>
0

>  <SCORE.SYSTEM.SOLV>
0

>  <SCORE.SYSTEM.norm>
0

>  <SCORE.heavy>
27

>  <SCORE.norm>
-0.8564

>  <RMSD>
5.565

$$$$
ligand
 OpenBabel11021811483D
libRbt.so/2013.1/901 2013/11/27
 27 29  0  0  0  0  0  0  0  0999 V2000
  -15.1092   -6.4786   28.1932 N   0  0  0  0  0  0  0  0  0  0  0  0
  -13.9574   -5.6187   27.9348 C   0  0  2  0  0  0  0  0  0  0  0  0
  -13.0922   -6.1528   26.7963 C   0  0  0  0  0  0  0  0  0  0  0  0
  -11.9902   -6.6597   27.0177 O   0  0  0  0  0  0  0  0  0  0  0  0
  -13.1379   -5.4099   29.2047 C   0  0  0  0  0  0  0  0  0  0  0  0
  -13.9526   -4.8553   30.3631 C   0  0  0  0  0  0  0  0  0  0  0  0
  -13.0265   -4.7246   31.9127 S   0  0  2  0  0  0  0  0  0  0  0  0
  -12.6584   -6.4695   32.2232 C   0  0  0  0  0  0  0  0  0  0  0  0
  -14.3706   -4.4299   33.0938 C   0  0  0  0  0  0  0  0  0  0  0  0
  -15.5339   -5.3583   32.7761 C   0  0  1  0  0  0  0  0  0  0  0  0
  -15.2575   -6.6211   33.3335 O   0  0  0  0  0  0  0  0  0  0  0  0
  -16.8724   -4.9638   33.3716 C   0  0  1  0  0  0  0  0  0  0  0  0
  -17.6472   -4.2451   32.4378 O   0  0  0  0  0  0  0  0  0  0  0  0
  -17.5223   -6.3002   33.6674 C   0  0  1  0  0  0  0  0  0  0  0  0
  -18.5246   -6.5296   32.7080 O   0  0  0  0  0  0  0  0  0  0  0  0
  -16.4364   -7.3589   33.5307 C   0  0  2  0  0  0  0  0  0  0  0  0
  -13.4787   -6.0821   25.6296 O   0  0  0  0  0  0  0  0  0  0  0  0
  -13.4084   -8.5727   37.6700 N   0  0  0  0  0  0  0  0  0  0  0  0
  -13.0980   -7.7623   36.5958 C   0  0  0  0  0  0  0  0  0  0  0  0
  -14.0171   -7.5507   35.5855 N   0  0  0  0  0  0  0  0  0  0  0  0
  -15.2349   -8.1410   35.6348 C   0  0  0  0  0  0  0  0  0  0  0  0
  -15.5682   -8.9528   36.7120 C   0  0  0  0  0  0  0  0  0  0  0  0
  -14.6479   -9.1720   37.7298 C   0  0  0  0  0  0  0  0  0  0  0  0
  -14.9638   -9.9572   38.7568 N   0  0  0  0  0  0  0  0  0  0  0  0
  -16.8267   -9.4024   36.5181 N   0  0  0  0  0  0  0  0  0  0  0  0
  -17.2987   -8.8830   35.3605 C   0  0  0  0  0  0  0  0  0  0  0  0
  -16.3261   -8.0983   34.7994 N   0  0  0  0  0  0  0  0  0  0  0  0
  2  1  1  1  0  0  0
  2  3  1  0  0  0  0
  2  5  1  0  0  0  0
  3  4  1  0  0  0  0
  3 17  1  0  0  0  0
  5  6  1  0  0  0  0
  7  6  1  6  0  0  0
  7  8  1  0  0  0  0
  7  9  1  0  0  0  0
 10  9  1  1  0  0  0
 10 11  1  0  0  0  0
 10 12  1  0  0  0  0
 11 16  1  0  0  0  0
 12 13  1  6  0  0  0
 12 14  1  0  0  0  0
 14 15  1  6  0  0  0
 14 16  1  0  0  0  0
 16 27  1  1  0  0  0
 18 19  2  0  0  0  0
 18 23  1  0  0  0  0
 19 20  1  0  0  0  0
 20 21  2  0  0  0  0
 21 22  1  0  0  0  0
 21 27  1  0  0  0  0
 22 23  2  0  0  0  0
 22 25  1  0  0  0  0
 23 24  1  0  0  0  0
 25 26  2  0  0  0  0
 26 27  1  0  0  0  0
M  END
>  <CHROM.1>
-107.46126976,-55.65565923,175.44084633,-63.37572685,43.05064992,81.15440087
-3.48029524,-14.86663805,-6.69330186,32.77878112,1.35809376,0.21131284,-1.20546516

>  <Name>
ligand

>  <RI>
0

>  <Rbt.Current_Directory>
/home/itssahil/PROJECTS/Mol_Feturizer/New_Systems/rnas/3GX6

>  <Rbt.Executable>
rbdock ($Id: //depot/dev/client3/rdock/2013.1/src/exe/rbdock.cxx#4 $)

>  <Rbt.Library>
libRbt.so (2013.1, Build901 2013/11/27)

>  <Rbt.Parameter_File>
/export/apps/rDock/src/rDock_2013.1_src/data/scripts/dock_solv.prm

>  <Rbt.Receptor>
prm/pocket_docking_8.prm

>  <SCORE>
-22.8978

>  <SCORE.INTER>
-15.5566

>  <SCORE.INTER.CONST>
1

>  <SCORE.INTER.POLAR>
0

>  <SCORE.INTER.ROT>
7

>  <SCORE.INTER.SOLV>
12.9242

>  <SCORE.INTER.VDW>
-22.9458

>  <SCORE.INTER.norm>
-0.576169

>  <SCORE.INTRA>
-7.34119

>  <SCORE.INTRA.DIHEDRAL>
-9.94321

>  <SCORE.INTRA.DIHEDRAL.0>
15.0182

>  <SCORE.INTRA.POLAR>
0

>  <SCORE.INTRA.POLAR.0>
0

>  <SCORE.INTRA.REPUL>
0

>  <SCORE.INTRA.REPUL.0>
0

>  <SCORE.INTRA.SOLV>
-0.862244

>  <SCORE.INTRA.SOLV.lig_0>
-47.9129

>  <SCORE.INTRA.VDW>
-1.93846

>  <SCORE.INTRA.VDW.0>
2.00851

>  <SCORE.INTRA.norm>
-0.271896

>  <SCORE.RESTR>
0

>  <SCORE.RESTR.CAVITY>
0

>  <SCORE.RESTR.norm>
0

>  <SCORE.SYSTEM>
0

>  <SCORE.SYSTEM.CONST>
0

>  <SCORE.SYSTEM.DIHEDRAL>
0

>  <SCORE.SYSTEM.SOLV>
0

>  <SCORE.SYSTEM.norm>
0

>  <SCORE.heavy>
27

>  <SCORE.norm>
-0.848065

>  <RMSD>
5.582

$$$$
ligand
 OpenBabel11021811483D
libRbt.so/2013.1/901 2013/11/27
 27 29  0  0  0  0  0  0  0  0999 V2000
  -16.8136   -4.8229   30.3183 N   0  0  0  0  0  0  0  0  0  0  0  0
  -16.9504   -4.0205   31.5309 C   0  0  2  0  0  0  0  0  0  0  0  0
  -16.8025   -2.5283   31.2457 C   0  0  0  0  0  0  0  0  0  0  0  0
  -16.8223   -2.0954   30.0913 O   0  0  0  0  0  0  0  0  0  0  0  0
  -15.9673   -4.4815   32.6028 C   0  0  0  0  0  0  0  0  0  0  0  0
  -14.5112   -4.3108   32.1983 C   0  0  0  0  0  0  0  0  0  0  0  0
  -13.3868   -4.0704   33.5962 S   0  0  2  0  0  0  0  0  0  0  0  0
  -12.0136   -3.2273   32.7715 C   0  0  0  0  0  0  0  0  0  0  0  0
  -12.7126   -5.7428   33.7880 C   0  0  0  0  0  0  0  0  0  0  0  0
  -13.8581   -6.7376   33.9089 C   0  0  1  0  0  0  0  0  0  0  0  0
  -14.3884   -6.9605   32.6241 O   0  0  0  0  0  0  0  0  0  0  0  0
  -13.4800   -8.1189   34.4099 C   0  0  1  0  0  0  0  0  0  0  0  0
  -13.7009   -8.2294   35.7983 O   0  0  0  0  0  0  0  0  0  0  0  0
  -14.4315   -9.0275   33.6581 C   0  0  1  0  0  0  0  0  0  0  0  0
  -15.4249   -9.4678   34.5509 O   0  0  0  0  0  0  0  0  0  0  0  0
  -15.0707   -8.1867   32.5613 C   0  0  2  0  0  0  0  0  0  0  0  0
  -16.6547   -1.7259   32.1677 O   0  0  0  0  0  0  0  0  0  0  0  0
  -11.8481   -8.4756   28.4012 N   0  0  0  0  0  0  0  0  0  0  0  0
  -11.7229   -7.6788   29.5221 C   0  0  0  0  0  0  0  0  0  0  0  0
  -12.6694   -7.7263   30.5281 N   0  0  0  0  0  0  0  0  0  0  0  0
  -13.7364   -8.5538   30.4242 C   0  0  0  0  0  0  0  0  0  0  0  0
  -13.8746   -9.3691   29.3077 C   0  0  0  0  0  0  0  0  0  0  0  0
  -12.9281   -9.3245   28.2913 C   0  0  0  0  0  0  0  0  0  0  0  0
  -13.0657  -10.0985   27.2175 N   0  0  0  0  0  0  0  0  0  0  0  0
  -15.0060  -10.0906   29.4591 N   0  0  0  0  0  0  0  0  0  0  0  0
  -15.5722   -9.7648   30.6448 C   0  0  0  0  0  0  0  0  0  0  0  0
  -14.7989   -8.8141   31.2571 N   0  0  0  0  0  0  0  0  0  0  0  0
  2  1  1  6  0  0  0
  2  3  1  0  0  0  0
  2  5  1  0  0  0  0
  3  4  1  0  0  0  0
  3 17  1  0  0  0  0
  5  6  1  0  0  0  0
  7  6  1  6  0  0  0
  7  8  1  0  0  0  0
  7  9  1  0  0  0  0
 10  9  1  6  0  0  0
 10 11  1  0  0  0  0
 10 12  1  0  0  0  0
 11 16  1  0  0  0  0
 12 13  1  1  0  0  0
 12 14  1  0  0  0  0
 14 15  1  1  0  0  0
 14 16  1  0  0  0  0
 16 27  1  6  0  0  0
 18 19  2  0  0  0  0
 18 23  1  0  0  0  0
 19 20  1  0  0  0  0
 20 21  2  0  0  0  0
 21 22  1  0  0  0  0
 21 27  1  0  0  0  0
 22 23  2  0  0  0  0
 22 25  1  0  0  0  0
 23 24  1  0  0  0  0
 25 26  2  0  0  0  0
 26 27  1  0  0  0  0
M  END
>  <CHROM.1>
12.53130371,62.94340569,152.14936093,-156.76172070,-53.10888158,77.43526265
21.39794995,-14.35571823,-6.59956142,31.75241371,2.52854808,-1.23782798,1.29575608

>  <Name>
ligand

>  <RI>
0

>  <Rbt.Current_Directory>
/home/itssahil/PROJECTS/Mol_Feturizer/New_Systems/rnas/3GX6

>  <Rbt.Executable>
rbdock ($Id: //depot/dev/client3/rdock/2013.1/src/exe/rbdock.cxx#4 $)

>  <Rbt.Library>
libRbt.so (2013.1, Build901 2013/11/27)

>  <Rbt.Parameter_File>
/export/apps/rDock/src/rDock_2013.1_src/data/scripts/dock_solv.prm

>  <Rbt.Receptor>
prm/pocket_docking_2.prm

>  <SCORE>
-19.097

>  <SCORE.INTER>
-13.3668

>  <SCORE.INTER.CONST>
1

>  <SCORE.INTER.POLAR>
0

>  <SCORE.INTER.ROT>
7

>  <SCORE.INTER.SOLV>
9.92714

>  <SCORE.INTER.VDW>
-20.4869

>  <SCORE.INTER.norm>
-0.495066

>  <SCORE.INTRA>
-6.50756

>  <SCORE.INTRA.DIHEDRAL>
-5.29921

>  <SCORE.INTRA.DIHEDRAL.0>
15.0182

>  <SCORE.INTRA.POLAR>
0

>  <SCORE.INTRA.POLAR.0>
0

>  <SCORE.INTRA.REPUL>
0

>  <SCORE.INTRA.REPUL.0>
0

>  <SCORE.INTRA.SOLV>
-0.498003

>  <SCORE.INTRA.SOLV.lig_0>
-47.9129

>  <SCORE.INTRA.VDW>
-3.60895

>  <SCORE.INTRA.VDW.0>
2.00851

>  <SCORE.INTRA.norm>
-0.241021

>  <SCORE.RESTR>
0.777299

>  <SCORE.RESTR.CAVITY>
0.777299

>  <SCORE.RESTR.norm>
0.0287888

>  <SCORE.SYSTEM>
0

>  <SCORE.SYSTEM.CONST>
0

>  <SCORE.SYSTEM.DIHEDRAL>
0

>  <SCORE.SYSTEM.SOLV>
0

>  <SCORE.SYSTEM.norm>
0

>  <SCORE.heavy>
27

>  <SCORE.norm>
-0.707298

>  <RMSD>
5.595

$$$$
ligand
 OpenBabel11021811483D
libRbt.so/2013.1/901 2013/11/27
 27 29  0  0  0  0  0  0  0  0999 V2000
  -16.5135   -6.2457   28.7524 N   0  0  0  0  0  0  0  0  0  0  0  0
  -17.2085   -5.1630   29.4436 C   0  0  2  0  0  0  0  0  0  0  0  0
  -18.6680   -5.0552   29.0100 C   0  0  0  0  0  0  0  0  0  0  0  0
  -18.9700   -4.6506   27.8851 O   0  0  0  0  0  0  0  0  0  0  0  0
  -16.4742   -3.8386   29.2578 C   0  0  0  0  0  0  0  0  0  0  0  0
  -15.0566   -3.8532   29.8085 C   0  0  0  0  0  0  0  0  0  0  0  0
  -14.9718   -3.7544   31.6139 S   0  0  2  0  0  0  0  0  0  0  0  0
  -15.3107   -1.9938   31.8624 C   0  0  0  0  0  0  0  0  0  0  0  0
  -13.1787   -3.8114   31.8784 C   0  0  0  0  0  0  0  0  0  0  0  0
  -12.7131   -5.2603   31.8686 C   0  0  1  0  0  0  0  0  0  0  0  0
  -13.2711   -5.9122   32.9845 O   0  0  0  0  0  0  0  0  0  0  0  0
  -13.1630   -6.0882   30.6794 C   0  0  1  0  0  0  0  0  0  0  0  0
  -12.1637   -6.1267   29.6852 O   0  0  0  0  0  0  0  0  0  0  0  0
  -13.3559   -7.4674   31.2763 C   0  0  1  0  0  0  0  0  0  0  0  0
  -12.2856   -8.2829   30.8674 O   0  0  0  0  0  0  0  0  0  0  0  0
  -13.3194   -7.3024   32.7896 C   0  0  2  0  0  0  0  0  0  0  0  0
  -19.5754   -5.3671   29.7815 O   0  0  0  0  0  0  0  0  0  0  0  0
  -15.7316   -9.3553   37.0018 N   0  0  0  0  0  0  0  0  0  0  0  0
  -14.4102   -8.9734   36.8787 C   0  0  0  0  0  0  0  0  0  0  0  0
  -13.9370   -8.4503   35.6901 N   0  0  0  0  0  0  0  0  0  0  0  0
  -14.7648   -8.3101   34.6276 C   0  0  0  0  0  0  0  0  0  0  0  0
  -16.0995   -8.6809   34.7355 C   0  0  0  0  0  0  0  0  0  0  0  0
  -16.5812   -9.2100   35.9267 C   0  0  0  0  0  0  0  0  0  0  0  0
  -17.8573   -9.5740   36.0268 N   0  0  0  0  0  0  0  0  0  0  0  0
  -16.6956   -8.4327   33.5495 N   0  0  0  0  0  0  0  0  0  0  0  0
  -15.7790   -7.9012   32.7068 C   0  0  0  0  0  0  0  0  0  0  0  0
  -14.5766   -7.8173   33.3579 N   0  0  0  0  0  0  0  0  0  0  0  0
  2  1  1  6  0  0  0
  2  3  1  0  0  0  0
  2  5  1  0  0  0  0
  3  4  1  0  0  0  0
  3 17  1  0  0  0  0
  5  6  1  0  0  0  0
  7  6  1  6  0  0  0
  7  8  1  0  0  0  0
  7  9  1  0  0  0  0
 10  9  1  6  0  0  0
 10 11  1  0  0  0  0
 10 12  1  0  0  0  0
 11 16  1  0  0  0  0
 12 13  1  6  0  0  0
 12 14  1  0  0  0  0
 14 15  1  6  0  0  0
 14 16  1  0  0  0  0
 16 27  1  1  0  0  0
 18 19  2  0  0  0  0
 18 23  1  0  0  0  0
 19 20  1  0  0  0  0
 20 21  2  0  0  0  0
 21 22  1  0  0  0  0
 21 27  1  0  0  0  0
 22 23  2  0  0  0  0
 22 25  1  0  0  0  0
 23 24  1  0  0  0  0
 25 26  2  0  0  0  0
 26 27  1  0  0  0  0
M  END
>  <CHROM.1>
-70.54768353,-60.62965597,-75.39979501,-76.66489392,-83.36515496,-65.87524562
-92.92496778,-15.26084715,-6.35558323,32.09916647,1.73422378,-0.12777780
-0.90304331

>  <Name>
ligand

>  <RI>
0

>  <Rbt.Current_Directory>
/home/itssahil/PROJECTS/Mol_Feturizer/New_Systems/rnas/3GX6

>  <Rbt.Executable>
rbdock ($Id: //depot/dev/client3/rdock/2013.1/src/exe/rbdock.cxx#4 $)

>  <Rbt.Library>
libRbt.so (2013.1, Build901 2013/11/27)

>  <Rbt.Parameter_File>
/export/apps/rDock/src/rDock_2013.1_src/data/scripts/dock_solv.prm

>  <Rbt.Receptor>
prm/pocket_docking_4.prm

>  <SCORE>
-22.2239

>  <SCORE.INTER>
-13.2277

>  <SCORE.INTER.CONST>
1

>  <SCORE.INTER.POLAR>
0

>  <SCORE.INTER.ROT>
7

>  <SCORE.INTER.SOLV>
11.4434

>  <SCORE.INTER.VDW>
-20.8996

>  <SCORE.INTER.norm>
-0.489914

>  <SCORE.INTRA>
-8.9962

>  <SCORE.INTRA.DIHEDRAL>
-9.99462

>  <SCORE.INTRA.DIHEDRAL.0>
15.0182

>  <SCORE.INTRA.POLAR>
0

>  <SCORE.INTRA.POLAR.0>
0

>  <SCORE.INTRA.REPUL>
0

>  <SCORE.INTRA.REPUL.0>
0

>  <SCORE.INTRA.SOLV>
0.33383

>  <SCORE.INTRA.SOLV.lig_0>
-47.9129

>  <SCORE.INTRA.VDW>
-4.16581

>  <SCORE.INTRA.VDW.0>
2.00851

>  <SCORE.INTRA.norm>
-0.333193

>  <SCORE.RESTR>
0

>  <SCORE.RESTR.CAVITY>
0

>  <SCORE.RESTR.norm>
0

>  <SCORE.SYSTEM>
0

>  <SCORE.SYSTEM.CONST>
0

>  <SCORE.SYSTEM.DIHEDRAL>
0

>  <SCORE.SYSTEM.SOLV>
0

>  <SCORE.SYSTEM.norm>
0

>  <SCORE.heavy>
27

>  <SCORE.norm>
-0.823107

>  <RMSD>
5.606

$$$$
ligand
 OpenBabel11021811483D
libRbt.so/2013.1/901 2013/11/27
 27 29  0  0  0  0  0  0  0  0999 V2000
  -14.6229   -8.2659   31.0709 N   0  0  0  0  0  0  0  0  0  0  0  0
  -15.8368   -8.4221   31.8678 C   0  0  2  0  0  0  0  0  0  0  0  0
  -17.0104   -7.6465   31.2754 C   0  0  0  0  0  0  0  0  0  0  0  0
  -16.8302   -6.6033   30.6432 O   0  0  0  0  0  0  0  0  0  0  0  0
  -15.5883   -8.0297   33.3212 C   0  0  0  0  0  0  0  0  0  0  0  0
  -15.2616   -6.5551   33.4997 C   0  0  0  0  0  0  0  0  0  0  0  0
  -13.6621   -6.0706   32.8048 S   0  0  2  0  0  0  0  0  0  0  0  0
  -12.5391   -6.8516   33.9903 C   0  0  0  0  0  0  0  0  0  0  0  0
  -13.5730   -4.3348   33.3221 C   0  0  0  0  0  0  0  0  0  0  0  0
  -14.2744   -3.4641   32.2895 C   0  0  1  0  0  0  0  0  0  0  0  0
  -13.5688   -3.5618   31.0753 O   0  0  0  0  0  0  0  0  0  0  0  0
  -15.6933   -3.8717   31.9395 C   0  0  1  0  0  0  0  0  0  0  0  0
  -16.6300   -3.1292   32.6878 O   0  0  0  0  0  0  0  0  0  0  0  0
  -15.7996   -3.5133   30.4711 C   0  0  1  0  0  0  0  0  0  0  0  0
  -16.5832   -2.3515   30.3523 O   0  0  0  0  0  0  0  0  0  0  0  0
  -14.3861   -3.2247   29.9838 C   0  0  2  0  0  0  0  0  0  0  0  0
  -18.1649   -8.0477   31.4232 O   0  0  0  0  0  0  0  0  0  0  0  0
  -11.5282   -7.3143   28.2857 N   0  0  0  0  0  0  0  0  0  0  0  0
  -11.5163   -6.7269   29.5355 C   0  0  0  0  0  0  0  0  0  0  0  0
  -12.3361   -5.6498   29.8143 N   0  0  0  0  0  0  0  0  0  0  0  0
  -13.1599   -5.1531   28.8611 C   0  0  0  0  0  0  0  0  0  0  0  0
  -13.1919   -5.7365   27.6005 C   0  0  0  0  0  0  0  0  0  0  0  0
  -12.3683   -6.8180   27.3126 C   0  0  0  0  0  0  0  0  0  0  0  0
  -12.3921   -7.3706   26.1021 N   0  0  0  0  0  0  0  0  0  0  0  0
  -14.0926   -5.0615   26.8544 N   0  0  0  0  0  0  0  0  0  0  0  0
  -14.6389   -4.0836   27.6145 C   0  0  0  0  0  0  0  0  0  0  0  0
  -14.0734   -4.1255   28.8615 N   0  0  0  0  0  0  0  0  0  0  0  0
  2  1  1  6  0  0  0
  2  3  1  0  0  0  0
  2  5  1  0  0  0  0
  3  4  1  0  0  0  0
  3 17  1  0  0  0  0
  5  6  1  0  0  0  0
  7  6  1  1  0  0  0
  7  8  1  0  0  0  0
  7  9  1  0  0  0  0
 10  9  1  1  0  0  0
 10 11  1  0  0  0  0
 10 12  1  0  0  0  0
 11 16  1  0  0  0  0
 12 13  1  1  0  0  0
 12 14  1  0  0  0  0
 14 15  1  1  0  0  0
 14 16  1  0  0  0  0
 16 27  1  6  0  0  0
 18 19  2  0  0  0  0
 18 23  1  0  0  0  0
 19 20  1  0  0  0  0
 20 21  2  0  0  0  0
 21 22  1  0  0  0  0
 21 27  1  0  0  0  0
 22 23  2  0  0  0  0
 22 25  1  0  0  0  0
 23 24  1  0  0  0  0
 25 26  2  0  0  0  0
 26 27  1  0  0  0  0
M  END
>  <CHROM.1>
-30.53155436,65.21348343,-68.10720113,-71.76222069,-86.49431997,-64.03499763
1.31836049,-14.44267487,-5.63210842,30.65702308,-2.73069896,1.01747829,-0.47403071

>  <Name>
ligand

>  <RI>
0

>  <Rbt.Current_Directory>
/home/itssahil/PROJECTS/Mol_Feturizer/New_Systems/rnas/3GX6

>  <Rbt.Executable>
rbdock ($Id: //depot/dev/client3/rdock/2013.1/src/exe/rbdock.cxx#4 $)

>  <Rbt.Library>
libRbt.so (2013.1, Build901 2013/11/27)

>  <Rbt.Parameter_File>
/export/apps/rDock/src/rDock_2013.1_src/data/scripts/dock_solv.prm

>  <Rbt.Receptor>
prm/pocket_docking_5.prm

>  <SCORE>
-21.5172

>  <SCORE.INTER>
-10.7601

>  <SCORE.INTER.CONST>
1

>  <SCORE.INTER.POLAR>
0

>  <SCORE.INTER.ROT>
7

>  <SCORE.INTER.SOLV>
8.99029

>  <SCORE.INTER.VDW>
-18.4368

>  <SCORE.INTER.norm>
-0.398521

>  <SCORE.INTRA>
-10.7571

>  <SCORE.INTRA.DIHEDRAL>
-10.5093

>  <SCORE.INTRA.DIHEDRAL.0>
15.0182

>  <SCORE.INTRA.POLAR>
0

>  <SCORE.INTRA.POLAR.0>
0

>  <SCORE.INTRA.REPUL>
0

>  <SCORE.INTRA.REPUL.0>
0

>  <SCORE.INTRA.SOLV>
1.44163

>  <SCORE.INTRA.SOLV.lig_0>
-47.9129

>  <SCORE.INTRA.VDW>
-6.22324

>  <SCORE.INTRA.VDW.0>
2.00851

>  <SCORE.INTRA.norm>
-0.398411

>  <SCORE.RESTR>
0

>  <SCORE.RESTR.CAVITY>
0

>  <SCORE.RESTR.norm>
0

>  <SCORE.SYSTEM>
0

>  <SCORE.SYSTEM.CONST>
0

>  <SCORE.SYSTEM.DIHEDRAL>
0

>  <SCORE.SYSTEM.SOLV>
0

>  <SCORE.SYSTEM.norm>
0

>  <SCORE.heavy>
27

>  <SCORE.norm>
-0.796932

>  <RMSD>
5.635

$$$$
ligand
 OpenBabel11021811483D
libRbt.so/2013.1/901 2013/11/27
 27 29  0  0  0  0  0  0  0  0999 V2000
  -14.4942   -1.5526   31.8472 N   0  0  0  0  0  0  0  0  0  0  0  0
  -15.1037   -2.8201   32.2407 C   0  0  2  0  0  0  0  0  0  0  0  0
  -14.1052   -3.7392   32.9394 C   0  0  0  0  0  0  0  0  0  0  0  0
  -12.8926   -3.6260   32.7469 O   0  0  0  0  0  0  0  0  0  0  0  0
  -15.7489   -3.5093   31.0421 C   0  0  0  0  0  0  0  0  0  0  0  0
  -16.6869   -4.6415   31.4312 C   0  0  0  0  0  0  0  0  0  0  0  0
  -17.1950   -5.6818   30.0398 S   0  0  2  0  0  0  0  0  0  0  0  0
  -18.9928   -5.6545   30.2492 C   0  0  0  0  0  0  0  0  0  0  0  0
  -16.7887   -7.3307   30.6758 C   0  0  0  0  0  0  0  0  0  0  0  0
  -15.2798   -7.4528   30.8335 C   0  0  1  0  0  0  0  0  0  0  0  0
  -14.9358   -7.0394   32.1344 O   0  0  0  0  0  0  0  0  0  0  0  0
  -14.7177   -8.8574   30.7189 C   0  0  1  0  0  0  0  0  0  0  0  0
  -14.2496   -9.1077   29.4124 O   0  0  0  0  0  0  0  0  0  0  0  0
  -13.5571   -8.8416   31.6929 C   0  0  1  0  0  0  0  0  0  0  0  0
  -12.3597   -8.7864   30.9573 O   0  0  0  0  0  0  0  0  0  0  0  0
  -13.6990   -7.5764   32.5282 C   0  0  2  0  0  0  0  0  0  0  0  0
  -14.4949   -4.6184   33.7081 O   0  0  0  0  0  0  0  0  0  0  0  0
  -16.6484   -9.6019   36.3978 N   0  0  0  0  0  0  0  0  0  0  0  0
  -16.9929   -9.4124   35.0740 C   0  0  0  0  0  0  0  0  0  0  0  0
  -16.0906   -8.8605   34.1844 N   0  0  0  0  0  0  0  0  0  0  0  0
  -14.8559   -8.4936   34.6024 C   0  0  0  0  0  0  0  0  0  0  0  0
  -14.4885   -8.6845   35.9287 C   0  0  0  0  0  0  0  0  0  0  0  0
  -15.3916   -9.2364   36.8291 C   0  0  0  0  0  0  0  0  0  0  0  0
  -15.0427   -9.4104   38.1016 N   0  0  0  0  0  0  0  0  0  0  0  0
  -13.2196   -8.2460   36.0743 N   0  0  0  0  0  0  0  0  0  0  0  0
  -12.7745   -7.8019   34.8754 C   0  0  0  0  0  0  0  0  0  0  0  0
  -13.7750   -7.9480   33.9510 N   0  0  0  0  0  0  0  0  0  0  0  0
  2  1  1  6  0  0  0
  2  3  1  0  0  0  0
  2  5  1  0  0  0  0
  3  4  1  0  0  0  0
  3 17  1  0  0  0  0
  5  6  1  0  0  0  0
  7  6  1  1  0  0  0
  7  8  1  0  0  0  0
  7  9  1  0  0  0  0
 10  9  1  1  0  0  0
 10 11  1  0  0  0  0
 10 12  1  0  0  0  0
 11 16  1  0  0  0  0
 12 13  1  6  0  0  0
 12 14  1  0  0  0  0
 14 15  1  6  0  0  0
 14 16  1  0  0  0  0
 16 27  1  1  0  0  0
 18 19  2  0  0  0  0
 18 23  1  0  0  0  0
 19 20  1  0  0  0  0
 20 21  2  0  0  0  0
 21 22  1  0  0  0  0
 21 27  1  0  0  0  0
 22 23  2  0  0  0  0
 22 25  1  0  0  0  0
 23 24  1  0  0  0  0
 25 26  2  0  0  0  0
 26 27  1  0  0  0  0
M  END
>  <CHROM.1>
-24.17407108,-165.66808667,-168.18951502,-128.30976485,-66.12768738,90.48623259
37.66835283,-15.08003506,-6.88026573,32.78755362,-2.06077698,1.23237165,2.79146971

>  <Name>
ligand

>  <RI>
0

>  <Rbt.Current_Directory>
/home/itssahil/PROJECTS/Mol_Feturizer/New_Systems/rnas/3GX6

>  <Rbt.Executable>
rbdock ($Id: //depot/dev/client3/rdock/2013.1/src/exe/rbdock.cxx#4 $)

>  <Rbt.Library>
libRbt.so (2013.1, Build901 2013/11/27)

>  <Rbt.Parameter_File>
/export/apps/rDock/src/rDock_2013.1_src/data/scripts/dock_solv.prm

>  <Rbt.Receptor>
prm/pocket_docking_4.prm

>  <SCORE>
-19.4683

>  <SCORE.INTER>
-10.5632

>  <SCORE.INTER.CONST>
1

>  <SCORE.INTER.POLAR>
0

>  <SCORE.INTER.ROT>
7

>  <SCORE.INTER.SOLV>
16.7003

>  <SCORE.INTER.VDW>
-20.8756

>  <SCORE.INTER.norm>
-0.391229

>  <SCORE.INTRA>
-8.92996

>  <SCORE.INTRA.DIHEDRAL>
-3.48866

>  <SCORE.INTRA.DIHEDRAL.0>
15.0182

>  <SCORE.INTRA.POLAR>
0

>  <SCORE.INTRA.POLAR.0>
0

>  <SCORE.INTRA.REPUL>
0

>  <SCORE.INTRA.REPUL.0>
0

>  <SCORE.INTRA.SOLV>
-1.5943

>  <SCORE.INTRA.SOLV.lig_0>
-47.9129

>  <SCORE.INTRA.VDW>
-6.38848

>  <SCORE.INTRA.VDW.0>
2.00851

>  <SCORE.INTRA.norm>
-0.330739

>  <SCORE.RESTR>
0.0248373

>  <SCORE.RESTR.CAVITY>
0.0248373

>  <SCORE.RESTR.norm>
0.000919902

>  <SCORE.SYSTEM>
0

>  <SCORE.SYSTEM.CONST>
0

>  <SCORE.SYSTEM.DIHEDRAL>
0

>  <SCORE.SYSTEM.SOLV>
0

>  <SCORE.SYSTEM.norm>
0

>  <SCORE.heavy>
27

>  <SCORE.norm>
-0.721048

>  <RMSD>
5.650

$$$$
ligand
 OpenBabel11021811483D
libRbt.so/2013.1/901 2013/11/27
 27 29  0  0  0  0  0  0  0  0999 V2000
  -18.7164   -7.1587   32.8150 N   0  0  0  0  0  0  0  0  0  0  0  0
  -18.1501   -5.8921   32.3590 C   0  0  2  0  0  0  0  0  0  0  0  0
  -18.1137   -5.8003   30.8358 C   0  0  0  0  0  0  0  0  0  0  0  0
  -19.0720   -5.3533   30.2016 O   0  0  0  0  0  0  0  0  0  0  0  0
  -16.7673   -5.6651   32.9626 C   0  0  0  0  0  0  0  0  0  0  0  0
  -16.2259   -4.2650   32.7187 C   0  0  0  0  0  0  0  0  0  0  0  0
  -14.4337   -4.1261   32.9309 S   0  0  2  0  0  0  0  0  0  0  0  0
  -14.2190   -2.3383   32.7461 C   0  0  0  0  0  0  0  0  0  0  0  0
  -13.8487   -4.7221   31.3213 C   0  0  0  0  0  0  0  0  0  0  0  0
  -13.1602   -6.0675   31.5013 C   0  0  1  0  0  0  0  0  0  0  0  0
  -13.0398   -6.3221   32.8806 O   0  0  0  0  0  0  0  0  0  0  0  0
  -13.9098   -7.2686   30.9561 C   0  0  1  0  0  0  0  0  0  0  0  0
  -13.4543   -7.6029   29.6641 O   0  0  0  0  0  0  0  0  0  0  0  0
  -13.5511   -8.3685   31.9347 C   0  0  1  0  0  0  0  0  0  0  0  0
  -12.6275   -9.2302   31.3164 O   0  0  0  0  0  0  0  0  0  0  0  0
  -12.8951   -7.6963   33.1332 C   0  0  2  0  0  0  0  0  0  0  0  0
  -17.1236   -6.1779   30.2090 O   0  0  0  0  0  0  0  0  0  0  0  0
  -17.4486   -9.4364   35.1363 N   0  0  0  0  0  0  0  0  0  0  0  0
  -17.1198   -9.2448   33.8089 C   0  0  0  0  0  0  0  0  0  0  0  0
  -15.8691   -8.7750   33.4548 N   0  0  0  0  0  0  0  0  0  0  0  0
  -14.9502   -8.4918   34.4083 C   0  0  0  0  0  0  0  0  0  0  0  0
  -15.2601   -8.6865   35.7487 C   0  0  0  0  0  0  0  0  0  0  0  0
  -16.5165   -9.1560   36.1119 C   0  0  0  0  0  0  0  0  0  0  0  0
  -16.8165   -9.3334   37.3963 N   0  0  0  0  0  0  0  0  0  0  0  0
  -14.1785   -8.3390   36.4787 N   0  0  0  0  0  0  0  0  0  0  0  0
  -13.1940   -7.9487   35.6355 C   0  0  0  0  0  0  0  0  0  0  0  0
  -13.6539   -8.0373   34.3482 N   0  0  0  0  0  0  0  0  0  0  0  0
  2  1  1  6  0  0  0
  2  3  1  0  0  0  0
  2  5  1  0  0  0  0
  3  4  1  0  0  0  0
  3 17  1  0  0  0  0
  5  6  1  0  0  0  0
  7  6  1  6  0  0  0
  7  8  1  0  0  0  0
  7  9  1  0  0  0  0
 10  9  1  1  0  0  0
 10 11  1  0  0  0  0
 10 12  1  0  0  0  0
 11 16  1  0  0  0  0
 12 13  1  6  0  0  0
 12 14  1  0  0  0  0
 14 15  1  6  0  0  0
 14 16  1  0  0  0  0
 16 27  1  1  0  0  0
 18 19  2  0  0  0  0
 18 23  1  0  0  0  0
 19 20  1  0  0  0  0
 20 21  2  0  0  0  0
 21 22  1  0  0  0  0
 21 27  1  0  0  0  0
 22 23  2  0  0  0  0
 22 25  1  0  0  0  0
 23 24  1  0  0  0  0
 25 26  2  0  0  0  0
 26 27  1  0  0  0  0
M  END
>  <CHROM.1>
88.63116325,-170.18524264,-161.19942201,-174.03034251,-110.93296608,-7.99898990
93.13547210,-15.28977996,-6.90452977,32.98275521,1.58946736,0.06031626,-0.81762907

>  <Name>
ligand

>  <RI>
0

>  <Rbt.Current_Directory>
/home/itssahil/PROJECTS/Mol_Feturizer/New_Systems/rnas/3GX6

>  <Rbt.Executable>
rbdock ($Id: //depot/dev/client3/rdock/2013.1/src/exe/rbdock.cxx#4 $)

>  <Rbt.Library>
libRbt.so (2013.1, Build901 2013/11/27)

>  <Rbt.Parameter_File>
/export/apps/rDock/src/rDock_2013.1_src/data/scripts/dock_solv.prm

>  <Rbt.Receptor>
prm/pocket_docking_5.prm

>  <SCORE>
-17.5068

>  <SCORE.INTER>
-12.5339

>  <SCORE.INTER.CONST>
1

>  <SCORE.INTER.POLAR>
0

>  <SCORE.INTER.ROT>
7

>  <SCORE.INTER.SOLV>
11.3858

>  <SCORE.INTER.VDW>
-20.4178

>  <SCORE.INTER.norm>
-0.464218

>  <SCORE.INTRA>
-4.97296

>  <SCORE.INTRA.DIHEDRAL>
-1.20653

>  <SCORE.INTRA.DIHEDRAL.0>
15.0182

>  <SCORE.INTRA.POLAR>
0

>  <SCORE.INTRA.POLAR.0>
0

>  <SCORE.INTRA.REPUL>
0

>  <SCORE.INTRA.REPUL.0>
0

>  <SCORE.INTRA.SOLV>
-0.176335

>  <SCORE.INTRA.SOLV.lig_0>
-47.9129

>  <SCORE.INTRA.VDW>
-4.28153

>  <SCORE.INTRA.VDW.0>
2.00851

>  <SCORE.INTRA.norm>
-0.184184

>  <SCORE.RESTR>
0

>  <SCORE.RESTR.CAVITY>
0

>  <SCORE.RESTR.norm>
0

>  <SCORE.SYSTEM>
0

>  <SCORE.SYSTEM.CONST>
0

>  <SCORE.SYSTEM.DIHEDRAL>
0

>  <SCORE.SYSTEM.SOLV>
0

>  <SCORE.SYSTEM.norm>
0

>  <SCORE.heavy>
27

>  <SCORE.norm>
-0.648402

>  <RMSD>
5.651

$$$$
ligand
 OpenBabel11021811483D
libRbt.so/2013.1/901 2013/11/27
 27 29  0  0  0  0  0  0  0  0999 V2000
  -14.8444   -1.1836   31.5728 N   0  0  0  0  0  0  0  0  0  0  0  0
  -14.8260   -2.3765   32.4151 C   0  0  2  0  0  0  0  0  0  0  0  0
  -13.4033   -2.8017   32.7689 C   0  0  0  0  0  0  0  0  0  0  0  0
  -12.4559   -2.5365   32.0256 O   0  0  0  0  0  0  0  0  0  0  0  0
  -15.6004   -3.5169   31.7611 C   0  0  0  0  0  0  0  0  0  0  0  0
  -15.8827   -4.6738   32.7072 C   0  0  0  0  0  0  0  0  0  0  0  0
  -16.5494   -6.1435   31.8875 S   0  0  2  0  0  0  0  0  0  0  0  0
  -18.2437   -5.5967   31.5606 C   0  0  0  0  0  0  0  0  0  0  0  0
  -16.7996   -7.2455   33.3058 C   0  0  0  0  0  0  0  0  0  0  0  0
  -15.5127   -8.0087   33.5848 C   0  0  1  0  0  0  0  0  0  0  0  0
  -15.1955   -8.7732   32.4462 O   0  0  0  0  0  0  0  0  0  0  0  0
  -14.2811   -7.1561   33.8264 C   0  0  1  0  0  0  0  0  0  0  0  0
  -14.0587   -6.9718   35.2067 O   0  0  0  0  0  0  0  0  0  0  0  0
  -13.1661   -7.9885   33.2267 C   0  0  1  0  0  0  0  0  0  0  0  0
  -12.4241   -8.5602   34.2757 O   0  0  0  0  0  0  0  0  0  0  0  0
  -13.8279   -9.0919   32.4125 C   0  0  2  0  0  0  0  0  0  0  0  0
  -13.1754   -3.4249   33.8059 O   0  0  0  0  0  0  0  0  0  0  0  0
  -14.9478   -9.9089   27.3279 N   0  0  0  0  0  0  0  0  0  0  0  0
  -15.7523  -10.1428   28.4256 C   0  0  0  0  0  0  0  0  0  0  0  0
  -15.2966   -9.8721   29.7021 N   0  0  0  0  0  0  0  0  0  0  0  0
  -14.0505   -9.3771   29.8923 C   0  0  0  0  0  0  0  0  0  0  0  0
  -13.2300   -9.1274   28.7992 C   0  0  0  0  0  0  0  0  0  0  0  0
  -13.6808   -9.3998   27.5133 C   0  0  0  0  0  0  0  0  0  0  0  0
  -12.8912   -9.1694   26.4670 N   0  0  0  0  0  0  0  0  0  0  0  0
  -12.0606   -8.6359   29.2626 N   0  0  0  0  0  0  0  0  0  0  0  0
  -12.1297   -8.5538   30.6121 C   0  0  0  0  0  0  0  0  0  0  0  0
  -13.3559   -9.0084   31.0201 N   0  0  0  0  0  0  0  0  0  0  0  0
  2  1  1  6  0  0  0
  2  3  1  0  0  0  0
  2  5  1  0  0  0  0
  3  4  1  0  0  0  0
  3 17  1  0  0  0  0
  5  6  1  0  0  0  0
  7  6  1  1  0  0  0
  7  8  1  0  0  0  0
  7  9  1  0  0  0  0
 10  9  1  6  0  0  0
 10 11  1  0  0  0  0
 10 12  1  0  0  0  0
 11 16  1  0  0  0  0
 12 13  1  1  0  0  0
 12 14  1  0  0  0  0
 14 15  1  1  0  0  0
 14 16  1  0  0  0  0
 16 27  1  6  0  0  0
 18 19  2  0  0  0  0
 18 23  1  0  0  0  0
 19 20  1  0  0  0  0
 20 21  2  0  0  0  0
 21 22  1  0  0  0  0
 21 27  1  0  0  0  0
 22 23  2  0  0  0  0
 22 25  1  0  0  0  0
 23 24  1  0  0  0  0
 25 26  2  0  0  0  0
 26 27  1  0  0  0  0
M  END
>  <CHROM.1>
-27.25912363,-167.18842392,-170.29080883,-74.41307566,-86.88543476,-60.72931637
-37.22773152,-14.46650512,-6.90417449,31.51019916,2.91409544,-1.46812488
1.93424578

>  <Name>
ligand

>  <RI>
0

>  <Rbt.Current_Directory>
/home/itssahil/PROJECTS/Mol_Feturizer/New_Systems/rnas/3GX6

>  <Rbt.Executable>
rbdock ($Id: //depot/dev/client3/rdock/2013.1/src/exe/rbdock.cxx#4 $)

>  <Rbt.Library>
libRbt.so (2013.1, Build901 2013/11/27)

>  <Rbt.Parameter_File>
/export/apps/rDock/src/rDock_2013.1_src/data/scripts/dock_solv.prm

>  <Rbt.Receptor>
prm/pocket_docking_5.prm

>  <SCORE>
-20.4357

>  <SCORE.INTER>
-10.3647

>  <SCORE.INTER.CONST>
1

>  <SCORE.INTER.POLAR>
0

>  <SCORE.INTER.ROT>
7

>  <SCORE.INTER.SOLV>
12.3397

>  <SCORE.INTER.VDW>
-19.2897

>  <SCORE.INTER.norm>
-0.383879

>  <SCORE.INTRA>
-10.0709

>  <SCORE.INTRA.DIHEDRAL>
-9.86308

>  <SCORE.INTRA.DIHEDRAL.0>
15.0182

>  <SCORE.INTRA.POLAR>
0

>  <SCORE.INTRA.POLAR.0>
0

>  <SCORE.INTRA.REPUL>
0

>  <SCORE.INTRA.REPUL.0>
0

>  <SCORE.INTRA.SOLV>
-1.48553

>  <SCORE.INTRA.SOLV.lig_0>
-47.9129

>  <SCORE.INTRA.VDW>
-4.39664

>  <SCORE.INTRA.VDW.0>
2.00851

>  <SCORE.INTRA.norm>
-0.372998

>  <SCORE.RESTR>
0

>  <SCORE.RESTR.CAVITY>
0

>  <SCORE.RESTR.norm>
0

>  <SCORE.SYSTEM>
0

>  <SCORE.SYSTEM.CONST>
0

>  <SCORE.SYSTEM.DIHEDRAL>
0

>  <SCORE.SYSTEM.SOLV>
0

>  <SCORE.SYSTEM.norm>
0

>  <SCORE.heavy>
27

>  <SCORE.norm>
-0.756877

>  <RMSD>
5.652

$$$$
ligand
 OpenBabel11021811483D
libRbt.so/2013.1/901 2013/11/27
 27 29  0  0  0  0  0  0  0  0999 V2000
  -14.3206   -3.2425   31.9096 N   0  0  0  0  0  0  0  0  0  0  0  0
  -14.9887   -2.6084   30.7763 C   0  0  2  0  0  0  0  0  0  0  0  0
  -15.9350   -1.4969   31.2224 C   0  0  0  0  0  0  0  0  0  0  0  0
  -17.1100   -1.4728   30.8494 O   0  0  0  0  0  0  0  0  0  0  0  0
  -15.7125   -3.6445   29.9215 C   0  0  0  0  0  0  0  0  0  0  0  0
  -16.8165   -4.3768   30.6685 C   0  0  0  0  0  0  0  0  0  0  0  0
  -17.5616   -5.7323   29.7285 S   0  0  2  0  0  0  0  0  0  0  0  0
  -18.4873   -4.7987   28.4843 C   0  0  0  0  0  0  0  0  0  0  0  0
  -18.8910   -6.2411   30.8520 C   0  0  0  0  0  0  0  0  0  0  0  0
  -18.3070   -7.0878   31.9737 C   0  0  1  0  0  0  0  0  0  0  0  0
  -17.4910   -8.0811   31.3999 O   0  0  0  0  0  0  0  0  0  0  0  0
  -17.3951   -6.3585   32.9425 C   0  0  1  0  0  0  0  0  0  0  0  0
  -18.1034   -5.9512   34.0919 O   0  0  0  0  0  0  0  0  0  0  0  0
  -16.3717   -7.4140   33.3093 C   0  0  1  0  0  0  0  0  0  0  0  0
  -16.6473   -7.8672   34.6117 O   0  0  0  0  0  0  0  0  0  0  0  0
  -16.5486   -8.5614   32.3240 C   0  0  2  0  0  0  0  0  0  0  0  0
  -15.5387   -0.5965   31.9627 O   0  0  0  0  0  0  0  0  0  0  0  0
  -14.1869  -10.0854   27.8659 N   0  0  0  0  0  0  0  0  0  0  0  0
  -15.5402  -10.0042   28.1283 C   0  0  0  0  0  0  0  0  0  0  0  0
  -15.9930   -9.5830   29.3644 N   0  0  0  0  0  0  0  0  0  0  0  0
  -15.1123   -9.2484   30.3372 C   0  0  0  0  0  0  0  0  0  0  0  0
  -13.7469   -9.3156   30.0886 C   0  0  0  0  0  0  0  0  0  0  0  0
  -13.2848   -9.7408   28.8490 C   0  0  0  0  0  0  0  0  0  0  0  0
  -11.9769   -9.8142   28.6143 N   0  0  0  0  0  0  0  0  0  0  0  0
  -13.1022   -8.9253   31.2091 N   0  0  0  0  0  0  0  0  0  0  0  0
  -14.0223   -8.5989   32.1469 C   0  0  0  0  0  0  0  0  0  0  0  0
  -15.2737   -8.7924   31.6242 N   0  0  0  0  0  0  0  0  0  0  0  0
  2  1  1  1  0  0  0
  2  3  1  0  0  0  0
  2  5  1  0  0  0  0
  3  4  1  0  0  0  0
  3 17  1  0  0  0  0
  5  6  1  0  0  0  0
  7  6  1  1  0  0  0
  7  8  1  0  0  0  0
  7  9  1  0  0  0  0
 10  9  1  6  0  0  0
 10 11  1  0  0  0  0
 10 12  1  0  0  0  0
 11 16  1  0  0  0  0
 12 13  1  1  0  0  0
 12 14  1  0  0  0  0
 14 15  1  1  0  0  0
 14 16  1  0  0  0  0
 16 27  1  6  0  0  0
 18 19  2  0  0  0  0
 18 23  1  0  0  0  0
 19 20  1  0  0  0  0
 20 21  2  0  0  0  0
 21 22  1  0  0  0  0
 21 27  1  0  0  0  0
 22 23  2  0  0  0  0
 22 25  1  0  0  0  0
 23 24  1  0  0  0  0
 25 26  2  0  0  0  0
 26 27  1  0  0  0  0
M  END
>  <CHROM.1>
-127.76624643,62.24201481,-173.62400962,-71.32581625,-78.34523952,-49.32090496
-35.65052878,-16.01066827,-6.51784307,30.92305218,-2.05722659,-0.86689369
2.97200306

>  <Name>
ligand

>  <RI>
0

>  <Rbt.Current_Directory>
/home/itssahil/PROJECTS/Mol_Feturizer/New_Systems/rnas/3GX6

>  <Rbt.Executable>
rbdock ($Id: //depot/dev/client3/rdock/2013.1/src/exe/rbdock.cxx#4 $)

>  <Rbt.Library>
libRbt.so (2013.1, Build901 2013/11/27)

>  <Rbt.Parameter_File>
/export/apps/rDock/src/rDock_2013.1_src/data/scripts/dock_solv.prm

>  <Rbt.Receptor>
prm/pocket_docking_5.prm

>  <SCORE>
-21.0803

>  <SCORE.INTER>
-12.0384

>  <SCORE.INTER.CONST>
1

>  <SCORE.INTER.POLAR>
0

>  <SCORE.INTER.ROT>
7

>  <SCORE.INTER.SOLV>
13.2381

>  <SCORE.INTER.VDW>
-20.705

>  <SCORE.INTER.norm>
-0.445866

>  <SCORE.INTRA>
-9.0419

>  <SCORE.INTRA.DIHEDRAL>
-10.9589

>  <SCORE.INTRA.DIHEDRAL.0>
15.0182

>  <SCORE.INTRA.POLAR>
0

>  <SCORE.INTRA.POLAR.0>
0

>  <SCORE.INTRA.REPUL>
0

>  <SCORE.INTRA.REPUL.0>
0

>  <SCORE.INTRA.SOLV>
-0.781212

>  <SCORE.INTRA.SOLV.lig_0>
-47.9129

>  <SCORE.INTRA.VDW>
-3.17186

>  <SCORE.INTRA.VDW.0>
2.00851

>  <SCORE.INTRA.norm>
-0.334885

>  <SCORE.RESTR>
0

>  <SCORE.RESTR.CAVITY>
0

>  <SCORE.RESTR.norm>
0

>  <SCORE.SYSTEM>
0

>  <SCORE.SYSTEM.CONST>
0

>  <SCORE.SYSTEM.DIHEDRAL>
0

>  <SCORE.SYSTEM.SOLV>
0

>  <SCORE.SYSTEM.norm>
0

>  <SCORE.heavy>
27

>  <SCORE.norm>
-0.780752

>  <RMSD>
5.660

$$$$
ligand
 OpenBabel11021811483D
libRbt.so/2013.1/901 2013/11/27
 27 29  0  0  0  0  0  0  0  0999 V2000
  -16.0744   -0.8158   31.2887 N   0  0  0  0  0  0  0  0  0  0  0  0
  -15.7011   -1.9181   32.1710 C   0  0  2  0  0  0  0  0  0  0  0  0
  -14.1867   -2.0432   32.3163 C   0  0  0  0  0  0  0  0  0  0  0  0
  -13.6794   -2.4632   33.3587 O   0  0  0  0  0  0  0  0  0  0  0  0
  -16.3242   -3.2284   31.6991 C   0  0  0  0  0  0  0  0  0  0  0  0
  -16.1160   -4.3792   32.6714 C   0  0  0  0  0  0  0  0  0  0  0  0
  -16.5002   -6.0049   31.9744 S   0  0  2  0  0  0  0  0  0  0  0  0
  -18.2251   -5.7533   31.4865 C   0  0  0  0  0  0  0  0  0  0  0  0
  -16.6985   -6.9892   33.4844 C   0  0  0  0  0  0  0  0  0  0  0  0
  -15.4341   -7.8007   33.7273 C   0  0  1  0  0  0  0  0  0  0  0  0
  -15.2077   -8.6153   32.6018 O   0  0  0  0  0  0  0  0  0  0  0  0
  -14.1558   -6.9977   33.8797 C   0  0  1  0  0  0  0  0  0  0  0  0
  -13.8572   -6.7792   35.2404 O   0  0  0  0  0  0  0  0  0  0  0  0
  -13.1095   -7.8989   33.2560 C   0  0  1  0  0  0  0  0  0  0  0  0
  -12.3421   -8.4696   34.2871 O   0  0  0  0  0  0  0  0  0  0  0  0
  -13.8588   -8.9969   32.5133 C   0  0  2  0  0  0  0  0  0  0  0  0
  -13.4400   -1.7205   31.3922 O   0  0  0  0  0  0  0  0  0  0  0  0
  -15.2556   -9.9525   27.5221 N   0  0  0  0  0  0  0  0  0  0  0  0
  -16.0125  -10.1178   28.6652 C   0  0  0  0  0  0  0  0  0  0  0  0
  -15.4854   -9.8187   29.9073 N   0  0  0  0  0  0  0  0  0  0  0  0
  -14.2150   -9.3630   30.0190 C   0  0  0  0  0  0  0  0  0  0  0  0
  -13.4413   -9.1822   28.8792 C   0  0  0  0  0  0  0  0  0  0  0  0
  -13.9641   -9.4835   27.6275 C   0  0  0  0  0  0  0  0  0  0  0  0
  -13.2195   -9.3193   26.5367 N   0  0  0  0  0  0  0  0  0  0  0  0
  -12.2342   -8.7175   29.2674 N   0  0  0  0  0  0  0  0  0  0  0  0
  -12.2339   -8.5851   30.6147 C   0  0  0  0  0  0  0  0  0  0  0  0
  -13.4534   -8.9800   31.0977 N   0  0  0  0  0  0  0  0  0  0  0  0
  2  1  1  6  0  0  0
  2  3  1  0  0  0  0
  2  5  1  0  0  0  0
  3  4  1  0  0  0  0
  3 17  1  0  0  0  0
  5  6  1  0  0  0  0
  7  6  1  1  0  0  0
  7  8  1  0  0  0  0
  7  9  1  0  0  0  0
 10  9  1  6  0  0  0
 10 11  1  0  0  0  0
 10 12  1  0  0  0  0
 11 16  1  0  0  0  0
 12 13  1  1  0  0  0
 12 14  1  0  0  0  0
 14 15  1  1  0  0  0
 14 16  1  0  0  0  0
 16 27  1  6  0  0  0
 18 19  2  0  0  0  0
 18 23  1  0  0  0  0
 19 20  1  0  0  0  0
 20 21  2  0  0  0  0
 21 22  1  0  0  0  0
 21 27  1  0  0  0  0
 22 23  2  0  0  0  0
 22 25  1  0  0  0  0
 23 24  1  0  0  0  0
 25 26  2  0  0  0  0
 26 27  1  0  0  0  0
M  END
>  <CHROM.1>
148.90740420,-172.79589718,-166.60658246,-57.65258626,-101.08284582,-58.08420889
-37.78129063,-14.70296046,-6.71847102,31.49704564,2.18282662,-1.28369835
1.04813136

>  <Name>
ligand

>  <RI>
0

>  <Rbt.Current_Directory>
/home/itssahil/PROJECTS/Mol_Feturizer/New_Systems/rnas/3GX6

>  <Rbt.Executable>
rbdock ($Id: //depot/dev/client3/rdock/2013.1/src/exe/rbdock.cxx#4 $)

>  <Rbt.Library>
libRbt.so (2013.1, Build901 2013/11/27)

>  <Rbt.Parameter_File>
/export/apps/rDock/src/rDock_2013.1_src/data/scripts/dock_solv.prm

>  <Rbt.Receptor>
prm/pocket_docking_3.prm

>  <SCORE>
-20.6138

>  <SCORE.INTER>
-11.8444

>  <SCORE.INTER.CONST>
1

>  <SCORE.INTER.POLAR>
0

>  <SCORE.INTER.ROT>
7

>  <SCORE.INTER.SOLV>
12.9377

>  <SCORE.INTER.VDW>
-20.4755

>  <SCORE.INTER.norm>
-0.438681

>  <SCORE.INTRA>
-8.78218

>  <SCORE.INTRA.DIHEDRAL>
-8.1977

>  <SCORE.INTRA.DIHEDRAL.0>
15.0182

>  <SCORE.INTRA.POLAR>
0

>  <SCORE.INTRA.POLAR.0>
0

>  <SCORE.INTRA.REPUL>
0

>  <SCORE.INTRA.REPUL.0>
0

>  <SCORE.INTRA.SOLV>
-1.56122

>  <SCORE.INTRA.SOLV.lig_0>
-47.9129

>  <SCORE.INTRA.VDW>
-3.90272

>  <SCORE.INTRA.VDW.0>
2.00851

>  <SCORE.INTRA.norm>
-0.325266

>  <SCORE.RESTR>
0.0127273

>  <SCORE.RESTR.CAVITY>
0.0127273

>  <SCORE.RESTR.norm>
0.000471382

>  <SCORE.SYSTEM>
0

>  <SCORE.SYSTEM.CONST>
0

>  <SCORE.SYSTEM.DIHEDRAL>
0

>  <SCORE.SYSTEM.SOLV>
0

>  <SCORE.SYSTEM.norm>
0

>  <SCORE.heavy>
27

>  <SCORE.norm>
-0.763476

>  <RMSD>
5.664

$$$$
ligand
 OpenBabel11021811483D
libRbt.so/2013.1/901 2013/11/27
 27 29  0  0  0  0  0  0  0  0999 V2000
  -16.5232   -4.1486   30.9940 N   0  0  0  0  0  0  0  0  0  0  0  0
  -16.3917   -2.9724   31.8496 C   0  0  2  0  0  0  0  0  0  0  0  0
  -16.6931   -1.6815   31.0929 C   0  0  0  0  0  0  0  0  0  0  0  0
  -16.5853   -0.5821   31.6408 O   0  0  0  0  0  0  0  0  0  0  0  0
  -15.0135   -2.9252   32.5024 C   0  0  0  0  0  0  0  0  0  0  0  0
  -14.5974   -4.2476   33.1279 C   0  0  0  0  0  0  0  0  0  0  0  0
  -13.0104   -4.1796   33.9956 S   0  0  2  0  0  0  0  0  0  0  0  0
  -11.9651   -3.4493   32.7109 C   0  0  0  0  0  0  0  0  0  0  0  0
  -12.5018   -5.9186   33.9209 C   0  0  0  0  0  0  0  0  0  0  0  0
  -13.7346   -6.8082   33.9927 C   0  0  1  0  0  0  0  0  0  0  0  0
  -14.2388   -6.9723   32.6887 O   0  0  0  0  0  0  0  0  0  0  0  0
  -13.4980   -8.2218   34.4904 C   0  0  1  0  0  0  0  0  0  0  0  0
  -13.7748   -8.3235   35.8694 O   0  0  0  0  0  0  0  0  0  0  0  0
  -14.5004   -9.0357   33.6975 C   0  0  1  0  0  0  0  0  0  0  0  0
  -15.5588   -9.3929   34.5519 O   0  0  0  0  0  0  0  0  0  0  0  0
  -15.0248   -8.1322   32.5896 C   0  0  2  0  0  0  0  0  0  0  0  0
  -17.0562   -1.7148   29.9170 O   0  0  0  0  0  0  0  0  0  0  0  0
  -11.8124   -8.4990   28.4278 N   0  0  0  0  0  0  0  0  0  0  0  0
  -11.6717   -7.6993   29.5447 C   0  0  0  0  0  0  0  0  0  0  0  0
  -12.6178   -7.7249   30.5519 N   0  0  0  0  0  0  0  0  0  0  0  0
  -13.6996   -8.5335   30.4530 C   0  0  0  0  0  0  0  0  0  0  0  0
  -13.8537   -9.3515   29.3405 C   0  0  0  0  0  0  0  0  0  0  0  0
  -12.9077   -9.3288   28.3230 C   0  0  0  0  0  0  0  0  0  0  0  0
  -13.0604  -10.1053   27.2530 N   0  0  0  0  0  0  0  0  0  0  0  0
  -14.9979  -10.0516   29.4965 N   0  0  0  0  0  0  0  0  0  0  0  0
  -15.5568   -9.7100   30.6812 C   0  0  0  0  0  0  0  0  0  0  0  0
  -14.7658   -8.7706   31.2882 N   0  0  0  0  0  0  0  0  0  0  0  0
  2  1  1  6  0  0  0
  2  3  1  0  0  0  0
  2  5  1  0  0  0  0
  3  4  1  0  0  0  0
  3 17  1  0  0  0  0
  5  6  1  0  0  0  0
  7  6  1  6  0  0  0
  7  8  1  0  0  0  0
  7  9  1  0  0  0  0
 10  9  1  6  0  0  0
 10 11  1  0  0  0  0
 10 12  1  0  0  0  0
 11 16  1  0  0  0  0
 12 13  1  1  0  0  0
 12 14  1  0  0  0  0
 14 15  1  1  0  0  0
 14 16  1  0  0  0  0
 16 27  1  6  0  0  0
 18 19  2  0  0  0  0
 18 23  1  0  0  0  0
 19 20  1  0  0  0  0
 20 21  2  0  0  0  0
 21 22  1  0  0  0  0
 21 27  1  0  0  0  0
 22 23  2  0  0  0  0
 22 25  1  0  0  0  0
 23 24  1  0  0  0  0
 25 26  2  0  0  0  0
 26 27  1  0  0  0  0
M  END
>  <CHROM.1>
-177.32793414,-47.80666639,-176.39251193,-51.65577586,-33.48306691,86.49449238
16.79245528,-14.24889560,-6.41902036,31.84245034,2.57789663,-1.26972293,1.24662374

>  <Name>
ligand

>  <RI>
0

>  <Rbt.Current_Directory>
/home/itssahil/PROJECTS/Mol_Feturizer/New_Systems/rnas/3GX6

>  <Rbt.Executable>
rbdock ($Id: //depot/dev/client3/rdock/2013.1/src/exe/rbdock.cxx#4 $)

>  <Rbt.Library>
libRbt.so (2013.1, Build901 2013/11/27)

>  <Rbt.Parameter_File>
/export/apps/rDock/src/rDock_2013.1_src/data/scripts/dock_solv.prm

>  <Rbt.Receptor>
prm/pocket_docking_2.prm

>  <SCORE>
-19.9835

>  <SCORE.INTER>
-15.9393

>  <SCORE.INTER.CONST>
1

>  <SCORE.INTER.POLAR>
0

>  <SCORE.INTER.ROT>
7

>  <SCORE.INTER.SOLV>
10.8565

>  <SCORE.INTER.VDW>
-22.5117

>  <SCORE.INTER.norm>
-0.590343

>  <SCORE.INTRA>
-4.96746

>  <SCORE.INTRA.DIHEDRAL>
-5.59039

>  <SCORE.INTRA.DIHEDRAL.0>
15.0182

>  <SCORE.INTRA.POLAR>
0

>  <SCORE.INTRA.POLAR.0>
0

>  <SCORE.INTRA.REPUL>
0

>  <SCORE.INTRA.REPUL.0>
0

>  <SCORE.INTRA.SOLV>
-0.641737

>  <SCORE.INTRA.SOLV.lig_0>
-47.9129

>  <SCORE.INTRA.VDW>
-1.8514

>  <SCORE.INTRA.VDW.0>
2.00851

>  <SCORE.INTRA.norm>
-0.18398

>  <SCORE.RESTR>
0.923188

>  <SCORE.RESTR.CAVITY>
0.923188

>  <SCORE.RESTR.norm>
0.0341922

>  <SCORE.SYSTEM>
0

>  <SCORE.SYSTEM.CONST>
0

>  <SCORE.SYSTEM.DIHEDRAL>
0

>  <SCORE.SYSTEM.SOLV>
0

>  <SCORE.SYSTEM.norm>
0

>  <SCORE.heavy>
27

>  <SCORE.norm>
-0.740131

>  <RMSD>
5.667

$$$$
ligand
 OpenBabel11021811483D
libRbt.so/2013.1/901 2013/11/27
 27 29  0  0  0  0  0  0  0  0999 V2000
  -17.8235   -0.9070   31.7247 N   0  0  0  0  0  0  0  0  0  0  0  0
  -16.7203   -1.8123   31.4143 C   0  0  2  0  0  0  0  0  0  0  0  0
  -17.0301   -3.2492   31.8257 C   0  0  0  0  0  0  0  0  0  0  0  0
  -17.2133   -3.5477   33.0080 O   0  0  0  0  0  0  0  0  0  0  0  0
  -15.4199   -1.3220   32.0439 C   0  0  0  0  0  0  0  0  0  0  0  0
  -14.2299   -2.2209   31.7459 C   0  0  0  0  0  0  0  0  0  0  0  0
  -13.9851   -3.5383   32.9629 S   0  0  2  0  0  0  0  0  0  0  0  0
  -12.1770   -3.5931   33.0278 C   0  0  0  0  0  0  0  0  0  0  0  0
  -14.3488   -5.0053   31.9608 C   0  0  0  0  0  0  0  0  0  0  0  0
  -13.8867   -6.2508   32.7035 C   0  0  1  0  0  0  0  0  0  0  0  0
  -14.7965   -6.5073   33.7466 O   0  0  0  0  0  0  0  0  0  0  0  0
  -13.8672   -7.5321   31.8912 C   0  0  1  0  0  0  0  0  0  0  0  0
  -12.5776   -7.7849   31.3797 O   0  0  0  0  0  0  0  0  0  0  0  0
  -14.2383   -8.5892   32.9114 C   0  0  1  0  0  0  0  0  0  0  0  0
  -13.0792   -9.3129   33.2439 O   0  0  0  0  0  0  0  0  0  0  0  0
  -14.7489   -7.8539   34.1431 C   0  0  2  0  0  0  0  0  0  0  0  0
  -17.0979   -4.1420   30.9807 O   0  0  0  0  0  0  0  0  0  0  0  0
  -19.8902   -7.3014   33.1248 N   0  0  0  0  0  0  0  0  0  0  0  0
  -18.8326   -6.6076   32.5706 C   0  0  0  0  0  0  0  0  0  0  0  0
  -17.5336   -6.8795   32.9566 N   0  0  0  0  0  0  0  0  0  0  0  0
  -17.2821   -7.8289   33.8889 C   0  0  0  0  0  0  0  0  0  0  0  0
  -18.3329   -8.5431   34.4513 C   0  0  0  0  0  0  0  0  0  0  0  0
  -19.6415   -8.2730   34.0698 C   0  0  0  0  0  0  0  0  0  0  0  0
  -20.6486   -8.9506   34.6156 N   0  0  0  0  0  0  0  0  0  0  0  0
  -17.8111   -9.4214   35.3344 N   0  0  0  0  0  0  0  0  0  0  0  0
  -16.4636   -9.2915   35.3298 C   0  0  0  0  0  0  0  0  0  0  0  0
  -16.1175   -8.3094   34.4396 N   0  0  0  0  0  0  0  0  0  0  0  0
  2  1  1  1  0  0  0
  2  3  1  0  0  0  0
  2  5  1  0  0  0  0
  3  4  1  0  0  0  0
  3 17  1  0  0  0  0
  5  6  1  0  0  0  0
  7  6  1  6  0  0  0
  7  8  1  0  0  0  0
  7  9  1  0  0  0  0
 10  9  1  6  0  0  0
 10 11  1  0  0  0  0
 10 12  1  0  0  0  0
 11 16  1  0  0  0  0
 12 13  1  1  0  0  0
 12 14  1  0  0  0  0
 14 15  1  1  0  0  0
 14 16  1  0  0  0  0
 16 27  1  6  0  0  0
 18 19  2  0  0  0  0
 18 23  1  0  0  0  0
 19 20  1  0  0  0  0
 20 21  2  0  0  0  0
 21 22  1  0  0  0  0
 21 27  1  0  0  0  0
 22 23  2  0  0  0  0
 22 25  1  0  0  0  0
 23 24  1  0  0  0  0
 25 26  2  0  0  0  0
 26 27  1  0  0  0  0
M  END
>  <CHROM.1>
-63.17146149,-179.57086578,-89.90836946,-143.08612923,166.78379536,74.67528104
28.03479587,-15.96325901,-5.93334423,32.98623953,1.19242792,0.11304324,-0.29606161

>  <Name>
ligand

>  <RI>
0

>  <Rbt.Current_Directory>
/home/itssahil/PROJECTS/Mol_Feturizer/New_Systems/rnas/3GX6

>  <Rbt.Executable>
rbdock ($Id: //depot/dev/client3/rdock/2013.1/src/exe/rbdock.cxx#4 $)

>  <Rbt.Library>
libRbt.so (2013.1, Build901 2013/11/27)

>  <Rbt.Parameter_File>
/export/apps/rDock/src/rDock_2013.1_src/data/scripts/dock_solv.prm

>  <Rbt.Receptor>
prm/pocket_docking_7.prm

>  <SCORE>
-26.1171

>  <SCORE.INTER>
-16.9073

>  <SCORE.INTER.CONST>
1

>  <SCORE.INTER.POLAR>
0

>  <SCORE.INTER.ROT>
7

>  <SCORE.INTER.SOLV>
17.7776

>  <SCORE.INTER.VDW>
-25.464

>  <SCORE.INTER.norm>
-0.626195

>  <SCORE.INTRA>
-9.20981

>  <SCORE.INTRA.DIHEDRAL>
-4.51583

>  <SCORE.INTRA.DIHEDRAL.0>
15.0182

>  <SCORE.INTRA.POLAR>
0

>  <SCORE.INTRA.POLAR.0>
0

>  <SCORE.INTRA.REPUL>
0

>  <SCORE.INTRA.REPUL.0>
0

>  <SCORE.INTRA.SOLV>
-1.6868

>  <SCORE.INTRA.SOLV.lig_0>
-47.9129

>  <SCORE.INTRA.VDW>
-6.1085

>  <SCORE.INTRA.VDW.0>
2.00851

>  <SCORE.INTRA.norm>
-0.341104

>  <SCORE.RESTR>
0

>  <SCORE.RESTR.CAVITY>
0

>  <SCORE.RESTR.norm>
0

>  <SCORE.SYSTEM>
0

>  <SCORE.SYSTEM.CONST>
0

>  <SCORE.SYSTEM.DIHEDRAL>
0

>  <SCORE.SYSTEM.SOLV>
0

>  <SCORE.SYSTEM.norm>
0

>  <SCORE.heavy>
27

>  <SCORE.norm>
-0.967299

>  <RMSD>
5.676

$$$$
ligand
 OpenBabel11021811483D
libRbt.so/2013.1/901 2013/11/27
 27 29  0  0  0  0  0  0  0  0999 V2000
  -17.2949   -6.9800   31.4383 N   0  0  0  0  0  0  0  0  0  0  0  0
  -17.6657   -7.9274   32.4862 C   0  0  2  0  0  0  0  0  0  0  0  0
  -18.3755   -7.2401   33.6497 C   0  0  0  0  0  0  0  0  0  0  0  0
  -19.0837   -7.8794   34.4308 O   0  0  0  0  0  0  0  0  0  0  0  0
  -16.4492   -8.7144   32.9641 C   0  0  0  0  0  0  0  0  0  0  0  0
  -15.3950   -7.8463   33.6335 C   0  0  0  0  0  0  0  0  0  0  0  0
  -14.0485   -8.7864   34.3948 S   0  0  2  0  0  0  0  0  0  0  0  0
  -14.8773   -9.4010   35.8820 C   0  0  0  0  0  0  0  0  0  0  0  0
  -13.0371   -7.4464   35.0802 C   0  0  0  0  0  0  0  0  0  0  0  0
  -12.5618   -6.5444   33.9503 C   0  0  1  0  0  0  0  0  0  0  0  0
  -12.3860   -7.3335   32.7979 O   0  0  0  0  0  0  0  0  0  0  0  0
  -13.5309   -5.4578   33.5236 C   0  0  1  0  0  0  0  0  0  0  0  0
  -13.2279   -4.2350   34.1574 O   0  0  0  0  0  0  0  0  0  0  0  0
  -13.2843   -5.3458   32.0328 C   0  0  1  0  0  0  0  0  0  0  0  0
  -12.5569   -4.1669   31.7895 O   0  0  0  0  0  0  0  0  0  0  0  0
  -12.4455   -6.5519   31.6324 C   0  0  2  0  0  0  0  0  0  0  0  0
  -18.2573   -6.0277   33.8275 O   0  0  0  0  0  0  0  0  0  0  0  0
  -14.1071   -6.6654   26.6322 N   0  0  0  0  0  0  0  0  0  0  0  0
  -13.3967   -5.6685   27.2715 C   0  0  0  0  0  0  0  0  0  0  0  0
  -13.0403   -5.8003   28.6003 N   0  0  0  0  0  0  0  0  0  0  0  0
  -13.3884   -6.9097   29.2945 C   0  0  0  0  0  0  0  0  0  0  0  0
  -14.0957   -7.9269   28.6657 C   0  0  0  0  0  0  0  0  0  0  0  0
  -14.4597   -7.7998   27.3307 C   0  0  0  0  0  0  0  0  0  0  0  0
  -15.1455   -8.7700   26.7311 N   0  0  0  0  0  0  0  0  0  0  0  0
  -14.3041   -8.9074   29.5706 N   0  0  0  0  0  0  0  0  0  0  0  0
  -13.7336   -8.5431   30.7430 C   0  0  0  0  0  0  0  0  0  0  0  0
  -13.1609   -7.3080   30.5907 N   0  0  0  0  0  0  0  0  0  0  0  0
  2  1  1  6  0  0  0
  2  3  1  0  0  0  0
  2  5  1  0  0  0  0
  3  4  1  0  0  0  0
  3 17  1  0  0  0  0
  5  6  1  0  0  0  0
  7  6  1  6  0  0  0
  7  8  1  0  0  0  0
  7  9  1  0  0  0  0
 10  9  1  1  0  0  0
 10 11  1  0  0  0  0
 10 12  1  0  0  0  0
 11 16  1  0  0  0  0
 12 13  1  1  0  0  0
 12 14  1  0  0  0  0
 14 15  1  1  0  0  0
 14 16  1  0  0  0  0
 16 27  1  6  0  0  0
 18 19  2  0  0  0  0
 18 23  1  0  0  0  0
 19 20  1  0  0  0  0
 20 21  2  0  0  0  0
 21 22  1  0  0  0  0
 21 27  1  0  0  0  0
 22 23  2  0  0  0  0
 22 25  1  0  0  0  0
 23 24  1  0  0  0  0
 25 26  2  0  0  0  0
 26 27  1  0  0  0  0
M  END
>  <CHROM.1>
159.46297186,64.31226915,172.51701394,-75.65820242,-60.88009601,-32.14768141
-177.60953386,-14.56580072,-7.17331673,31.83370801,1.90263963,0.38563679
1.53524908

>  <Name>
ligand

>  <RI>
0

>  <Rbt.Current_Directory>
/home/itssahil/PROJECTS/Mol_Feturizer/New_Systems/rnas/3GX6

>  <Rbt.Executable>
rbdock ($Id: //depot/dev/client3/rdock/2013.1/src/exe/rbdock.cxx#4 $)

>  <Rbt.Library>
libRbt.so (2013.1, Build901 2013/11/27)

>  <Rbt.Parameter_File>
/export/apps/rDock/src/rDock_2013.1_src/data/scripts/dock_solv.prm

>  <Rbt.Receptor>
prm/pocket_docking_5.prm

>  <SCORE>
-21.4142

>  <SCORE.INTER>
-12.1676

>  <SCORE.INTER.CONST>
1

>  <SCORE.INTER.POLAR>
0

>  <SCORE.INTER.ROT>
7

>  <SCORE.INTER.SOLV>
7.57367

>  <SCORE.INTER.VDW>
-18.9029

>  <SCORE.INTER.norm>
-0.450651

>  <SCORE.INTRA>
-9.2466

>  <SCORE.INTRA.DIHEDRAL>
-8.87379

>  <SCORE.INTRA.DIHEDRAL.0>
15.0182

>  <SCORE.INTRA.POLAR>
0

>  <SCORE.INTRA.POLAR.0>
0

>  <SCORE.INTRA.REPUL>
0

>  <SCORE.INTRA.REPUL.0>
0

>  <SCORE.INTRA.SOLV>
-0.597284

>  <SCORE.INTRA.SOLV.lig_0>
-47.9129

>  <SCORE.INTRA.VDW>
-4.51106

>  <SCORE.INTRA.VDW.0>
2.00851

>  <SCORE.INTRA.norm>
-0.342466

>  <SCORE.RESTR>
0

>  <SCORE.RESTR.CAVITY>
0

>  <SCORE.RESTR.norm>
0

>  <SCORE.SYSTEM>
0

>  <SCORE.SYSTEM.CONST>
0

>  <SCORE.SYSTEM.DIHEDRAL>
0

>  <SCORE.SYSTEM.SOLV>
0

>  <SCORE.SYSTEM.norm>
0

>  <SCORE.heavy>
27

>  <SCORE.norm>
-0.793118

>  <RMSD>
5.678

$$$$
ligand
 OpenBabel11021811483D
libRbt.so/2013.1/901 2013/11/27
 27 29  0  0  0  0  0  0  0  0999 V2000
  -17.0392   -3.1102   29.4172 N   0  0  0  0  0  0  0  0  0  0  0  0
  -16.3362   -3.7076   30.5494 C   0  0  2  0  0  0  0  0  0  0  0  0
  -16.7233   -3.0496   31.8712 C   0  0  0  0  0  0  0  0  0  0  0  0
  -17.1816   -3.7141   32.8033 O   0  0  0  0  0  0  0  0  0  0  0  0
  -14.8263   -3.6729   30.3326 C   0  0  0  0  0  0  0  0  0  0  0  0
  -14.0681   -4.6508   31.2169 C   0  0  0  0  0  0  0  0  0  0  0  0
  -14.1095   -4.2295   32.9768 S   0  0  2  0  0  0  0  0  0  0  0  0
  -13.0321   -2.7750   32.9913 C   0  0  0  0  0  0  0  0  0  0  0  0
  -13.0057   -5.4956   33.6603 C   0  0  0  0  0  0  0  0  0  0  0  0
  -13.7924   -6.7771   33.8951 C   0  0  1  0  0  0  0  0  0  0  0  0
  -14.5123   -7.0757   32.7229 O   0  0  0  0  0  0  0  0  0  0  0  0
  -12.9627   -8.0195   34.1595 C   0  0  1  0  0  0  0  0  0  0  0  0
  -12.8377   -8.2568   35.5440 O   0  0  0  0  0  0  0  0  0  0  0  0
  -13.7805   -9.1204   33.5151 C   0  0  1  0  0  0  0  0  0  0  0  0
  -14.4023   -9.8663   34.5324 O   0  0  0  0  0  0  0  0  0  0  0  0
  -14.8429   -8.4396   32.6627 C   0  0  2  0  0  0  0  0  0  0  0  0
  -16.5890   -1.8361   32.0299 O   0  0  0  0  0  0  0  0  0  0  0  0
  -11.5774   -9.3570   28.6290 N   0  0  0  0  0  0  0  0  0  0  0  0
  -11.2646   -8.8812   29.8871 C   0  0  0  0  0  0  0  0  0  0  0  0
  -12.2536   -8.6946   30.8344 N   0  0  0  0  0  0  0  0  0  0  0  0
  -13.5453   -8.9725   30.5379 C   0  0  0  0  0  0  0  0  0  0  0  0
  -13.8779   -9.4602   29.2801 C   0  0  0  0  0  0  0  0  0  0  0  0
  -12.8890   -9.6476   28.3220 C   0  0  0  0  0  0  0  0  0  0  0  0
  -13.2090  -10.1057   27.1141 N   0  0  0  0  0  0  0  0  0  0  0  0
  -15.2133   -9.6585   29.2524 N   0  0  0  0  0  0  0  0  0  0  0  0
  -15.7257   -9.3262   30.4606 C   0  0  0  0  0  0  0  0  0  0  0  0
  -14.7066   -8.8993   31.2704 N   0  0  0  0  0  0  0  0  0  0  0  0
  2  1  1  6  0  0  0
  2  3  1  0  0  0  0
  2  5  1  0  0  0  0
  3  4  1  0  0  0  0
  3 17  1  0  0  0  0
  5  6  1  0  0  0  0
  7  6  1  6  0  0  0
  7  8  1  0  0  0  0
  7  9  1  0  0  0  0
 10  9  1  6  0  0  0
 10 11  1  0  0  0  0
 10 12  1  0  0  0  0
 11 16  1  0  0  0  0
 12 13  1  1  0  0  0
 12 14  1  0  0  0  0
 14 15  1  1  0  0  0
 14 16  1  0  0  0  0
 16 27  1  6  0  0  0
 18 19  2  0  0  0  0
 18 23  1  0  0  0  0
 19 20  1  0  0  0  0
 20 21  2  0  0  0  0
 21 22  1  0  0  0  0
 21 27  1  0  0  0  0
 22 23  2  0  0  0  0
 22 25  1  0  0  0  0
 23 24  1  0  0  0  0
 25 26  2  0  0  0  0
 26 27  1  0  0  0  0
M  END
>  <CHROM.1>
123.18189036,-161.27733306,-67.92121042,-71.29216048,-83.97539205,49.52456368
65.30485135,-14.25243040,-6.71952026,31.64860526,2.53436331,-1.15115784,1.20908290

>  <Name>
ligand

>  <RI>
0

>  <Rbt.Current_Directory>
/home/itssahil/PROJECTS/Mol_Feturizer/New_Systems/rnas/3GX6

>  <Rbt.Executable>
rbdock ($Id: //depot/dev/client3/rdock/2013.1/src/exe/rbdock.cxx#4 $)

>  <Rbt.Library>
libRbt.so (2013.1, Build901 2013/11/27)

>  <Rbt.Parameter_File>
/export/apps/rDock/src/rDock_2013.1_src/data/scripts/dock_solv.prm

>  <Rbt.Receptor>
prm/pocket_docking_3.prm

>  <SCORE>
-25.9788

>  <SCORE.INTER>
-15.2135

>  <SCORE.INTER.CONST>
1

>  <SCORE.INTER.POLAR>
0

>  <SCORE.INTER.ROT>
7

>  <SCORE.INTER.SOLV>
14.9113

>  <SCORE.INTER.VDW>
-23.3794

>  <SCORE.INTER.norm>
-0.563461

>  <SCORE.INTRA>
-10.7653

>  <SCORE.INTRA.DIHEDRAL>
-9.29055

>  <SCORE.INTRA.DIHEDRAL.0>
15.0182

>  <SCORE.INTRA.POLAR>
0

>  <SCORE.INTRA.POLAR.0>
0

>  <SCORE.INTRA.REPUL>
0

>  <SCORE.INTRA.REPUL.0>
0

>  <SCORE.INTRA.SOLV>
-1.51726

>  <SCORE.INTRA.SOLV.lig_0>
-47.9129

>  <SCORE.INTRA.VDW>
-5.3614

>  <SCORE.INTRA.VDW.0>
2.00851

>  <SCORE.INTRA.norm>
-0.398715

>  <SCORE.RESTR>
0

>  <SCORE.RESTR.CAVITY>
0

>  <SCORE.RESTR.norm>
0

>  <SCORE.SYSTEM>
0

>  <SCORE.SYSTEM.CONST>
0

>  <SCORE.SYSTEM.DIHEDRAL>
0

>  <SCORE.SYSTEM.SOLV>
0

>  <SCORE.SYSTEM.norm>
0

>  <SCORE.heavy>
27

>  <SCORE.norm>
-0.962176

>  <RMSD>
5.688

$$$$
ligand
 OpenBabel11021811483D
libRbt.so/2013.1/901 2013/11/27
 27 29  0  0  0  0  0  0  0  0999 V2000
  -13.8455   -6.2665   34.1151 N   0  0  0  0  0  0  0  0  0  0  0  0
  -14.1101   -7.6224   34.5889 C   0  0  2  0  0  0  0  0  0  0  0  0
  -13.7295   -7.7969   36.0568 C   0  0  0  0  0  0  0  0  0  0  0  0
  -14.3442   -8.5789   36.7855 O   0  0  0  0  0  0  0  0  0  0  0  0
  -13.4116   -8.6534   33.7073 C   0  0  0  0  0  0  0  0  0  0  0  0
  -14.1786   -8.9759   32.4342 C   0  0  0  0  0  0  0  0  0  0  0  0
  -14.2934   -7.5885   31.2775 S   0  0  2  0  0  0  0  0  0  0  0  0
  -15.8374   -6.8247   31.8335 C   0  0  0  0  0  0  0  0  0  0  0  0
  -14.8402   -8.4389   29.7721 C   0  0  0  0  0  0  0  0  0  0  0  0
  -14.8766   -7.4478   28.6177 C   0  0  1  0  0  0  0  0  0  0  0  0
  -15.8205   -6.4487   28.9217 O   0  0  0  0  0  0  0  0  0  0  0  0
  -13.5881   -6.6892   28.3608 C   0  0  1  0  0  0  0  0  0  0  0  0
  -12.8322   -7.3094   27.3446 O   0  0  0  0  0  0  0  0  0  0  0  0
  -14.0771   -5.3340   27.8914 C   0  0  1  0  0  0  0  0  0  0  0  0
  -13.8783   -5.2461   26.5019 O   0  0  0  0  0  0  0  0  0  0  0  0
  -15.5677   -5.2728   28.1962 C   0  0  2  0  0  0  0  0  0  0  0  0
  -12.8001   -7.1528   36.5437 O   0  0  0  0  0  0  0  0  0  0  0  0
  -13.6338   -1.9254   31.7782 N   0  0  0  0  0  0  0  0  0  0  0  0
  -12.9856   -2.9723   31.1530 C   0  0  0  0  0  0  0  0  0  0  0  0
  -13.6486   -3.7602   30.2312 N   0  0  0  0  0  0  0  0  0  0  0  0
  -14.9470   -3.5173   29.9327 C   0  0  0  0  0  0  0  0  0  0  0  0
  -15.6131   -2.4631   30.5453 C   0  0  0  0  0  0  0  0  0  0  0  0
  -14.9533   -1.6685   31.4750 C   0  0  0  0  0  0  0  0  0  0  0  0
  -15.5944   -0.6647   32.0688 N   0  0  0  0  0  0  0  0  0  0  0  0
  -16.8764   -2.4385   30.0689 N   0  0  0  0  0  0  0  0  0  0  0  0
  -17.0173   -3.4347   29.1631 C   0  0  0  0  0  0  0  0  0  0  0  0
  -15.8315   -4.1137   29.0653 N   0  0  0  0  0  0  0  0  0  0  0  0
  2  1  1  6  0  0  0
  2  3  1  0  0  0  0
  2  5  1  0  0  0  0
  3  4  1  0  0  0  0
  3 17  1  0  0  0  0
  5  6  1  0  0  0  0
  7  6  1  1  0  0  0
  7  8  1  0  0  0  0
  7  9  1  0  0  0  0
 10  9  1  1  0  0  0
 10 11  1  0  0  0  0
 10 12  1  0  0  0  0
 11 16  1  0  0  0  0
 12 13  1  6  0  0  0
 12 14  1  0  0  0  0
 14 15  1  6  0  0  0
 14 16  1  0  0  0  0
 16 27  1  1  0  0  0
 18 19  2  0  0  0  0
 18 23  1  0  0  0  0
 19 20  1  0  0  0  0
 20 21  2  0  0  0  0
 21 22  1  0  0  0  0
 21 27  1  0  0  0  0
 22 23  2  0  0  0  0
 22 25  1  0  0  0  0
 23 24  1  0  0  0  0
 25 26  2  0  0  0  0
 26 27  1  0  0  0  0
M  END
>  <CHROM.1>
148.60575173,-81.64328160,66.27407874,-90.65378275,-174.77972883,-62.45368337
87.00724915,-14.52728458,-5.68595113,31.07880736,0.62092465,-1.37474888,1.19111990

>  <Name>
ligand

>  <RI>
0

>  <Rbt.Current_Directory>
/home/itssahil/PROJECTS/Mol_Feturizer/New_Systems/rnas/3GX6

>  <Rbt.Executable>
rbdock ($Id: //depot/dev/client3/rdock/2013.1/src/exe/rbdock.cxx#4 $)

>  <Rbt.Library>
libRbt.so (2013.1, Build901 2013/11/27)

>  <Rbt.Parameter_File>
/export/apps/rDock/src/rDock_2013.1_src/data/scripts/dock_solv.prm

>  <Rbt.Receptor>
prm/pocket_docking_3.prm

>  <SCORE>
-17.7238

>  <SCORE.INTER>
-9.5507

>  <SCORE.INTER.CONST>
1

>  <SCORE.INTER.POLAR>
0

>  <SCORE.INTER.ROT>
7

>  <SCORE.INTER.SOLV>
17.895

>  <SCORE.INTER.VDW>
-20.5988

>  <SCORE.INTER.norm>
-0.35373

>  <SCORE.INTRA>
-8.17313

>  <SCORE.INTRA.DIHEDRAL>
-8.08919

>  <SCORE.INTRA.DIHEDRAL.0>
15.0182

>  <SCORE.INTRA.POLAR>
0

>  <SCORE.INTRA.POLAR.0>
0

>  <SCORE.INTRA.REPUL>
0

>  <SCORE.INTRA.REPUL.0>
0

>  <SCORE.INTRA.SOLV>
1.28873

>  <SCORE.INTRA.SOLV.lig_0>
-47.9129

>  <SCORE.INTRA.VDW>
-4.77291

>  <SCORE.INTRA.VDW.0>
2.00851

>  <SCORE.INTRA.norm>
-0.302709

>  <SCORE.RESTR>
0

>  <SCORE.RESTR.CAVITY>
0

>  <SCORE.RESTR.norm>
0

>  <SCORE.SYSTEM>
0

>  <SCORE.SYSTEM.CONST>
0

>  <SCORE.SYSTEM.DIHEDRAL>
0

>  <SCORE.SYSTEM.SOLV>
0

>  <SCORE.SYSTEM.norm>
0

>  <SCORE.heavy>
27

>  <SCORE.norm>
-0.656438

>  <RMSD>
5.697

$$$$
ligand
 OpenBabel11021811483D
libRbt.so/2013.1/901 2013/11/27
 27 29  0  0  0  0  0  0  0  0999 V2000
  -17.4083   -8.5741   31.8234 N   0  0  0  0  0  0  0  0  0  0  0  0
  -16.2971   -7.6353   31.9532 C   0  0  2  0  0  0  0  0  0  0  0  0
  -15.0438   -8.1346   31.2391 C   0  0  0  0  0  0  0  0  0  0  0  0
  -14.5365   -7.4908   30.3179 O   0  0  0  0  0  0  0  0  0  0  0  0
  -16.0146   -7.3253   33.4202 C   0  0  0  0  0  0  0  0  0  0  0  0
  -15.1520   -6.0887   33.6193 C   0  0  0  0  0  0  0  0  0  0  0  0
  -13.4514   -6.2798   33.0296 S   0  0  2  0  0  0  0  0  0  0  0  0
  -12.7847   -7.3812   34.3020 C   0  0  0  0  0  0  0  0  0  0  0  0
  -12.7339   -4.6898   33.5250 C   0  0  0  0  0  0  0  0  0  0  0  0
  -13.1258   -3.6224   32.5134 C   0  0  1  0  0  0  0  0  0  0  0  0
  -12.5509   -3.9561   31.2725 O   0  0  0  0  0  0  0  0  0  0  0  0
  -14.6105   -3.5022   32.2253 C   0  0  1  0  0  0  0  0  0  0  0  0
  -15.1939   -2.4813   33.0038 O   0  0  0  0  0  0  0  0  0  0  0  0
  -14.6446   -3.1217   30.7590 C   0  0  1  0  0  0  0  0  0  0  0  0
  -14.9730   -1.7577   30.6609 O   0  0  0  0  0  0  0  0  0  0  0  0
  -13.2416   -3.3470   30.2119 C   0  0  2  0  0  0  0  0  0  0  0  0
  -14.5167   -9.1974   31.5682 O   0  0  0  0  0  0  0  0  0  0  0  0
  -11.8182   -8.0580   28.3262 N   0  0  0  0  0  0  0  0  0  0  0  0
  -11.5086   -7.5019   29.5517 C   0  0  0  0  0  0  0  0  0  0  0  0
  -11.9661   -6.2419   29.8881 N   0  0  0  0  0  0  0  0  0  0  0  0
  -12.7218   -5.5336   29.0156 C   0  0  0  0  0  0  0  0  0  0  0  0
  -13.0506   -6.0804   27.7814 C   0  0  0  0  0  0  0  0  0  0  0  0
  -12.5918   -7.3456   27.4356 C   0  0  0  0  0  0  0  0  0  0  0  0
  -12.8989   -7.8652   26.2495 N   0  0  0  0  0  0  0  0  0  0  0  0
  -13.8082   -5.1804   27.1182 N   0  0  0  0  0  0  0  0  0  0  0  0
  -13.9787   -4.0931   27.9065 C   0  0  0  0  0  0  0  0  0  0  0  0
  -13.3129   -4.2943   29.0867 N   0  0  0  0  0  0  0  0  0  0  0  0
  2  1  1  1  0  0  0
  2  3  1  0  0  0  0
  2  5  1  0  0  0  0
  3  4  1  0  0  0  0
  3 17  1  0  0  0  0
  5  6  1  0  0  0  0
  7  6  1  1  0  0  0
  7  8  1  0  0  0  0
  7  9  1  0  0  0  0
 10  9  1  1  0  0  0
 10 11  1  0  0  0  0
 10 12  1  0  0  0  0
 11 16  1  0  0  0  0
 12 13  1  1  0  0  0
 12 14  1  0  0  0  0
 14 15  1  1  0  0  0
 14 16  1  0  0  0  0
 16 27  1  6  0  0  0
 18 19  2  0  0  0  0
 18 23  1  0  0  0  0
 19 20  1  0  0  0  0
 20 21  2  0  0  0  0
 21 22  1  0  0  0  0
 21 27  1  0  0  0  0
 22 23  2  0  0  0  0
 22 25  1  0  0  0  0
 23 24  1  0  0  0  0
 25 26  2  0  0  0  0
 26 27  1  0  0  0  0
M  END
>  <CHROM.1>
119.36548185,-163.99031924,-67.53113937,-72.72742272,-79.90033422,-64.09488377
-4.75742600,-13.85595698,-5.81162167,30.84238197,2.69276104,1.22263997,0.23240028

>  <Name>
ligand

>  <RI>
0

>  <Rbt.Current_Directory>
/home/itssahil/PROJECTS/Mol_Feturizer/New_Systems/rnas/3GX6

>  <Rbt.Executable>
rbdock ($Id: //depot/dev/client3/rdock/2013.1/src/exe/rbdock.cxx#4 $)

>  <Rbt.Library>
libRbt.so (2013.1, Build901 2013/11/27)

>  <Rbt.Parameter_File>
/export/apps/rDock/src/rDock_2013.1_src/data/scripts/dock_solv.prm

>  <Rbt.Receptor>
prm/pocket_docking_5.prm

>  <SCORE>
-23.3489

>  <SCORE.INTER>
-11.1052

>  <SCORE.INTER.CONST>
1

>  <SCORE.INTER.POLAR>
0

>  <SCORE.INTER.ROT>
7

>  <SCORE.INTER.SOLV>
9.74469

>  <SCORE.INTER.VDW>
-18.9184

>  <SCORE.INTER.norm>
-0.411305

>  <SCORE.INTRA>
-12.2437

>  <SCORE.INTRA.DIHEDRAL>
-10.2145

>  <SCORE.INTRA.DIHEDRAL.0>
15.0182

>  <SCORE.INTRA.POLAR>
0

>  <SCORE.INTRA.POLAR.0>
0

>  <SCORE.INTRA.REPUL>
0

>  <SCORE.INTRA.REPUL.0>
0

>  <SCORE.INTRA.SOLV>
-1.27814

>  <SCORE.INTRA.SOLV.lig_0>
-47.9129

>  <SCORE.INTRA.VDW>
-6.49735

>  <SCORE.INTRA.VDW.0>
2.00851

>  <SCORE.INTRA.norm>
-0.45347

>  <SCORE.RESTR>
0

>  <SCORE.RESTR.CAVITY>
0

>  <SCORE.RESTR.norm>
0

>  <SCORE.SYSTEM>
0

>  <SCORE.SYSTEM.CONST>
0

>  <SCORE.SYSTEM.DIHEDRAL>
0

>  <SCORE.SYSTEM.SOLV>
0

>  <SCORE.SYSTEM.norm>
0

>  <SCORE.heavy>
27

>  <SCORE.norm>
-0.864775

>  <RMSD>
5.714

$$$$
ligand
 OpenBabel11021811483D
libRbt.so/2013.1/901 2013/11/27
 27 29  0  0  0  0  0  0  0  0999 V2000
  -12.4865   -5.3715   30.5594 N   0  0  0  0  0  0  0  0  0  0  0  0
  -12.7384   -6.0304   29.2805 C   0  0  2  0  0  0  0  0  0  0  0  0
  -11.5143   -6.7948   28.7833 C   0  0  0  0  0  0  0  0  0  0  0  0
  -10.5000   -6.2005   28.4114 O   0  0  0  0  0  0  0  0  0  0  0  0
  -13.2289   -5.0289   28.2393 C   0  0  0  0  0  0  0  0  0  0  0  0
  -13.9529   -5.6803   27.0711 C   0  0  0  0  0  0  0  0  0  0  0  0
  -15.7095   -5.9895   27.3793 S   0  0  2  0  0  0  0  0  0  0  0  0
  -16.2480   -4.3392   27.8922 C   0  0  0  0  0  0  0  0  0  0  0  0
  -15.6336   -6.8496   28.9739 C   0  0  0  0  0  0  0  0  0  0  0  0
  -17.0391   -7.2505   29.3983 C   0  0  1  0  0  0  0  0  0  0  0  0
  -16.9355   -8.2211   30.4126 O   0  0  0  0  0  0  0  0  0  0  0  0
  -17.8813   -6.1473   30.0112 C   0  0  1  0  0  0  0  0  0  0  0  0
  -18.7196   -5.5565   29.0434 O   0  0  0  0  0  0  0  0  0  0  0  0
  -18.7142   -6.8847   31.0401 C   0  0  1  0  0  0  0  0  0  0  0  0
  -20.0275   -6.9989   30.5503 O   0  0  0  0  0  0  0  0  0  0  0  0
  -18.1050   -8.2723   31.1888 C   0  0  2  0  0  0  0  0  0  0  0  0
  -11.5194   -8.0252   28.7393 O   0  0  0  0  0  0  0  0  0  0  0  0
  -14.2392   -9.3657   34.5998 N   0  0  0  0  0  0  0  0  0  0  0  0
  -14.1554   -9.2474   33.2265 C   0  0  0  0  0  0  0  0  0  0  0  0
  -15.2787   -8.9559   32.4758 N   0  0  0  0  0  0  0  0  0  0  0  0
  -16.4791   -8.7870   33.0793 C   0  0  0  0  0  0  0  0  0  0  0  0
  -16.5811   -8.8938   34.4609 C   0  0  0  0  0  0  0  0  0  0  0  0
  -15.4563   -9.1892   35.2215 C   0  0  0  0  0  0  0  0  0  0  0  0
  -15.5560   -9.3009   36.5439 N   0  0  0  0  0  0  0  0  0  0  0  0
  -17.8701   -8.6755   34.7992 N   0  0  0  0  0  0  0  0  0  0  0  0
  -18.5759   -8.4179   33.6731 C   0  0  0  0  0  0  0  0  0  0  0  0
  -17.7302   -8.4822   32.5973 N   0  0  0  0  0  0  0  0  0  0  0  0
  2  1  1  1  0  0  0
  2  3  1  0  0  0  0
  2  5  1  0  0  0  0
  3  4  1  0  0  0  0
  3 17  1  0  0  0  0
  5  6  1  0  0  0  0
  7  6  1  1  0  0  0
  7  8  1  0  0  0  0
  7  9  1  0  0  0  0
 10  9  1  1  0  0  0
 10 11  1  0  0  0  0
 10 12  1  0  0  0  0
 11 16  1  0  0  0  0
 12 13  1  6  0  0  0
 12 14  1  0  0  0  0
 14 15  1  6  0  0  0
 14 16  1  0  0  0  0
 16 27  1  1  0  0  0
 18 19  2  0  0  0  0
 18 23  1  0  0  0  0
 19 20  1  0  0  0  0
 20 21  2  0  0  0  0
 21 22  1  0  0  0  0
 21 27  1  0  0  0  0
 22 23  2  0  0  0  0
 22 25  1  0  0  0  0
 23 24  1  0  0  0  0
 25 26  2  0  0  0  0
 26 27  1  0  0  0  0
M  END
>  <CHROM.1>
-68.75993425,-160.09793023,84.77652855,53.11880391,-178.00989123,163.67365691
-9.32209189,-15.65306057,-7.25669320,30.75397788,-1.09553067,-0.05242944
2.05115425

>  <Name>
ligand

>  <RI>
0

>  <Rbt.Current_Directory>
/home/itssahil/PROJECTS/Mol_Feturizer/New_Systems/rnas/3GX6

>  <Rbt.Executable>
rbdock ($Id: //depot/dev/client3/rdock/2013.1/src/exe/rbdock.cxx#4 $)

>  <Rbt.Library>
libRbt.so (2013.1, Build901 2013/11/27)

>  <Rbt.Parameter_File>
/export/apps/rDock/src/rDock_2013.1_src/data/scripts/dock_solv.prm

>  <Rbt.Receptor>
prm/pocket_docking_5.prm

>  <SCORE>
-15.1455

>  <SCORE.INTER>
-8.43872

>  <SCORE.INTER.CONST>
1

>  <SCORE.INTER.POLAR>
0

>  <SCORE.INTER.ROT>
7

>  <SCORE.INTER.SOLV>
14.2898

>  <SCORE.INTER.VDW>
-18.6558

>  <SCORE.INTER.norm>
-0.312545

>  <SCORE.INTRA>
-6.7068

>  <SCORE.INTRA.DIHEDRAL>
-7.23901

>  <SCORE.INTRA.DIHEDRAL.0>
15.0182

>  <SCORE.INTRA.POLAR>
0

>  <SCORE.INTRA.POLAR.0>
0

>  <SCORE.INTRA.REPUL>
0

>  <SCORE.INTRA.REPUL.0>
0

>  <SCORE.INTRA.SOLV>
-0.661437

>  <SCORE.INTRA.SOLV.lig_0>
-47.9129

>  <SCORE.INTRA.VDW>
-2.75657

>  <SCORE.INTRA.VDW.0>
2.00851

>  <SCORE.INTRA.norm>
-0.2484

>  <SCORE.RESTR>
0

>  <SCORE.RESTR.CAVITY>
0

>  <SCORE.RESTR.norm>
0

>  <SCORE.SYSTEM>
0

>  <SCORE.SYSTEM.CONST>
0

>  <SCORE.SYSTEM.DIHEDRAL>
0

>  <SCORE.SYSTEM.SOLV>
0

>  <SCORE.SYSTEM.norm>
0

>  <SCORE.heavy>
27

>  <SCORE.norm>
-0.560945

>  <RMSD>
5.719

$$$$
ligand
 OpenBabel11021811483D
libRbt.so/2013.1/901 2013/11/27
 27 29  0  0  0  0  0  0  0  0999 V2000
  -10.9552  -10.1709   25.7993 N   0  0  0  0  0  0  0  0  0  0  0  0
  -11.6400   -8.8840   25.8884 C   0  0  2  0  0  0  0  0  0  0  0  0
  -11.5761   -8.3015   27.2978 C   0  0  0  0  0  0  0  0  0  0  0  0
  -11.8407   -8.9916   28.2848 O   0  0  0  0  0  0  0  0  0  0  0  0
  -13.0806   -8.9987   25.3992 C   0  0  0  0  0  0  0  0  0  0  0  0
  -13.7654   -7.6525   25.2213 C   0  0  0  0  0  0  0  0  0  0  0  0
  -14.2925   -6.8885   26.7753 S   0  0  2  0  0  0  0  0  0  0  0  0
  -15.8804   -7.7200   27.0277 C   0  0  0  0  0  0  0  0  0  0  0  0
  -14.8340   -5.2590   26.1920 C   0  0  0  0  0  0  0  0  0  0  0  0
  -15.1306   -4.3676   27.3894 C   0  0  1  0  0  0  0  0  0  0  0  0
  -16.3873   -4.7294   27.9103 O   0  0  0  0  0  0  0  0  0  0  0  0
  -14.1784   -4.5033   28.5628 C   0  0  1  0  0  0  0  0  0  0  0  0
  -13.1766   -3.5120   28.5162 O   0  0  0  0  0  0  0  0  0  0  0  0
  -15.0781   -4.2774   29.7610 C   0  0  1  0  0  0  0  0  0  0  0  0
  -14.8177   -2.9955   30.2774 O   0  0  0  0  0  0  0  0  0  0  0  0
  -16.5125   -4.3390   29.2537 C   0  0  2  0  0  0  0  0  0  0  0  0
  -11.2625   -7.1243   27.4755 O   0  0  0  0  0  0  0  0  0  0  0  0
  -21.0498   -6.9453   29.8819 N   0  0  0  0  0  0  0  0  0  0  0  0
  -20.7673   -5.9295   28.9902 C   0  0  0  0  0  0  0  0  0  0  0  0
  -19.5135   -5.3488   28.9598 N   0  0  0  0  0  0  0  0  0  0  0  0
  -18.5457   -5.7670   29.8097 C   0  0  0  0  0  0  0  0  0  0  0  0
  -18.8090   -6.7937   30.7080 C   0  0  0  0  0  0  0  0  0  0  0  0
  -20.0682   -7.3802   30.7458 C   0  0  0  0  0  0  0  0  0  0  0  0
  -20.3231   -8.3571   31.6129 N   0  0  0  0  0  0  0  0  0  0  0  0
  -17.6853   -7.0173   31.4227 N   0  0  0  0  0  0  0  0  0  0  0  0
  -16.7202   -6.1735   30.9876 C   0  0  0  0  0  0  0  0  0  0  0  0
  -17.2351   -5.3913   29.9877 N   0  0  0  0  0  0  0  0  0  0  0  0
  2  1  1  1  0  0  0
  2  3  1  0  0  0  0
  2  5  1  0  0  0  0
  3  4  1  0  0  0  0
  3 17  1  0  0  0  0
  5  6  1  0  0  0  0
  7  6  1  6  0  0  0
  7  8  1  0  0  0  0
  7  9  1  0  0  0  0
 10  9  1  6  0  0  0
 10 11  1  0  0  0  0
 10 12  1  0  0  0  0
 11 16  1  0  0  0  0
 12 13  1  6  0  0  0
 12 14  1  0  0  0  0
 14 15  1  6  0  0  0
 14 16  1  0  0  0  0
 16 27  1  1  0  0  0
 18 19  2  0  0  0  0
 18 23  1  0  0  0  0
 19 20  1  0  0  0  0
 20 21  2  0  0  0  0
 21 22  1  0  0  0  0
 21 27  1  0  0  0  0
 22 23  2  0  0  0  0
 22 25  1  0  0  0  0
 23 24  1  0  0  0  0
 25 26  2  0  0  0  0
 26 27  1  0  0  0  0
M  END
>  <CHROM.1>
-47.53586619,-169.22664193,-76.77232798,-83.53654934,-171.62389665,-77.90912801
-66.08265671,-15.57511793,-6.44333747,28.40425860,0.34126551,-0.41466473
-2.85283590

>  <Name>
ligand

>  <RI>
0

>  <Rbt.Current_Directory>
/home/itssahil/PROJECTS/Mol_Feturizer/New_Systems/rnas/3GX6

>  <Rbt.Executable>
rbdock ($Id: //depot/dev/client3/rdock/2013.1/src/exe/rbdock.cxx#4 $)

>  <Rbt.Library>
libRbt.so (2013.1, Build901 2013/11/27)

>  <Rbt.Parameter_File>
/export/apps/rDock/src/rDock_2013.1_src/data/scripts/dock_solv.prm

>  <Rbt.Receptor>
prm/pocket_docking_7.prm

>  <SCORE>
-16.4493

>  <SCORE.INTER>
-7.20378

>  <SCORE.INTER.CONST>
1

>  <SCORE.INTER.POLAR>
0

>  <SCORE.INTER.ROT>
7

>  <SCORE.INTER.SOLV>
9.52772

>  <SCORE.INTER.VDW>
-16.2451

>  <SCORE.INTER.norm>
-0.266807

>  <SCORE.INTRA>
-9.24555

>  <SCORE.INTRA.DIHEDRAL>
-7.90063

>  <SCORE.INTRA.DIHEDRAL.0>
15.0182

>  <SCORE.INTRA.POLAR>
0

>  <SCORE.INTRA.POLAR.0>
0

>  <SCORE.INTRA.REPUL>
0

>  <SCORE.INTRA.REPUL.0>
0

>  <SCORE.INTRA.SOLV>
-1.43369

>  <SCORE.INTRA.SOLV.lig_0>
-47.9129

>  <SCORE.INTRA.VDW>
-4.57839

>  <SCORE.INTRA.VDW.0>
2.00851

>  <SCORE.INTRA.norm>
-0.342428

>  <SCORE.RESTR>
0

>  <SCORE.RESTR.CAVITY>
0

>  <SCORE.RESTR.norm>
0

>  <SCORE.SYSTEM>
0

>  <SCORE.SYSTEM.CONST>
0

>  <SCORE.SYSTEM.DIHEDRAL>
0

>  <SCORE.SYSTEM.SOLV>
0

>  <SCORE.SYSTEM.norm>
0

>  <SCORE.heavy>
27

>  <SCORE.norm>
-0.609234

>  <RMSD>
5.734

$$$$
ligand
 OpenBabel11021811483D
libRbt.so/2013.1/901 2013/11/27
 27 29  0  0  0  0  0  0  0  0999 V2000
  -17.5730   -6.9361   30.8217 N   0  0  0  0  0  0  0  0  0  0  0  0
  -16.8134   -7.4369   31.9641 C   0  0  2  0  0  0  0  0  0  0  0  0
  -17.5458   -8.5663   32.6837 C   0  0  0  0  0  0  0  0  0  0  0  0
  -18.7521   -8.7548   32.5111 O   0  0  0  0  0  0  0  0  0  0  0  0
  -16.4610   -6.3035   32.9228 C   0  0  0  0  0  0  0  0  0  0  0  0
  -15.4011   -6.6860   33.9443 C   0  0  0  0  0  0  0  0  0  0  0  0
  -13.7089   -6.6095   33.3066 S   0  0  2  0  0  0  0  0  0  0  0  0
  -12.8566   -7.6575   34.5115 C   0  0  0  0  0  0  0  0  0  0  0  0
  -13.2074   -4.9560   33.8570 C   0  0  0  0  0  0  0  0  0  0  0  0
  -13.4244   -3.9606   32.7263 C   0  0  1  0  0  0  0  0  0  0  0  0
  -12.6380   -4.3589   31.6288 O   0  0  0  0  0  0  0  0  0  0  0  0
  -14.8365   -3.8868   32.1764 C   0  0  1  0  0  0  0  0  0  0  0  0
  -15.5555   -2.8312   32.7742 O   0  0  0  0  0  0  0  0  0  0  0  0
  -14.6158   -3.5980   30.7054 C   0  0  1  0  0  0  0  0  0  0  0  0
  -14.9329   -2.2492   30.4644 O   0  0  0  0  0  0  0  0  0  0  0  0
  -13.1368   -3.8297   30.4271 C   0  0  2  0  0  0  0  0  0  0  0  0
  -16.9434   -9.3104   33.4577 O   0  0  0  0  0  0  0  0  0  0  0  0
  -14.8225   -5.5589   25.7428 N   0  0  0  0  0  0  0  0  0  0  0  0
  -15.2576   -4.4560   26.4507 C   0  0  0  0  0  0  0  0  0  0  0  0
  -14.7037   -4.1445   27.6780 N   0  0  0  0  0  0  0  0  0  0  0  0
  -13.7280   -4.9221   28.2046 C   0  0  0  0  0  0  0  0  0  0  0  0
  -13.2715   -6.0310   27.5029 C   0  0  0  0  0  0  0  0  0  0  0  0
  -13.8259   -6.3515   26.2697 C   0  0  0  0  0  0  0  0  0  0  0  0
  -13.3951   -7.4191   25.6021 N   0  0  0  0  0  0  0  0  0  0  0  0
  -12.3041   -6.6181   28.2398 N   0  0  0  0  0  0  0  0  0  0  0  0
  -12.1284   -5.9008   29.3744 C   0  0  0  0  0  0  0  0  0  0  0  0
  -13.0020   -4.8456   29.3697 N   0  0  0  0  0  0  0  0  0  0  0  0
  2  1  1  6  0  0  0
  2  3  1  0  0  0  0
  2  5  1  0  0  0  0
  3  4  1  0  0  0  0
  3 17  1  0  0  0  0
  5  6  1  0  0  0  0
  7  6  1  1  0  0  0
  7  8  1  0  0  0  0
  7  9  1  0  0  0  0
 10  9  1  1  0  0  0
 10 11  1  0  0  0  0
 10 12  1  0  0  0  0
 11 16  1  0  0  0  0
 12 13  1  1  0  0  0
 12 14  1  0  0  0  0
 14 15  1  1  0  0  0
 14 16  1  0  0  0  0
 16 27  1  6  0  0  0
 18 19  2  0  0  0  0
 18 23  1  0  0  0  0
 19 20  1  0  0  0  0
 20 21  2  0  0  0  0
 21 22  1  0  0  0  0
 21 27  1  0  0  0  0
 22 23  2  0  0  0  0
 22 25  1  0  0  0  0
 23 24  1  0  0  0  0
 25 26  2  0  0  0  0
 26 27  1  0  0  0  0
M  END
>  <CHROM.1>
-17.30552170,-166.12514005,80.80189799,-160.43478656,-95.76711737,-60.24811875
157.13384641,-14.61684828,-5.75647043,30.79868810,2.05503154,0.87936605,1.46804182

>  <Name>
ligand

>  <RI>
0

>  <Rbt.Current_Directory>
/home/itssahil/PROJECTS/Mol_Feturizer/New_Systems/rnas/3GX6

>  <Rbt.Executable>
rbdock ($Id: //depot/dev/client3/rdock/2013.1/src/exe/rbdock.cxx#4 $)

>  <Rbt.Library>
libRbt.so (2013.1, Build901 2013/11/27)

>  <Rbt.Parameter_File>
/export/apps/rDock/src/rDock_2013.1_src/data/scripts/dock_solv.prm

>  <Rbt.Receptor>
prm/pocket_docking_5.prm

>  <SCORE>
-21.8019

>  <SCORE.INTER>
-13.5577

>  <SCORE.INTER.CONST>
1

>  <SCORE.INTER.POLAR>
0

>  <SCORE.INTER.ROT>
7

>  <SCORE.INTER.SOLV>
7.85017

>  <SCORE.INTER.VDW>
-19.9219

>  <SCORE.INTER.norm>
-0.502137

>  <SCORE.INTRA>
-8.24424

>  <SCORE.INTRA.DIHEDRAL>
-5.86713

>  <SCORE.INTRA.DIHEDRAL.0>
15.0182

>  <SCORE.INTRA.POLAR>
0

>  <SCORE.INTRA.POLAR.0>
0

>  <SCORE.INTRA.REPUL>
0

>  <SCORE.INTRA.REPUL.0>
0

>  <SCORE.INTRA.SOLV>
-0.905112

>  <SCORE.INTRA.SOLV.lig_0>
-47.9129

>  <SCORE.INTRA.VDW>
-4.85812

>  <SCORE.INTRA.VDW.0>
2.00851

>  <SCORE.INTRA.norm>
-0.305342

>  <SCORE.RESTR>
0

>  <SCORE.RESTR.CAVITY>
0

>  <SCORE.RESTR.norm>
0

>  <SCORE.SYSTEM>
0

>  <SCORE.SYSTEM.CONST>
0

>  <SCORE.SYSTEM.DIHEDRAL>
0

>  <SCORE.SYSTEM.SOLV>
0

>  <SCORE.SYSTEM.norm>
0

>  <SCORE.heavy>
27

>  <SCORE.norm>
-0.807479

>  <RMSD>
5.738

$$$$
ligand
 OpenBabel11021811483D
libRbt.so/2013.1/901 2013/11/27
 27 29  0  0  0  0  0  0  0  0999 V2000
  -11.9687   -7.5688   25.7540 N   0  0  0  0  0  0  0  0  0  0  0  0
  -12.0694   -6.8060   26.9954 C   0  0  2  0  0  0  0  0  0  0  0  0
  -10.8514   -7.0139   27.8916 C   0  0  0  0  0  0  0  0  0  0  0  0
  -10.3753   -8.1375   28.0687 O   0  0  0  0  0  0  0  0  0  0  0  0
  -13.3643   -7.1340   27.7326 C   0  0  0  0  0  0  0  0  0  0  0  0
  -14.5654   -6.3577   27.2152 C   0  0  0  0  0  0  0  0  0  0  0  0
  -15.1068   -5.0275   28.3168 S   0  0  2  0  0  0  0  0  0  0  0  0
  -13.5520   -4.1259   28.5315 C   0  0  0  0  0  0  0  0  0  0  0  0
  -15.2244   -5.9131   29.8949 C   0  0  0  0  0  0  0  0  0  0  0  0
  -16.5658   -6.6277   29.9736 C   0  0  1  0  0  0  0  0  0  0  0  0
  -16.4624   -7.6600   30.9251 O   0  0  0  0  0  0  0  0  0  0  0  0
  -17.7335   -5.7849   30.4512 C   0  0  1  0  0  0  0  0  0  0  0  0
  -18.4656   -5.2736   29.3597 O   0  0  0  0  0  0  0  0  0  0  0  0
  -18.5779   -6.7775   31.2243 C   0  0  1  0  0  0  0  0  0  0  0  0
  -19.7078   -7.0980   30.4508 O   0  0  0  0  0  0  0  0  0  0  0  0
  -17.7256   -8.0242   31.4195 C   0  0  2  0  0  0  0  0  0  0  0  0
  -10.3224   -6.0592   28.4611 O   0  0  0  0  0  0  0  0  0  0  0  0
  -14.5807   -9.5362   35.3690 N   0  0  0  0  0  0  0  0  0  0  0  0
  -14.2607   -9.3889   34.0338 C   0  0  0  0  0  0  0  0  0  0  0  0
  -15.2165   -8.9821   33.1221 N   0  0  0  0  0  0  0  0  0  0  0  0
  -16.4831   -8.7269   33.5278 C   0  0  0  0  0  0  0  0  0  0  0  0
  -16.8214   -8.8613   34.8687 C   0  0  0  0  0  0  0  0  0  0  0  0
  -15.8660   -9.2725   35.7902 C   0  0  0  0  0  0  0  0  0  0  0  0
  -16.1927   -9.4104   37.0729 N   0  0  0  0  0  0  0  0  0  0  0  0
  -18.1269   -8.5422   35.0005 N   0  0  0  0  0  0  0  0  0  0  0  0
  -18.6129   -8.1951   33.7856 C   0  0  0  0  0  0  0  0  0  0  0  0
  -17.6081   -8.3031   32.8607 N   0  0  0  0  0  0  0  0  0  0  0  0
  2  1  1  6  0  0  0
  2  3  1  0  0  0  0
  2  5  1  0  0  0  0
  3  4  1  0  0  0  0
  3 17  1  0  0  0  0
  5  6  1  0  0  0  0
  7  6  1  6  0  0  0
  7  8  1  0  0  0  0
  7  9  1  0  0  0  0
 10  9  1  1  0  0  0
 10 11  1  0  0  0  0
 10 12  1  0  0  0  0
 11 16  1  0  0  0  0
 12 13  1  6  0  0  0
 12 14  1  0  0  0  0
 14 15  1  6  0  0  0
 14 16  1  0  0  0  0
 16 27  1  1  0  0  0
 18 19  2  0  0  0  0
 18 23  1  0  0  0  0
 19 20  1  0  0  0  0
 20 21  2  0  0  0  0
 21 22  1  0  0  0  0
 21 27  1  0  0  0  0
 22 23  2  0  0  0  0
 22 25  1  0  0  0  0
 23 24  1  0  0  0  0
 25 26  2  0  0  0  0
 26 27  1  0  0  0  0
M  END
>  <CHROM.1>
-43.84202005,-82.66224321,-105.88127803,53.28145468,-82.99414073,159.21622662
-26.66733317,-15.37782347,-7.26781957,30.81031719,-0.98711805,-0.23945847
2.05136760

>  <Name>
ligand

>  <RI>
0

>  <Rbt.Current_Directory>
/home/itssahil/PROJECTS/Mol_Feturizer/New_Systems/rnas/3GX6

>  <Rbt.Executable>
rbdock ($Id: //depot/dev/client3/rdock/2013.1/src/exe/rbdock.cxx#4 $)

>  <Rbt.Library>
libRbt.so (2013.1, Build901 2013/11/27)

>  <Rbt.Parameter_File>
/export/apps/rDock/src/rDock_2013.1_src/data/scripts/dock_solv.prm

>  <Rbt.Receptor>
prm/pocket_docking_5.prm

>  <SCORE>
-14.2536

>  <SCORE.INTER>
-8.35529

>  <SCORE.INTER.CONST>
1

>  <SCORE.INTER.POLAR>
0

>  <SCORE.INTER.ROT>
7

>  <SCORE.INTER.SOLV>
10.9674

>  <SCORE.INTER.VDW>
-17.4926

>  <SCORE.INTER.norm>
-0.309455

>  <SCORE.INTRA>
-5.89828

>  <SCORE.INTRA.DIHEDRAL>
-3.22938

>  <SCORE.INTRA.DIHEDRAL.0>
15.0182

>  <SCORE.INTRA.POLAR>
0

>  <SCORE.INTRA.POLAR.0>
0

>  <SCORE.INTRA.REPUL>
0

>  <SCORE.INTRA.REPUL.0>
0

>  <SCORE.INTRA.SOLV>
-1.09895

>  <SCORE.INTRA.SOLV.lig_0>
-47.9129

>  <SCORE.INTRA.VDW>
-3.73412

>  <SCORE.INTRA.VDW.0>
2.00851

>  <SCORE.INTRA.norm>
-0.218455

>  <SCORE.RESTR>
0

>  <SCORE.RESTR.CAVITY>
0

>  <SCORE.RESTR.norm>
0

>  <SCORE.SYSTEM>
0

>  <SCORE.SYSTEM.CONST>
0

>  <SCORE.SYSTEM.DIHEDRAL>
0

>  <SCORE.SYSTEM.SOLV>
0

>  <SCORE.SYSTEM.norm>
0

>  <SCORE.heavy>
27

>  <SCORE.norm>
-0.52791

>  <RMSD>
5.794

$$$$
ligand
 OpenBabel11021811483D
libRbt.so/2013.1/901 2013/11/27
 27 29  0  0  0  0  0  0  0  0999 V2000
  -16.8612   -3.9905   30.8867 N   0  0  0  0  0  0  0  0  0  0  0  0
  -16.7105   -2.8585   31.7971 C   0  0  2  0  0  0  0  0  0  0  0  0
  -17.1119   -1.5412   31.1388 C   0  0  0  0  0  0  0  0  0  0  0  0
  -17.0345   -1.3899   29.9175 O   0  0  0  0  0  0  0  0  0  0  0  0
  -15.2911   -2.7921   32.3530 C   0  0  0  0  0  0  0  0  0  0  0  0
  -14.7693   -4.1369   32.8349 C   0  0  0  0  0  0  0  0  0  0  0  0
  -13.1638   -4.0439   33.6656 S   0  0  2  0  0  0  0  0  0  0  0  0
  -12.1446   -3.3621   32.3341 C   0  0  0  0  0  0  0  0  0  0  0  0
  -12.6613   -5.7862   33.6405 C   0  0  0  0  0  0  0  0  0  0  0  0
  -13.5405   -6.5786   34.5973 C   0  0  1  0  0  0  0  0  0  0  0  0
  -14.8650   -6.5324   34.1227 O   0  0  0  0  0  0  0  0  0  0  0  0
  -13.2264   -8.0588   34.7068 C   0  0  1  0  0  0  0  0  0  0  0  0
  -12.3925   -8.3164   35.8145 O   0  0  0  0  0  0  0  0  0  0  0  0
  -14.5898   -8.6823   34.9264 C   0  0  1  0  0  0  0  0  0  0  0  0
  -14.6926   -9.0635   36.2762 O   0  0  0  0  0  0  0  0  0  0  0  0
  -15.6220   -7.6047   34.6228 C   0  0  2  0  0  0  0  0  0  0  0  0
  -17.5177   -0.5989   31.8193 O   0  0  0  0  0  0  0  0  0  0  0  0
  -20.2445   -9.8457   33.4458 N   0  0  0  0  0  0  0  0  0  0  0  0
  -19.7414   -9.5355   34.6938 C   0  0  0  0  0  0  0  0  0  0  0  0
  -18.4979   -8.9465   34.8244 N   0  0  0  0  0  0  0  0  0  0  0  0
  -17.7539   -8.6701   33.7272 C   0  0  0  0  0  0  0  0  0  0  0  0
  -18.2473   -8.9673   32.4628 C   0  0  0  0  0  0  0  0  0  0  0  0
  -19.4956   -9.5619   32.3243 C   0  0  0  0  0  0  0  0  0  0  0  0
  -19.9640   -9.8552   31.1137 N   0  0  0  0  0  0  0  0  0  0  0  0
  -17.3209   -8.5874   31.5567 N   0  0  0  0  0  0  0  0  0  0  0  0
  -16.2689   -8.0451   32.2140 C   0  0  0  0  0  0  0  0  0  0  0  0
  -16.5198   -8.0875   33.5601 N   0  0  0  0  0  0  0  0  0  0  0  0
  2  1  1  6  0  0  0
  2  3  1  0  0  0  0
  2  5  1  0  0  0  0
  3  4  1  0  0  0  0
  3 17  1  0  0  0  0
  5  6  1  0  0  0  0
  7  6  1  6  0  0  0
  7  8  1  0  0  0  0
  7  9  1  0  0  0  0
 10  9  1  6  0  0  0
 10 11  1  0  0  0  0
 10 12  1  0  0  0  0
 11 16  1  0  0  0  0
 12 13  1  1  0  0  0
 12 14  1  0  0  0  0
 14 15  1  1  0  0  0
 14 16  1  0  0  0  0
 16 27  1  6  0  0  0
 18 19  2  0  0  0  0
 18 23  1  0  0  0  0
 19 20  1  0  0  0  0
 20 21  2  0  0  0  0
 21 22  1  0  0  0  0
 21 27  1  0  0  0  0
 22 23  2  0  0  0  0
 22 25  1  0  0  0  0
 23 24  1  0  0  0  0
 25 26  2  0  0  0  0
 26 27  1  0  0  0  0
M  END
>  <CHROM.1>
-26.91304528,-46.18673695,-173.50317540,-60.25628184,-70.20650590,64.05664832
-150.15033327,-15.94446358,-6.30126534,33.19418422,1.16571270,-0.41351040
-0.41833096

>  <Name>
ligand

>  <RI>
0

>  <Rbt.Current_Directory>
/home/itssahil/PROJECTS/Mol_Feturizer/New_Systems/rnas/3GX6

>  <Rbt.Executable>
rbdock ($Id: //depot/dev/client3/rdock/2013.1/src/exe/rbdock.cxx#4 $)

>  <Rbt.Library>
libRbt.so (2013.1, Build901 2013/11/27)

>  <Rbt.Parameter_File>
/export/apps/rDock/src/rDock_2013.1_src/data/scripts/dock_solv.prm

>  <Rbt.Receptor>
prm/pocket_docking_8.prm

>  <SCORE>
-28.0274

>  <SCORE.INTER>
-19.1078

>  <SCORE.INTER.CONST>
1

>  <SCORE.INTER.POLAR>
0

>  <SCORE.INTER.ROT>
7

>  <SCORE.INTER.SOLV>
11.9848

>  <SCORE.INTER.VDW>
-25.0002

>  <SCORE.INTER.norm>
-0.707697

>  <SCORE.INTRA>
-8.92711

>  <SCORE.INTRA.DIHEDRAL>
-10.7612

>  <SCORE.INTRA.DIHEDRAL.0>
15.0182

>  <SCORE.INTRA.POLAR>
0

>  <SCORE.INTRA.POLAR.0>
0

>  <SCORE.INTRA.REPUL>
0

>  <SCORE.INTRA.REPUL.0>
0

>  <SCORE.INTRA.SOLV>
-0.950294

>  <SCORE.INTRA.SOLV.lig_0>
-47.9129

>  <SCORE.INTRA.VDW>
-3.07138

>  <SCORE.INTRA.VDW.0>
2.00851

>  <SCORE.INTRA.norm>
-0.330634

>  <SCORE.RESTR>
0.00749404

>  <SCORE.RESTR.CAVITY>
0.00749404

>  <SCORE.RESTR.norm>
0.000277557

>  <SCORE.SYSTEM>
0

>  <SCORE.SYSTEM.CONST>
0

>  <SCORE.SYSTEM.DIHEDRAL>
0

>  <SCORE.SYSTEM.SOLV>
0

>  <SCORE.SYSTEM.norm>
0

>  <SCORE.heavy>
27

>  <SCORE.norm>
-1.03805

>  <RMSD>
5.811

$$$$
ligand
 OpenBabel11021811483D
libRbt.so/2013.1/901 2013/11/27
 27 29  0  0  0  0  0  0  0  0999 V2000
  -17.4502   -2.8162   32.1611 N   0  0  0  0  0  0  0  0  0  0  0  0
  -15.9978   -2.9224   32.0510 C   0  0  2  0  0  0  0  0  0  0  0  0
  -15.3980   -1.7484   31.2815 C   0  0  0  0  0  0  0  0  0  0  0  0
  -14.2253   -1.4079   31.4519 O   0  0  0  0  0  0  0  0  0  0  0  0
  -15.5948   -4.2571   31.4313 C   0  0  0  0  0  0  0  0  0  0  0  0
  -14.0988   -4.5235   31.4950 C   0  0  0  0  0  0  0  0  0  0  0  0
  -13.3677   -4.2080   33.1205 S   0  0  2  0  0  0  0  0  0  0  0  0
  -11.9810   -3.1417   32.6553 C   0  0  0  0  0  0  0  0  0  0  0  0
  -12.5187   -5.7806   33.4278 C   0  0  0  0  0  0  0  0  0  0  0  0
  -13.5511   -6.8739   33.6625 C   0  0  1  0  0  0  0  0  0  0  0  0
  -14.2309   -7.1081   32.4522 O   0  0  0  0  0  0  0  0  0  0  0  0
  -12.9960   -8.2299   34.0562 C   0  0  1  0  0  0  0  0  0  0  0  0
  -13.0164   -8.3955   35.4565 O   0  0  0  0  0  0  0  0  0  0  0  0
  -13.9626   -9.1975   33.4040 C   0  0  1  0  0  0  0  0  0  0  0  0
  -14.7858   -9.7457   34.4038 O   0  0  0  0  0  0  0  0  0  0  0  0
  -14.8120   -8.3868   32.4346 C   0  0  2  0  0  0  0  0  0  0  0  0
  -16.0794   -1.1136   30.4763 O   0  0  0  0  0  0  0  0  0  0  0  0
  -11.5532   -9.4689   28.4365 N   0  0  0  0  0  0  0  0  0  0  0  0
  -11.2503   -8.8740   29.6454 C   0  0  0  0  0  0  0  0  0  0  0  0
  -12.2358   -8.6601   30.5905 N   0  0  0  0  0  0  0  0  0  0  0  0
  -13.5147   -9.0280   30.3397 C   0  0  0  0  0  0  0  0  0  0  0  0
  -13.8367   -9.6357   29.1325 C   0  0  0  0  0  0  0  0  0  0  0  0
  -12.8513   -9.8514   28.1767 C   0  0  0  0  0  0  0  0  0  0  0  0
  -13.1617  -10.4249   27.0166 N   0  0  0  0  0  0  0  0  0  0  0  0
  -15.1601   -9.9042   29.1438 N   0  0  0  0  0  0  0  0  0  0  0  0
  -15.6742   -9.4988   30.3287 C   0  0  0  0  0  0  0  0  0  0  0  0
  -14.6690   -8.9538   31.0831 N   0  0  0  0  0  0  0  0  0  0  0  0
  2  1  1  6  0  0  0
  2  3  1  0  0  0  0
  2  5  1  0  0  0  0
  3  4  1  0  0  0  0
  3 17  1  0  0  0  0
  5  6  1  0  0  0  0
  7  6  1  6  0  0  0
  7  8  1  0  0  0  0
  7  9  1  0  0  0  0
 10  9  1  6  0  0  0
 10 11  1  0  0  0  0
 10 12  1  0  0  0  0
 11 16  1  0  0  0  0
 12 13  1  1  0  0  0
 12 14  1  0  0  0  0
 14 15  1  1  0  0  0
 14 16  1  0  0  0  0
 16 27  1  6  0  0  0
 18 19  2  0  0  0  0
 18 23  1  0  0  0  0
 19 20  1  0  0  0  0
 20 21  2  0  0  0  0
 21 22  1  0  0  0  0
 21 27  1  0  0  0  0
 22 23  2  0  0  0  0
 22 25  1  0  0  0  0
 23 24  1  0  0  0  0
 25 26  2  0  0  0  0
 26 27  1  0  0  0  0
M  END
>  <CHROM.1>
155.46515063,-170.68788820,47.19059821,-129.02169491,-69.54145475,68.25686231
50.35199469,-13.98063664,-6.61422894,31.60107328,2.58113183,-1.32633979,1.25957422

>  <Name>
ligand

>  <RI>
0

>  <Rbt.Current_Directory>
/home/itssahil/PROJECTS/Mol_Feturizer/New_Systems/rnas/3GX6

>  <Rbt.Executable>
rbdock ($Id: //depot/dev/client3/rdock/2013.1/src/exe/rbdock.cxx#4 $)

>  <Rbt.Library>
libRbt.so (2013.1, Build901 2013/11/27)

>  <Rbt.Parameter_File>
/export/apps/rDock/src/rDock_2013.1_src/data/scripts/dock_solv.prm

>  <Rbt.Receptor>
prm/pocket_docking_3.prm

>  <SCORE>
-23.2364

>  <SCORE.INTER>
-14.45

>  <SCORE.INTER.CONST>
1

>  <SCORE.INTER.POLAR>
0

>  <SCORE.INTER.ROT>
7

>  <SCORE.INTER.SOLV>
17.86

>  <SCORE.INTER.VDW>
-23.8533

>  <SCORE.INTER.norm>
-0.535184

>  <SCORE.INTRA>
-8.78644

>  <SCORE.INTRA.DIHEDRAL>
-6.28137

>  <SCORE.INTRA.DIHEDRAL.0>
15.0182

>  <SCORE.INTRA.POLAR>
0

>  <SCORE.INTRA.POLAR.0>
0

>  <SCORE.INTRA.REPUL>
0

>  <SCORE.INTRA.REPUL.0>
0

>  <SCORE.INTRA.SOLV>
-1.35437

>  <SCORE.INTRA.SOLV.lig_0>
-47.9129

>  <SCORE.INTRA.VDW>
-4.96857

>  <SCORE.INTRA.VDW.0>
2.00851

>  <SCORE.INTRA.norm>
-0.325424

>  <SCORE.RESTR>
0

>  <SCORE.RESTR.CAVITY>
0

>  <SCORE.RESTR.norm>
0

>  <SCORE.SYSTEM>
0

>  <SCORE.SYSTEM.CONST>
0

>  <SCORE.SYSTEM.DIHEDRAL>
0

>  <SCORE.SYSTEM.SOLV>
0

>  <SCORE.SYSTEM.norm>
0

>  <SCORE.heavy>
27

>  <SCORE.norm>
-0.860608

>  <RMSD>
5.826

$$$$
ligand
 OpenBabel11021811483D
libRbt.so/2013.1/901 2013/11/27
 27 29  0  0  0  0  0  0  0  0999 V2000
  -17.8295   -8.9893   29.0844 N   0  0  0  0  0  0  0  0  0  0  0  0
  -16.4316   -8.9269   28.6662 C   0  0  2  0  0  0  0  0  0  0  0  0
  -16.2748   -9.1656   27.1668 C   0  0  0  0  0  0  0  0  0  0  0  0
  -16.9808   -9.9852   26.5751 O   0  0  0  0  0  0  0  0  0  0  0  0
  -15.5771   -9.8976   29.4759 C   0  0  0  0  0  0  0  0  0  0  0  0
  -14.0830   -9.6661   29.3118 C   0  0  0  0  0  0  0  0  0  0  0  0
  -13.4841   -8.1566   30.1113 S   0  0  2  0  0  0  0  0  0  0  0  0
  -11.7854   -8.1071   29.4881 C   0  0  0  0  0  0  0  0  0  0  0  0
  -13.2231   -8.7448   31.8067 C   0  0  0  0  0  0  0  0  0  0  0  0
  -14.5585   -8.7921   32.5354 C   0  0  1  0  0  0  0  0  0  0  0  0
  -14.3550   -9.3881   33.7944 O   0  0  0  0  0  0  0  0  0  0  0  0
  -15.1857   -7.4464   32.8479 C   0  0  1  0  0  0  0  0  0  0  0  0
  -16.1323   -7.0912   31.8648 O   0  0  0  0  0  0  0  0  0  0  0  0
  -15.8791   -7.6918   34.1726 C   0  0  1  0  0  0  0  0  0  0  0  0
  -17.2636   -7.7781   33.9408 O   0  0  0  0  0  0  0  0  0  0  0  0
  -15.3678   -9.0264   34.6978 C   0  0  2  0  0  0  0  0  0  0  0  0
  -15.4325   -8.5445   26.5183 O   0  0  0  0  0  0  0  0  0  0  0  0
  -16.0541   -9.2201   39.9196 N   0  0  0  0  0  0  0  0  0  0  0  0
  -16.9647   -9.5294   38.9286 C   0  0  0  0  0  0  0  0  0  0  0  0
  -16.6175   -9.4200   37.5953 N   0  0  0  0  0  0  0  0  0  0  0  0
  -15.3781   -9.0026   37.2438 C   0  0  0  0  0  0  0  0  0  0  0  0
  -14.4458   -8.6953   38.2270 C   0  0  0  0  0  0  0  0  0  0  0  0
  -14.7890   -8.8004   39.5694 C   0  0  0  0  0  0  0  0  0  0  0  0
  -13.8989   -8.4968   40.5111 N   0  0  0  0  0  0  0  0  0  0  0  0
  -13.3042   -8.3183   37.6121 N   0  0  0  0  0  0  0  0  0  0  0  0
  -13.4871   -8.3968   36.2731 C   0  0  0  0  0  0  0  0  0  0  0  0
  -14.7665   -8.8197   36.0260 N   0  0  0  0  0  0  0  0  0  0  0  0
  2  1  1  1  0  0  0
  2  3  1  0  0  0  0
  2  5  1  0  0  0  0
  3  4  1  0  0  0  0
  3 17  1  0  0  0  0
  5  6  1  0  0  0  0
  7  6  1  6  0  0  0
  7  8  1  0  0  0  0
  7  9  1  0  0  0  0
 10  9  1  1  0  0  0
 10 11  1  0  0  0  0
 10 12  1  0  0  0  0
 11 16  1  0  0  0  0
 12 13  1  6  0  0  0
 12 14  1  0  0  0  0
 14 15  1  6  0  0  0
 14 16  1  0  0  0  0
 16 27  1  1  0  0  0
 18 19  2  0  0  0  0
 18 23  1  0  0  0  0
 19 20  1  0  0  0  0
 20 21  2  0  0  0  0
 21 22  1  0  0  0  0
 21 27  1  0  0  0  0
 22 23  2  0  0  0  0
 22 25  1  0  0  0  0
 23 24  1  0  0  0  0
 25 26  2  0  0  0  0
 26 27  1  0  0  0  0
M  END
>  <CHROM.1>
-37.33664507,-167.19328068,71.17040556,-171.68585025,-79.56679476,173.60390809
-151.02458901,-15.09796065,-8.70972384,33.16509213,1.59951803,-0.14239715
-1.57637564

>  <Name>
ligand

>  <RI>
0

>  <Rbt.Current_Directory>
/home/itssahil/PROJECTS/Mol_Feturizer/New_Systems/rnas/3GX6

>  <Rbt.Executable>
rbdock ($Id: //depot/dev/client3/rdock/2013.1/src/exe/rbdock.cxx#4 $)

>  <Rbt.Library>
libRbt.so (2013.1, Build901 2013/11/27)

>  <Rbt.Parameter_File>
/export/apps/rDock/src/rDock_2013.1_src/data/scripts/dock_solv.prm

>  <Rbt.Receptor>
prm/pocket_docking_6.prm

>  <SCORE>
-24.8634

>  <SCORE.INTER>
-14.0993

>  <SCORE.INTER.CONST>
1

>  <SCORE.INTER.POLAR>
0

>  <SCORE.INTER.ROT>
7

>  <SCORE.INTER.SOLV>
11.4165

>  <SCORE.INTER.VDW>
-21.4717

>  <SCORE.INTER.norm>
-0.522196

>  <SCORE.INTRA>
-10.7641

>  <SCORE.INTRA.DIHEDRAL>
-9.55215

>  <SCORE.INTRA.DIHEDRAL.0>
15.0182

>  <SCORE.INTRA.POLAR>
0

>  <SCORE.INTRA.POLAR.0>
0

>  <SCORE.INTRA.REPUL>
0

>  <SCORE.INTRA.REPUL.0>
0

>  <SCORE.INTRA.SOLV>
-0.882978

>  <SCORE.INTRA.SOLV.lig_0>
-47.9129

>  <SCORE.INTRA.VDW>
-5.54654

>  <SCORE.INTRA.VDW.0>
2.00851

>  <SCORE.INTRA.norm>
-0.39867

>  <SCORE.RESTR>
0

>  <SCORE.RESTR.CAVITY>
0

>  <SCORE.RESTR.norm>
0

>  <SCORE.SYSTEM>
0

>  <SCORE.SYSTEM.CONST>
0

>  <SCORE.SYSTEM.DIHEDRAL>
0

>  <SCORE.SYSTEM.SOLV>
0

>  <SCORE.SYSTEM.norm>
0

>  <SCORE.heavy>
27

>  <SCORE.norm>
-0.920867

>  <RMSD>
5.868

$$$$
ligand
 OpenBabel11021811483D
libRbt.so/2013.1/901 2013/11/27
 27 29  0  0  0  0  0  0  0  0999 V2000
  -17.4335   -3.4670   32.2518 N   0  0  0  0  0  0  0  0  0  0  0  0
  -16.3375   -2.5033   32.1977 C   0  0  2  0  0  0  0  0  0  0  0  0
  -16.8286   -1.1020   31.8440 C   0  0  0  0  0  0  0  0  0  0  0  0
  -18.0228   -0.8804   31.6316 O   0  0  0  0  0  0  0  0  0  0  0  0
  -15.2491   -2.9700   31.2357 C   0  0  0  0  0  0  0  0  0  0  0  0
  -14.5448   -4.2383   31.6923 C   0  0  0  0  0  0  0  0  0  0  0  0
  -13.4846   -4.0057   33.1408 S   0  0  2  0  0  0  0  0  0  0  0  0
  -12.0883   -3.1333   32.3886 C   0  0  0  0  0  0  0  0  0  0  0  0
  -12.7978   -5.6726   33.3365 C   0  0  0  0  0  0  0  0  0  0  0  0
  -13.6328   -6.4469   34.3462 C   0  0  1  0  0  0  0  0  0  0  0  0
  -14.9735   -6.4306   33.9174 O   0  0  0  0  0  0  0  0  0  0  0  0
  -13.2958   -7.9194   34.4877 C   0  0  1  0  0  0  0  0  0  0  0  0
  -12.4207   -8.1342   35.5724 O   0  0  0  0  0  0  0  0  0  0  0  0
  -14.6426   -8.5524   34.7731 C   0  0  1  0  0  0  0  0  0  0  0  0
  -14.6934   -8.8948   36.1361 O   0  0  0  0  0  0  0  0  0  0  0  0
  -15.6986   -7.4967   34.4748 C   0  0  2  0  0  0  0  0  0  0  0  0
  -16.0363   -0.1635   31.7589 O   0  0  0  0  0  0  0  0  0  0  0  0
  -20.5089   -9.4014   33.4707 N   0  0  0  0  0  0  0  0  0  0  0  0
  -19.9937   -8.9839   34.6820 C   0  0  0  0  0  0  0  0  0  0  0  0
  -18.6986   -8.5093   34.7694 N   0  0  0  0  0  0  0  0  0  0  0  0
  -17.9156   -8.4522   33.6659 C   0  0  0  0  0  0  0  0  0  0  0  0
  -18.4197   -8.8599   32.4370 C   0  0  0  0  0  0  0  0  0  0  0  0
  -19.7200   -9.3406   32.3425 C   0  0  0  0  0  0  0  0  0  0  0  0
  -20.1995   -9.7400   31.1670 N   0  0  0  0  0  0  0  0  0  0  0  0
  -17.4473   -8.6940   31.5148 N   0  0  0  0  0  0  0  0  0  0  0  0
  -16.3546   -8.1784   32.1254 C   0  0  0  0  0  0  0  0  0  0  0  0
  -16.6265   -8.0213   33.4588 N   0  0  0  0  0  0  0  0  0  0  0  0
  2  1  1  6  0  0  0
  2  3  1  0  0  0  0
  2  5  1  0  0  0  0
  3  4  1  0  0  0  0
  3 17  1  0  0  0  0
  5  6  1  0  0  0  0
  7  6  1  6  0  0  0
  7  8  1  0  0  0  0
  7  9  1  0  0  0  0
 10  9  1  6  0  0  0
 10 11  1  0  0  0  0
 10 12  1  0  0  0  0
 11 16  1  0  0  0  0
 12 13  1  1  0  0  0
 12 14  1  0  0  0  0
 14 15  1  1  0  0  0
 14 16  1  0  0  0  0
 16 27  1  6  0  0  0
 18 19  2  0  0  0  0
 18 23  1  0  0  0  0
 19 20  1  0  0  0  0
 20 21  2  0  0  0  0
 21 22  1  0  0  0  0
 21 27  1  0  0  0  0
 22 23  2  0  0  0  0
 22 25  1  0  0  0  0
 23 24  1  0  0  0  0
 25 26  2  0  0  0  0
 26 27  1  0  0  0  0
M  END
>  <CHROM.1>
-0.48862955,-65.52864694,-70.07773419,-74.34073507,-95.02687574,55.40715934
-140.94947034,-16.01956206,-6.11286314,33.15354984,1.11015751,-0.31052226
-0.34448220

>  <Name>
ligand

>  <RI>
0

>  <Rbt.Current_Directory>
/home/itssahil/PROJECTS/Mol_Feturizer/New_Systems/rnas/3GX6

>  <Rbt.Executable>
rbdock ($Id: //depot/dev/client3/rdock/2013.1/src/exe/rbdock.cxx#4 $)

>  <Rbt.Library>
libRbt.so (2013.1, Build901 2013/11/27)

>  <Rbt.Parameter_File>
/export/apps/rDock/src/rDock_2013.1_src/data/scripts/dock_solv.prm

>  <Rbt.Receptor>
prm/pocket_docking_7.prm

>  <SCORE>
-28.3962

>  <SCORE.INTER>
-18.8131

>  <SCORE.INTER.CONST>
1

>  <SCORE.INTER.POLAR>
0

>  <SCORE.INTER.ROT>
7

>  <SCORE.INTER.SOLV>
13.9799

>  <SCORE.INTER.VDW>
-25.4687

>  <SCORE.INTER.norm>
-0.69678

>  <SCORE.INTRA>
-9.58319

>  <SCORE.INTRA.DIHEDRAL>
-9.36678

>  <SCORE.INTRA.DIHEDRAL.0>
15.0182

>  <SCORE.INTRA.POLAR>
0

>  <SCORE.INTRA.POLAR.0>
0

>  <SCORE.INTRA.REPUL>
0

>  <SCORE.INTRA.REPUL.0>
0

>  <SCORE.INTRA.SOLV>
-0.613707

>  <SCORE.INTRA.SOLV.lig_0>
-47.9129

>  <SCORE.INTRA.VDW>
-4.59295

>  <SCORE.INTRA.VDW.0>
2.00851

>  <SCORE.INTRA.norm>
-0.354933

>  <SCORE.RESTR>
0

>  <SCORE.RESTR.CAVITY>
0

>  <SCORE.RESTR.norm>
0

>  <SCORE.SYSTEM>
0

>  <SCORE.SYSTEM.CONST>
0

>  <SCORE.SYSTEM.DIHEDRAL>
0

>  <SCORE.SYSTEM.SOLV>
0

>  <SCORE.SYSTEM.norm>
0

>  <SCORE.heavy>
27

>  <SCORE.norm>
-1.05171

>  <RMSD>
5.873

$$$$
ligand
 OpenBabel11021811483D
libRbt.so/2013.1/901 2013/11/27
 27 29  0  0  0  0  0  0  0  0999 V2000
  -12.5078   -5.2818   30.8848 N   0  0  0  0  0  0  0  0  0  0  0  0
  -13.6502   -4.3721   30.8631 C   0  0  2  0  0  0  0  0  0  0  0  0
  -14.1626   -4.1355   29.4449 C   0  0  0  0  0  0  0  0  0  0  0  0
  -13.4020   -3.7710   28.5454 O   0  0  0  0  0  0  0  0  0  0  0  0
  -13.3122   -3.0568   31.5586 C   0  0  0  0  0  0  0  0  0  0  0  0
  -14.4737   -2.4794   32.3527 C   0  0  0  0  0  0  0  0  0  0  0  0
  -16.0182   -2.3696   31.4153 S   0  0  2  0  0  0  0  0  0  0  0  0
  -16.6474   -0.7781   32.0050 C   0  0  0  0  0  0  0  0  0  0  0  0
  -17.0644   -3.5286   32.3377 C   0  0  0  0  0  0  0  0  0  0  0  0
  -16.9013   -4.9264   31.7581 C   0  0  1  0  0  0  0  0  0  0  0  0
  -16.0650   -5.6663   32.6153 O   0  0  0  0  0  0  0  0  0  0  0  0
  -18.1714   -5.7505   31.6601 C   0  0  1  0  0  0  0  0  0  0  0  0
  -18.7322   -5.6604   30.3694 O   0  0  0  0  0  0  0  0  0  0  0  0
  -17.6839   -7.1618   31.9178 C   0  0  1  0  0  0  0  0  0  0  0  0
  -17.6727   -7.8587   30.6963 O   0  0  0  0  0  0  0  0  0  0  0  0
  -16.2619   -7.0473   32.4503 C   0  0  2  0  0  0  0  0  0  0  0  0
  -15.3519   -4.3001   29.1730 O   0  0  0  0  0  0  0  0  0  0  0  0
  -13.3006   -8.1201   36.6758 N   0  0  0  0  0  0  0  0  0  0  0  0
  -12.9473   -7.4084   35.5464 C   0  0  0  0  0  0  0  0  0  0  0  0
  -13.8546   -7.2210   34.5207 N   0  0  0  0  0  0  0  0  0  0  0  0
  -15.1029   -7.7385   34.6093 C   0  0  0  0  0  0  0  0  0  0  0  0
  -15.4790   -8.4501   35.7418 C   0  0  0  0  0  0  0  0  0  0  0  0
  -14.5710   -8.6446   36.7756 C   0  0  0  0  0  0  0  0  0  0  0  0
  -14.9284   -9.3344   37.8561 N   0  0  0  0  0  0  0  0  0  0  0  0
  -16.7605   -8.8431   35.5776 N   0  0  0  0  0  0  0  0  0  0  0  0
  -17.2046   -8.3844   34.3838 C   0  0  0  0  0  0  0  0  0  0  0  0
  -16.1910   -7.6971   33.7698 N   0  0  0  0  0  0  0  0  0  0  0  0
  2  1  1  6  0  0  0
  2  3  1  0  0  0  0
  2  5  1  0  0  0  0
  3  4  1  0  0  0  0
  3 17  1  0  0  0  0
  5  6  1  0  0  0  0
  7  6  1  1  0  0  0
  7  8  1  0  0  0  0
  7  9  1  0  0  0  0
 10  9  1  1  0  0  0
 10 11  1  0  0  0  0
 10 12  1  0  0  0  0
 11 16  1  0  0  0  0
 12 13  1  6  0  0  0
 12 14  1  0  0  0  0
 14 15  1  6  0  0  0
 14 16  1  0  0  0  0
 16 27  1  1  0  0  0
 18 19  2  0  0  0  0
 18 23  1  0  0  0  0
 19 20  1  0  0  0  0
 20 21  2  0  0  0  0
 21 22  1  0  0  0  0
 21 27  1  0  0  0  0
 22 23  2  0  0  0  0
 22 25  1  0  0  0  0
 23 24  1  0  0  0  0
 25 26  2  0  0  0  0
 26 27  1  0  0  0  0
M  END
>  <CHROM.1>
-52.81670265,-142.96711094,-50.60654448,-140.70455613,-89.20107938,102.81917630
-62.88692115,-15.54797066,-5.68871119,32.62995391,-1.60391571,0.40282809
2.35913069

>  <Name>
ligand

>  <RI>
0

>  <Rbt.Current_Directory>
/home/itssahil/PROJECTS/Mol_Feturizer/New_Systems/rnas/3GX6

>  <Rbt.Executable>
rbdock ($Id: //depot/dev/client3/rdock/2013.1/src/exe/rbdock.cxx#4 $)

>  <Rbt.Library>
libRbt.so (2013.1, Build901 2013/11/27)

>  <Rbt.Parameter_File>
/export/apps/rDock/src/rDock_2013.1_src/data/scripts/dock_solv.prm

>  <Rbt.Receptor>
prm/pocket_docking_7.prm

>  <SCORE>
-23.3221

>  <SCORE.INTER>
-17.8475

>  <SCORE.INTER.CONST>
1

>  <SCORE.INTER.POLAR>
0

>  <SCORE.INTER.ROT>
7

>  <SCORE.INTER.SOLV>
15.3002

>  <SCORE.INTER.VDW>
-25.2651

>  <SCORE.INTER.norm>
-0.661018

>  <SCORE.INTRA>
-5.47461

>  <SCORE.INTRA.DIHEDRAL>
1.67214

>  <SCORE.INTRA.DIHEDRAL.0>
15.0182

>  <SCORE.INTRA.POLAR>
0

>  <SCORE.INTRA.POLAR.0>
0

>  <SCORE.INTRA.REPUL>
0

>  <SCORE.INTRA.REPUL.0>
0

>  <SCORE.INTRA.SOLV>
-0.882194

>  <SCORE.INTRA.SOLV.lig_0>
-47.9129

>  <SCORE.INTRA.VDW>
-5.86959

>  <SCORE.INTRA.VDW.0>
2.00851

>  <SCORE.INTRA.norm>
-0.202763

>  <SCORE.RESTR>
0

>  <SCORE.RESTR.CAVITY>
0

>  <SCORE.RESTR.norm>
0

>  <SCORE.SYSTEM>
0

>  <SCORE.SYSTEM.CONST>
0

>  <SCORE.SYSTEM.DIHEDRAL>
0

>  <SCORE.SYSTEM.SOLV>
0

>  <SCORE.SYSTEM.norm>
0

>  <SCORE.heavy>
27

>  <SCORE.norm>
-0.863781

>  <RMSD>
5.889

$$$$
ligand
 OpenBabel11021811483D
libRbt.so/2013.1/901 2013/11/27
 27 29  0  0  0  0  0  0  0  0999 V2000
  -14.5205   -3.8803   30.5597 N   0  0  0  0  0  0  0  0  0  0  0  0
  -15.0580   -2.5656   30.8998 C   0  0  2  0  0  0  0  0  0  0  0  0
  -14.3469   -1.9540   32.1041 C   0  0  0  0  0  0  0  0  0  0  0  0
  -13.3819   -2.5160   32.6269 O   0  0  0  0  0  0  0  0  0  0  0  0
  -16.5661   -2.6345   31.1209 C   0  0  0  0  0  0  0  0  0  0  0  0
  -16.9556   -3.3760   32.3903 C   0  0  0  0  0  0  0  0  0  0  0  0
  -16.8115   -5.1756   32.2601 S   0  0  2  0  0  0  0  0  0  0  0  0
  -17.8192   -5.6886   33.6736 C   0  0  0  0  0  0  0  0  0  0  0  0
  -15.1368   -5.4349   32.9056 C   0  0  0  0  0  0  0  0  0  0  0  0
  -14.9236   -6.9177   33.1741 C   0  0  1  0  0  0  0  0  0  0  0  0
  -15.0278   -7.6085   31.9520 O   0  0  0  0  0  0  0  0  0  0  0  0
  -13.5574   -7.2994   33.7123 C   0  0  1  0  0  0  0  0  0  0  0  0
  -13.5813   -7.4062   35.1182 O   0  0  0  0  0  0  0  0  0  0  0  0
  -13.3133   -8.6600   33.0916 C   0  0  1  0  0  0  0  0  0  0  0  0
  -13.4813   -9.6395   34.0867 O   0  0  0  0  0  0  0  0  0  0  0  0
  -14.3692   -8.8477   32.0106 C   0  0  2  0  0  0  0  0  0  0  0  0
  -14.7291   -0.8853   32.5810 O   0  0  0  0  0  0  0  0  0  0  0  0
  -14.9154  -10.2101   26.9489 N   0  0  0  0  0  0  0  0  0  0  0  0
  -15.8998  -10.0904   27.9100 C   0  0  0  0  0  0  0  0  0  0  0  0
  -15.5794   -9.7220   29.2030 N   0  0  0  0  0  0  0  0  0  0  0  0
  -14.2921   -9.4778   29.5450 C   0  0  0  0  0  0  0  0  0  0  0  0
  -13.2892   -9.5849   28.5893 C   0  0  0  0  0  0  0  0  0  0  0  0
  -13.6039   -9.9574   27.2882 C   0  0  0  0  0  0  0  0  0  0  0  0
  -12.6420  -10.0692   26.3753 N   0  0  0  0  0  0  0  0  0  0  0  0
  -12.1153   -9.2843   29.1853 N   0  0  0  0  0  0  0  0  0  0  0  0
  -12.3542   -8.9751   30.4815 C   0  0  0  0  0  0  0  0  0  0  0  0
  -13.6979   -9.0892   30.7224 N   0  0  0  0  0  0  0  0  0  0  0  0
  2  1  1  1  0  0  0
  2  3  1  0  0  0  0
  2  5  1  0  0  0  0
  3  4  1  0  0  0  0
  3 17  1  0  0  0  0
  5  6  1  0  0  0  0
  7  6  1  1  0  0  0
  7  8  1  0  0  0  0
  7  9  1  0  0  0  0
 10  9  1  6  0  0  0
 10 11  1  0  0  0  0
 10 12  1  0  0  0  0
 11 16  1  0  0  0  0
 12 13  1  1  0  0  0
 12 14  1  0  0  0  0
 14 15  1  1  0  0  0
 14 16  1  0  0  0  0
 16 27  1  6  0  0  0
 18 19  2  0  0  0  0
 18 23  1  0  0  0  0
 19 20  1  0  0  0  0
 20 21  2  0  0  0  0
 21 22  1  0  0  0  0
 21 27  1  0  0  0  0
 22 23  2  0  0  0  0
 22 25  1  0  0  0  0
 23 24  1  0  0  0  0
 25 26  2  0  0  0  0
 26 27  1  0  0  0  0
M  END
>  <CHROM.1>
4.37547166,70.12122522,-75.90937107,-162.79952322,167.44618531,62.64993078
-76.15021880,-14.64065302,-6.76336660,31.28126872,2.49332441,-1.29973159
1.41755012

>  <Name>
ligand

>  <RI>
0

>  <Rbt.Current_Directory>
/home/itssahil/PROJECTS/Mol_Feturizer/New_Systems/rnas/3GX6

>  <Rbt.Executable>
rbdock ($Id: //depot/dev/client3/rdock/2013.1/src/exe/rbdock.cxx#4 $)

>  <Rbt.Library>
libRbt.so (2013.1, Build901 2013/11/27)

>  <Rbt.Parameter_File>
/export/apps/rDock/src/rDock_2013.1_src/data/scripts/dock_solv.prm

>  <Rbt.Receptor>
prm/pocket_docking_4.prm

>  <SCORE>
-22.303

>  <SCORE.INTER>
-15.2047

>  <SCORE.INTER.CONST>
1

>  <SCORE.INTER.POLAR>
0

>  <SCORE.INTER.ROT>
7

>  <SCORE.INTER.SOLV>
10.0092

>  <SCORE.INTER.VDW>
-21.7395

>  <SCORE.INTER.norm>
-0.563136

>  <SCORE.INTRA>
-7.11684

>  <SCORE.INTRA.DIHEDRAL>
-8.81398

>  <SCORE.INTRA.DIHEDRAL.0>
15.0182

>  <SCORE.INTRA.POLAR>
0

>  <SCORE.INTRA.POLAR.0>
0

>  <SCORE.INTRA.REPUL>
0.0233233

>  <SCORE.INTRA.REPUL.0>
0

>  <SCORE.INTRA.SOLV>
1.70996

>  <SCORE.INTRA.SOLV.lig_0>
-47.9129

>  <SCORE.INTRA.VDW>
-3.68144

>  <SCORE.INTRA.VDW.0>
2.00851

>  <SCORE.INTRA.norm>
-0.263587

>  <SCORE.RESTR>
0.0185287

>  <SCORE.RESTR.CAVITY>
0.0185287

>  <SCORE.RESTR.norm>
0.000686247

>  <SCORE.SYSTEM>
0

>  <SCORE.SYSTEM.CONST>
0

>  <SCORE.SYSTEM.DIHEDRAL>
0

>  <SCORE.SYSTEM.SOLV>
0

>  <SCORE.SYSTEM.norm>
0

>  <SCORE.heavy>
27

>  <SCORE.norm>
-0.826036

>  <RMSD>
5.892

$$$$
ligand
 OpenBabel11021811483D
libRbt.so/2013.1/901 2013/11/27
 27 29  0  0  0  0  0  0  0  0999 V2000
  -16.0678   -7.7353   28.0110 N   0  0  0  0  0  0  0  0  0  0  0  0
  -15.1615   -8.0994   29.0968 C   0  0  2  0  0  0  0  0  0  0  0  0
  -14.7498   -9.5676   29.0266 C   0  0  0  0  0  0  0  0  0  0  0  0
  -15.5584  -10.4678   29.2637 O   0  0  0  0  0  0  0  0  0  0  0  0
  -15.7714   -7.7575   30.4530 C   0  0  0  0  0  0  0  0  0  0  0  0
  -15.9853   -6.2659   30.6585 C   0  0  0  0  0  0  0  0  0  0  0  0
  -16.7527   -5.8482   32.2437 S   0  0  2  0  0  0  0  0  0  0  0  0
  -17.2933   -4.1532   31.9100 C   0  0  0  0  0  0  0  0  0  0  0  0
  -15.2866   -5.5574   33.2706 C   0  0  0  0  0  0  0  0  0  0  0  0
  -14.9789   -6.8110   34.0769 C   0  0  1  0  0  0  0  0  0  0  0  0
  -16.1614   -7.2269   34.7174 O   0  0  0  0  0  0  0  0  0  0  0  0
  -14.5363   -8.0188   33.2725 C   0  0  1  0  0  0  0  0  0  0  0  0
  -13.1298   -8.1163   33.2423 O   0  0  0  0  0  0  0  0  0  0  0  0
  -15.1214   -9.1804   34.0499 C   0  0  1  0  0  0  0  0  0  0  0  0
  -14.0791   -9.8224   34.7422 O   0  0  0  0  0  0  0  0  0  0  0  0
  -16.1074   -8.5907   35.0492 C   0  0  2  0  0  0  0  0  0  0  0  0
  -13.5955   -9.8812   28.7353 O   0  0  0  0  0  0  0  0  0  0  0  0
  -19.9786   -9.5281   31.5981 N   0  0  0  0  0  0  0  0  0  0  0  0
  -18.7833   -8.8720   31.3800 C   0  0  0  0  0  0  0  0  0  0  0  0
  -17.8724   -8.7098   32.4068 N   0  0  0  0  0  0  0  0  0  0  0  0
  -18.1441   -9.1896   33.6436 C   0  0  0  0  0  0  0  0  0  0  0  0
  -19.3379   -9.8600   33.8798 C   0  0  0  0  0  0  0  0  0  0  0  0
  -20.2594  -10.0243   32.8527 C   0  0  0  0  0  0  0  0  0  0  0  0
  -21.4070  -10.6581   33.0815 N   0  0  0  0  0  0  0  0  0  0  0  0
  -19.3523  -10.2360   35.1767 N   0  0  0  0  0  0  0  0  0  0  0  0
  -18.1959   -9.8367   35.7564 C   0  0  0  0  0  0  0  0  0  0  0  0
  -17.4344   -9.1869   34.8212 N   0  0  0  0  0  0  0  0  0  0  0  0
  2  1  1  6  0  0  0
  2  3  1  0  0  0  0
  2  5  1  0  0  0  0
  3  4  1  0  0  0  0
  3 17  1  0  0  0  0
  5  6  1  0  0  0  0
  7  6  1  6  0  0  0
  7  8  1  0  0  0  0
  7  9  1  0  0  0  0
 10  9  1  6  0  0  0
 10 11  1  0  0  0  0
 10 12  1  0  0  0  0
 11 16  1  0  0  0  0
 12 13  1  1  0  0  0
 12 14  1  0  0  0  0
 14 15  1  1  0  0  0
 14 16  1  0  0  0  0
 16 27  1  6  0  0  0
 18 19  2  0  0  0  0
 18 23  1  0  0  0  0
 19 20  1  0  0  0  0
 20 21  2  0  0  0  0
 21 22  1  0  0  0  0
 21 27  1  0  0  0  0
 22 23  2  0  0  0  0
 22 25  1  0  0  0  0
 23 24  1  0  0  0  0
 25 26  2  0  0  0  0
 26 27  1  0  0  0  0
M  END
>  <CHROM.1>
-69.78716685,-64.24602195,178.31705863,-163.45049491,-97.76726275,-50.21123763
57.02015313,-16.62687289,-8.34239438,32.42279928,0.66850649,-0.51633110,-1.74582416

>  <Name>
ligand

>  <RI>
0

>  <Rbt.Current_Directory>
/home/itssahil/PROJECTS/Mol_Feturizer/New_Systems/rnas/3GX6

>  <Rbt.Executable>
rbdock ($Id: //depot/dev/client3/rdock/2013.1/src/exe/rbdock.cxx#4 $)

>  <Rbt.Library>
libRbt.so (2013.1, Build901 2013/11/27)

>  <Rbt.Parameter_File>
/export/apps/rDock/src/rDock_2013.1_src/data/scripts/dock_solv.prm

>  <Rbt.Receptor>
prm/pocket_docking_8.prm

>  <SCORE>
-18.508

>  <SCORE.INTER>
-7.74058

>  <SCORE.INTER.CONST>
1

>  <SCORE.INTER.POLAR>
0

>  <SCORE.INTER.ROT>
7

>  <SCORE.INTER.SOLV>
5.37183

>  <SCORE.INTER.VDW>
-15.2177

>  <SCORE.INTER.norm>
-0.286688

>  <SCORE.INTRA>
-10.7674

>  <SCORE.INTRA.DIHEDRAL>
-7.71

>  <SCORE.INTRA.DIHEDRAL.0>
15.0182

>  <SCORE.INTRA.POLAR>
0

>  <SCORE.INTRA.POLAR.0>
0

>  <SCORE.INTRA.REPUL>
0

>  <SCORE.INTRA.REPUL.0>
0

>  <SCORE.INTRA.SOLV>
-0.719287

>  <SCORE.INTRA.SOLV.lig_0>
-47.9129

>  <SCORE.INTRA.VDW>
-6.55279

>  <SCORE.INTRA.VDW.0>
2.00851

>  <SCORE.INTRA.norm>
-0.398794

>  <SCORE.RESTR>
0

>  <SCORE.RESTR.CAVITY>
0

>  <SCORE.RESTR.norm>
0

>  <SCORE.SYSTEM>
0

>  <SCORE.SYSTEM.CONST>
0

>  <SCORE.SYSTEM.DIHEDRAL>
0

>  <SCORE.SYSTEM.SOLV>
0

>  <SCORE.SYSTEM.norm>
0

>  <SCORE.heavy>
27

>  <SCORE.norm>
-0.685482

>  <RMSD>
5.893

$$$$
ligand
 OpenBabel11021811483D
libRbt.so/2013.1/901 2013/11/27
 27 29  0  0  0  0  0  0  0  0999 V2000
  -12.5996   -6.5560   30.9224 N   0  0  0  0  0  0  0  0  0  0  0  0
  -12.9362   -7.4131   32.0559 C   0  0  2  0  0  0  0  0  0  0  0  0
  -14.2184   -8.2042   31.8104 C   0  0  0  0  0  0  0  0  0  0  0  0
  -14.9609   -7.9358   30.8633 O   0  0  0  0  0  0  0  0  0  0  0  0
  -13.0219   -6.6021   33.3454 C   0  0  0  0  0  0  0  0  0  0  0  0
  -14.1019   -5.5318   33.3133 C   0  0  0  0  0  0  0  0  0  0  0  0
  -13.7381   -4.1584   32.1919 S   0  0  2  0  0  0  0  0  0  0  0  0
  -12.5066   -3.2573   33.1654 C   0  0  0  0  0  0  0  0  0  0  0  0
  -15.2065   -3.1211   32.4295 C   0  0  0  0  0  0  0  0  0  0  0  0
  -16.2979   -3.5633   31.4653 C   0  0  1  0  0  0  0  0  0  0  0  0
  -15.8093   -3.4296   30.1519 O   0  0  0  0  0  0  0  0  0  0  0  0
  -16.7182   -5.0174   31.5692 C   0  0  1  0  0  0  0  0  0  0  0  0
  -17.8646   -5.1540   32.3790 O   0  0  0  0  0  0  0  0  0  0  0  0
  -17.0480   -5.3812   30.1357 C   0  0  1  0  0  0  0  0  0  0  0  0
  -18.4464   -5.4538   30.0055 O   0  0  0  0  0  0  0  0  0  0  0  0
  -16.5141   -4.2552   29.2606 C   0  0  2  0  0  0  0  0  0  0  0  0
  -14.5388   -9.1263   32.5606 O   0  0  0  0  0  0  0  0  0  0  0  0
  -15.0229   -8.4945   26.5075 N   0  0  0  0  0  0  0  0  0  0  0  0
  -16.0712   -8.3835   27.3995 C   0  0  0  0  0  0  0  0  0  0  0  0
  -16.3233   -7.1867   28.0431 N   0  0  0  0  0  0  0  0  0  0  0  0
  -15.5403   -6.1068   27.8094 C   0  0  0  0  0  0  0  0  0  0  0  0
  -14.4862   -6.1972   26.9087 C   0  0  0  0  0  0  0  0  0  0  0  0
  -14.2254   -7.3982   26.2602 C   0  0  0  0  0  0  0  0  0  0  0  0
  -13.2099   -7.4873   25.4047 N   0  0  0  0  0  0  0  0  0  0  0  0
  -13.8807   -4.9913   26.8572 N   0  0  0  0  0  0  0  0  0  0  0  0
  -14.5340   -4.1428   27.6853 C   0  0  0  0  0  0  0  0  0  0  0  0
  -15.5659   -4.8165   28.2837 N   0  0  0  0  0  0  0  0  0  0  0  0
  2  1  1  6  0  0  0
  2  3  1  0  0  0  0
  2  5  1  0  0  0  0
  3  4  1  0  0  0  0
  3 17  1  0  0  0  0
  5  6  1  0  0  0  0
  7  6  1  1  0  0  0
  7  8  1  0  0  0  0
  7  9  1  0  0  0  0
 10  9  1  1  0  0  0
 10 11  1  0  0  0  0
 10 12  1  0  0  0  0
 11 16  1  0  0  0  0
 12 13  1  1  0  0  0
 12 14  1  0  0  0  0
 14 15  1  1  0  0  0
 14 16  1  0  0  0  0
 16 27  1  6  0  0  0
 18 19  2  0  0  0  0
 18 23  1  0  0  0  0
 19 20  1  0  0  0  0
 20 21  2  0  0  0  0
 21 22  1  0  0  0  0
 21 27  1  0  0  0  0
 22 23  2  0  0  0  0
 22 25  1  0  0  0  0
 23 24  1  0  0  0  0
 25 26  2  0  0  0  0
 26 27  1  0  0  0  0
M  END
>  <CHROM.1>
-11.77527828,61.66266089,-69.67228416,-76.00731051,-87.82788784,-59.59962053
138.55707093,-14.97593461,-5.80694553,30.14762986,-1.45762920,0.88770013
-2.00419096

>  <Name>
ligand

>  <RI>
0

>  <Rbt.Current_Directory>
/home/itssahil/PROJECTS/Mol_Feturizer/New_Systems/rnas/3GX6

>  <Rbt.Executable>
rbdock ($Id: //depot/dev/client3/rdock/2013.1/src/exe/rbdock.cxx#4 $)

>  <Rbt.Library>
libRbt.so (2013.1, Build901 2013/11/27)

>  <Rbt.Parameter_File>
/export/apps/rDock/src/rDock_2013.1_src/data/scripts/dock_solv.prm

>  <Rbt.Receptor>
prm/pocket_docking_3.prm

>  <SCORE>
-19.6227

>  <SCORE.INTER>
-9.68285

>  <SCORE.INTER.CONST>
1

>  <SCORE.INTER.POLAR>
0

>  <SCORE.INTER.ROT>
7

>  <SCORE.INTER.SOLV>
8.65269

>  <SCORE.INTER.VDW>
-17.6061

>  <SCORE.INTER.norm>
-0.358624

>  <SCORE.INTRA>
-9.9398

>  <SCORE.INTRA.DIHEDRAL>
-10.261

>  <SCORE.INTRA.DIHEDRAL.0>
15.0182

>  <SCORE.INTRA.POLAR>
0

>  <SCORE.INTRA.POLAR.0>
0

>  <SCORE.INTRA.REPUL>
0

>  <SCORE.INTRA.REPUL.0>
0

>  <SCORE.INTRA.SOLV>
1.23291

>  <SCORE.INTRA.SOLV.lig_0>
-47.9129

>  <SCORE.INTRA.VDW>
-5.42573

>  <SCORE.INTRA.VDW.0>
2.00851

>  <SCORE.INTRA.norm>
-0.368141

>  <SCORE.RESTR>
0

>  <SCORE.RESTR.CAVITY>
0

>  <SCORE.RESTR.norm>
0

>  <SCORE.SYSTEM>
0

>  <SCORE.SYSTEM.CONST>
0

>  <SCORE.SYSTEM.DIHEDRAL>
0

>  <SCORE.SYSTEM.SOLV>
0

>  <SCORE.SYSTEM.norm>
0

>  <SCORE.heavy>
27

>  <SCORE.norm>
-0.726765

>  <RMSD>
5.912

$$$$
ligand
 OpenBabel11021811483D
libRbt.so/2013.1/901 2013/11/27
 27 29  0  0  0  0  0  0  0  0999 V2000
  -18.0354   -4.7103   31.9091 N   0  0  0  0  0  0  0  0  0  0  0  0
  -16.7734   -3.9764   31.9519 C   0  0  2  0  0  0  0  0  0  0  0  0
  -16.9432   -2.5259   31.5079 C   0  0  0  0  0  0  0  0  0  0  0  0
  -17.1157   -1.6240   32.3308 O   0  0  0  0  0  0  0  0  0  0  0  0
  -15.7020   -4.6872   31.1305 C   0  0  0  0  0  0  0  0  0  0  0  0
  -14.3455   -4.0020   31.1879 C   0  0  0  0  0  0  0  0  0  0  0  0
  -13.5676   -4.0545   32.8215 S   0  0  2  0  0  0  0  0  0  0  0  0
  -12.0529   -3.1191   32.4938 C   0  0  0  0  0  0  0  0  0  0  0  0
  -12.9363   -5.7542   32.8482 C   0  0  0  0  0  0  0  0  0  0  0  0
  -13.5345   -6.4959   34.0350 C   0  0  1  0  0  0  0  0  0  0  0  0
  -14.9323   -6.5354   33.8735 O   0  0  0  0  0  0  0  0  0  0  0  0
  -13.1260   -7.9503   34.1759 C   0  0  1  0  0  0  0  0  0  0  0  0
  -12.0519   -8.0867   35.0794 O   0  0  0  0  0  0  0  0  0  0  0  0
  -14.3702   -8.6012   34.7454 C   0  0  1  0  0  0  0  0  0  0  0  0
  -14.1463   -8.8738   36.1068 O   0  0  0  0  0  0  0  0  0  0  0  0
  -15.4996   -7.5890   34.6090 C   0  0  2  0  0  0  0  0  0  0  0  0
  -16.9160   -2.2291   30.3134 O   0  0  0  0  0  0  0  0  0  0  0  0
  -19.9481  -10.4144   34.6683 N   0  0  0  0  0  0  0  0  0  0  0  0
  -19.1647  -10.0362   35.7408 C   0  0  0  0  0  0  0  0  0  0  0  0
  -18.0174   -9.2907   35.5455 N   0  0  0  0  0  0  0  0  0  0  0  0
  -17.6442   -8.9252   34.2961 C   0  0  0  0  0  0  0  0  0  0  0  0
  -18.4245   -9.2892   33.2056 C   0  0  0  0  0  0  0  0  0  0  0  0
  -19.5778  -10.0409   33.3945 C   0  0  0  0  0  0  0  0  0  0  0  0
  -20.3200  -10.3976   32.3490 N   0  0  0  0  0  0  0  0  0  0  0  0
  -17.8379   -8.7965   32.0936 N   0  0  0  0  0  0  0  0  0  0  0  0
  -16.7226   -8.1199   32.4556 C   0  0  0  0  0  0  0  0  0  0  0  0
  -16.5868   -8.1884   33.8170 N   0  0  0  0  0  0  0  0  0  0  0  0
  2  1  1  6  0  0  0
  2  3  1  0  0  0  0
  2  5  1  0  0  0  0
  3  4  1  0  0  0  0
  3 17  1  0  0  0  0
  5  6  1  0  0  0  0
  7  6  1  6  0  0  0
  7  8  1  0  0  0  0
  7  9  1  0  0  0  0
 10  9  1  6  0  0  0
 10 11  1  0  0  0  0
 10 12  1  0  0  0  0
 11 16  1  0  0  0  0
 12 13  1  1  0  0  0
 12 14  1  0  0  0  0
 14 15  1  1  0  0  0
 14 16  1  0  0  0  0
 16 27  1  6  0  0  0
 18 19  2  0  0  0  0
 18 23  1  0  0  0  0
 19 20  1  0  0  0  0
 20 21  2  0  0  0  0
 21 22  1  0  0  0  0
 21 27  1  0  0  0  0
 22 23  2  0  0  0  0
 22 25  1  0  0  0  0
 23 24  1  0  0  0  0
 25 26  2  0  0  0  0
 26 27  1  0  0  0  0
M  END
>  <CHROM.1>
95.31595753,-177.40585876,66.80927700,-178.30103621,-121.63972600,61.64302534
-157.82172293,-15.95935010,-6.61153727,33.25506134,1.04140280,-0.27666312
-0.49173122

>  <Name>
ligand

>  <RI>
0

>  <Rbt.Current_Directory>
/home/itssahil/PROJECTS/Mol_Feturizer/New_Systems/rnas/3GX6

>  <Rbt.Executable>
rbdock ($Id: //depot/dev/client3/rdock/2013.1/src/exe/rbdock.cxx#4 $)

>  <Rbt.Library>
libRbt.so (2013.1, Build901 2013/11/27)

>  <Rbt.Parameter_File>
/export/apps/rDock/src/rDock_2013.1_src/data/scripts/dock_solv.prm

>  <Rbt.Receptor>
prm/pocket_docking_8.prm

>  <SCORE>
-23.7612

>  <SCORE.INTER>
-14.2224

>  <SCORE.INTER.CONST>
1

>  <SCORE.INTER.POLAR>
0

>  <SCORE.INTER.ROT>
7

>  <SCORE.INTER.SOLV>
13.8818

>  <SCORE.INTER.VDW>
-22.3755

>  <SCORE.INTER.norm>
-0.526755

>  <SCORE.INTRA>
-9.53883

>  <SCORE.INTRA.DIHEDRAL>
-7.16629

>  <SCORE.INTRA.DIHEDRAL.0>
15.0182

>  <SCORE.INTRA.POLAR>
0

>  <SCORE.INTRA.POLAR.0>
0

>  <SCORE.INTRA.REPUL>
0

>  <SCORE.INTRA.REPUL.0>
0

>  <SCORE.INTRA.SOLV>
-1.27872

>  <SCORE.INTRA.SOLV.lig_0>
-47.9129

>  <SCORE.INTRA.VDW>
-5.31633

>  <SCORE.INTRA.VDW.0>
2.00851

>  <SCORE.INTRA.norm>
-0.35329

>  <SCORE.RESTR>
0

>  <SCORE.RESTR.CAVITY>
0

>  <SCORE.RESTR.norm>
0

>  <SCORE.SYSTEM>
0

>  <SCORE.SYSTEM.CONST>
0

>  <SCORE.SYSTEM.DIHEDRAL>
0

>  <SCORE.SYSTEM.SOLV>
0

>  <SCORE.SYSTEM.norm>
0

>  <SCORE.heavy>
27

>  <SCORE.norm>
-0.880045

>  <RMSD>
5.918

$$$$
ligand
 OpenBabel11021811483D
libRbt.so/2013.1/901 2013/11/27
 27 29  0  0  0  0  0  0  0  0999 V2000
  -17.9396   -9.7193   35.2890 N   0  0  0  0  0  0  0  0  0  0  0  0
  -16.9680   -8.6349   35.1742 C   0  0  2  0  0  0  0  0  0  0  0  0
  -17.3236   -7.6690   34.0471 C   0  0  0  0  0  0  0  0  0  0  0  0
  -17.5233   -6.4732   34.2723 O   0  0  0  0  0  0  0  0  0  0  0  0
  -15.5546   -9.1853   35.0093 C   0  0  0  0  0  0  0  0  0  0  0  0
  -14.4777   -8.1147   35.0929 C   0  0  0  0  0  0  0  0  0  0  0  0
  -14.4076   -7.0324   33.6438 S   0  0  2  0  0  0  0  0  0  0  0  0
  -13.4401   -8.0617   32.5120 C   0  0  0  0  0  0  0  0  0  0  0  0
  -13.1642   -5.8243   34.1756 C   0  0  0  0  0  0  0  0  0  0  0  0
  -13.0712   -4.7088   33.1444 C   0  0  1  0  0  0  0  0  0  0  0  0
  -12.3971   -5.2066   32.0132 O   0  0  0  0  0  0  0  0  0  0  0  0
  -14.3946   -4.1988   32.6054 C   0  0  1  0  0  0  0  0  0  0  0  0
  -14.8110   -3.0450   33.3012 O   0  0  0  0  0  0  0  0  0  0  0  0
  -14.0664   -3.8490   31.1681 C   0  0  1  0  0  0  0  0  0  0  0  0
  -13.9949   -2.4490   31.0561 O   0  0  0  0  0  0  0  0  0  0  0  0
  -12.7013   -4.4530   30.8675 C   0  0  2  0  0  0  0  0  0  0  0  0
  -17.4232   -8.0693   32.8871 O   0  0  0  0  0  0  0  0  0  0  0  0
  -14.7590   -5.2555   26.0824 N   0  0  0  0  0  0  0  0  0  0  0  0
  -14.9044   -4.1507   26.8980 C   0  0  0  0  0  0  0  0  0  0  0  0
  -14.2922   -4.1049   28.1363 N   0  0  0  0  0  0  0  0  0  0  0  0
  -13.5440   -5.1480   28.5677 C   0  0  0  0  0  0  0  0  0  0  0  0
  -13.3793   -6.2645   27.7573 C   0  0  0  0  0  0  0  0  0  0  0  0
  -13.9943   -6.3182   26.5123 C   0  0  0  0  0  0  0  0  0  0  0  0
  -13.8442   -7.3918   25.7402 N   0  0  0  0  0  0  0  0  0  0  0  0
  -12.5917   -7.1418   28.4157 N   0  0  0  0  0  0  0  0  0  0  0  0
  -12.2435   -6.6017   29.6072 C   0  0  0  0  0  0  0  0  0  0  0  0
  -12.8241   -5.3659   29.7186 N   0  0  0  0  0  0  0  0  0  0  0  0
  2  1  1  6  0  0  0
  2  3  1  0  0  0  0
  2  5  1  0  0  0  0
  3  4  1  0  0  0  0
  3 17  1  0  0  0  0
  5  6  1  0  0  0  0
  7  6  1  1  0  0  0
  7  8  1  0  0  0  0
  7  9  1  0  0  0  0
 10  9  1  1  0  0  0
 10 11  1  0  0  0  0
 10 12  1  0  0  0  0
 11 16  1  0  0  0  0
 12 13  1  1  0  0  0
 12 14  1  0  0  0  0
 14 15  1  1  0  0  0
 14 16  1  0  0  0  0
 16 27  1  6  0  0  0
 18 19  2  0  0  0  0
 18 23  1  0  0  0  0
 19 20  1  0  0  0  0
 20 21  2  0  0  0  0
 21 22  1  0  0  0  0
 21 27  1  0  0  0  0
 22 23  2  0  0  0  0
 22 25  1  0  0  0  0
 23 24  1  0  0  0  0
 25 26  2  0  0  0  0
 26 27  1  0  0  0  0
M  END
>  <CHROM.1>
120.67612132,-171.38077884,-72.43397383,-81.72685195,-173.36584313,-73.98065434
155.20010175,-14.47051986,-6.12634733,31.45491656,2.26541272,1.06173597,1.29436589

>  <Name>
ligand

>  <RI>
0

>  <Rbt.Current_Directory>
/home/itssahil/PROJECTS/Mol_Feturizer/New_Systems/rnas/3GX6

>  <Rbt.Executable>
rbdock ($Id: //depot/dev/client3/rdock/2013.1/src/exe/rbdock.cxx#4 $)

>  <Rbt.Library>
libRbt.so (2013.1, Build901 2013/11/27)

>  <Rbt.Parameter_File>
/export/apps/rDock/src/rDock_2013.1_src/data/scripts/dock_solv.prm

>  <Rbt.Receptor>
prm/pocket_docking_6.prm

>  <SCORE>
-23.5493

>  <SCORE.INTER>
-13.4077

>  <SCORE.INTER.CONST>
1

>  <SCORE.INTER.POLAR>
0

>  <SCORE.INTER.ROT>
7

>  <SCORE.INTER.SOLV>
11.8376

>  <SCORE.INTER.VDW>
-21.151

>  <SCORE.INTER.norm>
-0.496581

>  <SCORE.INTRA>
-10.1417

>  <SCORE.INTRA.DIHEDRAL>
-9.15442

>  <SCORE.INTRA.DIHEDRAL.0>
15.0182

>  <SCORE.INTRA.POLAR>
0

>  <SCORE.INTRA.POLAR.0>
0

>  <SCORE.INTRA.REPUL>
0

>  <SCORE.INTRA.REPUL.0>
0

>  <SCORE.INTRA.SOLV>
-1.38343

>  <SCORE.INTRA.SOLV.lig_0>
-47.9129

>  <SCORE.INTRA.VDW>
-4.87273

>  <SCORE.INTRA.VDW.0>
2.00851

>  <SCORE.INTRA.norm>
-0.375617

>  <SCORE.RESTR>
0

>  <SCORE.RESTR.CAVITY>
0

>  <SCORE.RESTR.norm>
0

>  <SCORE.SYSTEM>
0

>  <SCORE.SYSTEM.CONST>
0

>  <SCORE.SYSTEM.DIHEDRAL>
0

>  <SCORE.SYSTEM.SOLV>
0

>  <SCORE.SYSTEM.norm>
0

>  <SCORE.heavy>
27

>  <SCORE.norm>
-0.872197

>  <RMSD>
5.920

$$$$
ligand
 OpenBabel11021811483D
libRbt.so/2013.1/901 2013/11/27
 27 29  0  0  0  0  0  0  0  0999 V2000
  -14.4595   -1.0158   31.3698 N   0  0  0  0  0  0  0  0  0  0  0  0
  -14.6576   -2.4443   31.6001 C   0  0  2  0  0  0  0  0  0  0  0  0
  -13.6723   -3.2920   30.7997 C   0  0  0  0  0  0  0  0  0  0  0  0
  -13.9099   -3.6136   29.6332 O   0  0  0  0  0  0  0  0  0  0  0  0
  -16.1004   -2.8476   31.3110 C   0  0  0  0  0  0  0  0  0  0  0  0
  -16.7302   -3.6713   32.4236 C   0  0  0  0  0  0  0  0  0  0  0  0
  -16.1560   -5.3870   32.4788 S   0  0  2  0  0  0  0  0  0  0  0  0
  -17.1486   -6.0210   33.8533 C   0  0  0  0  0  0  0  0  0  0  0  0
  -14.5386   -5.1838   33.2731 C   0  0  0  0  0  0  0  0  0  0  0  0
  -13.9410   -6.5542   33.5584 C   0  0  1  0  0  0  0  0  0  0  0  0
  -14.4826   -7.0304   34.7674 O   0  0  0  0  0  0  0  0  0  0  0  0
  -14.2623   -7.6363   32.5447 C   0  0  1  0  0  0  0  0  0  0  0  0
  -13.2229   -7.7669   31.6006 O   0  0  0  0  0  0  0  0  0  0  0  0
  -14.3517   -8.8866   33.3959 C   0  0  1  0  0  0  0  0  0  0  0  0
  -13.1943   -9.6558   33.1796 O   0  0  0  0  0  0  0  0  0  0  0  0
  -14.3940   -8.4299   34.8479 C   0  0  2  0  0  0  0  0  0  0  0  0
  -12.6193   -3.6765   31.3085 O   0  0  0  0  0  0  0  0  0  0  0  0
  -19.3895   -9.9591   34.1534 N   0  0  0  0  0  0  0  0  0  0  0  0
  -18.4994   -9.4989   33.2031 C   0  0  0  0  0  0  0  0  0  0  0  0
  -17.2151   -9.1342   33.5605 N   0  0  0  0  0  0  0  0  0  0  0  0
  -16.8145   -9.2197   34.8513 C   0  0  0  0  0  0  0  0  0  0  0  0
  -17.6934   -9.6885   35.8198 C   0  0  0  0  0  0  0  0  0  0  0  0
  -18.9870  -10.0544   35.4679 C   0  0  0  0  0  0  0  0  0  0  0  0
  -19.8317  -10.4944   36.3974 N   0  0  0  0  0  0  0  0  0  0  0  0
  -17.0464   -9.6804   37.0051 N   0  0  0  0  0  0  0  0  0  0  0  0
  -15.7829   -9.2371   36.8060 C   0  0  0  0  0  0  0  0  0  0  0  0
  -15.6209   -8.9471   35.4769 N   0  0  0  0  0  0  0  0  0  0  0  0
  2  1  1  6  0  0  0
  2  3  1  0  0  0  0
  2  5  1  0  0  0  0
  3  4  1  0  0  0  0
  3 17  1  0  0  0  0
  5  6  1  0  0  0  0
  7  6  1  1  0  0  0
  7  8  1  0  0  0  0
  7  9  1  0  0  0  0
 10  9  1  6  0  0  0
 10 11  1  0  0  0  0
 10 12  1  0  0  0  0
 11 16  1  0  0  0  0
 12 13  1  6  0  0  0
 12 14  1  0  0  0  0
 14 15  1  1  0  0  0
 14 16  1  0  0  0  0
 16 27  1  6  0  0  0
 18 19  2  0  0  0  0
 18 23  1  0  0  0  0
 19 20  1  0  0  0  0
 20 21  2  0  0  0  0
 21 22  1  0  0  0  0
 21 27  1  0  0  0  0
 22 23  2  0  0  0  0
 22 25  1  0  0  0  0
 23 24  1  0  0  0  0
 25 26  2  0  0  0  0
 26 27  1  0  0  0  0
M  END
>  <CHROM.1>
-85.62656258,-130.75293777,-75.13801413,-178.19289816,173.71477489,-83.00250144
84.24991004,-15.67827420,-6.86337259,33.39796228,1.15942104,0.22745391,-0.47013191

>  <Name>
ligand

>  <RI>
0

>  <Rbt.Current_Directory>
/home/itssahil/PROJECTS/Mol_Feturizer/New_Systems/rnas/3GX6

>  <Rbt.Executable>
rbdock ($Id: //depot/dev/client3/rdock/2013.1/src/exe/rbdock.cxx#4 $)

>  <Rbt.Library>
libRbt.so (2013.1, Build901 2013/11/27)

>  <Rbt.Parameter_File>
/export/apps/rDock/src/rDock_2013.1_src/data/scripts/dock_solv.prm

>  <Rbt.Receptor>
prm/pocket_docking_8.prm

>  <SCORE>
-22.3706

>  <SCORE.INTER>
-15.0166

>  <SCORE.INTER.CONST>
1

>  <SCORE.INTER.POLAR>
0

>  <SCORE.INTER.ROT>
7

>  <SCORE.INTER.SOLV>
15.4607

>  <SCORE.INTER.VDW>
-23.4313

>  <SCORE.INTER.norm>
-0.556171

>  <SCORE.INTRA>
-7.35402

>  <SCORE.INTRA.DIHEDRAL>
-3.79872

>  <SCORE.INTRA.DIHEDRAL.0>
15.0182

>  <SCORE.INTRA.POLAR>
0

>  <SCORE.INTRA.POLAR.0>
0

>  <SCORE.INTRA.REPUL>
0

>  <SCORE.INTRA.REPUL.0>
0

>  <SCORE.INTRA.SOLV>
-1.2152

>  <SCORE.INTRA.SOLV.lig_0>
-47.9129

>  <SCORE.INTRA.VDW>
-4.84706

>  <SCORE.INTRA.VDW.0>
2.00851

>  <SCORE.INTRA.norm>
-0.272371

>  <SCORE.RESTR>
0

>  <SCORE.RESTR.CAVITY>
0

>  <SCORE.RESTR.norm>
0

>  <SCORE.SYSTEM>
0

>  <SCORE.SYSTEM.CONST>
0

>  <SCORE.SYSTEM.DIHEDRAL>
0

>  <SCORE.SYSTEM.SOLV>
0

>  <SCORE.SYSTEM.norm>
0

>  <SCORE.heavy>
27

>  <SCORE.norm>
-0.828542

>  <RMSD>
5.927

$$$$
ligand
 OpenBabel11021811483D
libRbt.so/2013.1/901 2013/11/27
 27 29  0  0  0  0  0  0  0  0999 V2000
  -18.0761   -8.1650   34.1333 N   0  0  0  0  0  0  0  0  0  0  0  0
  -17.8420   -6.9106   33.4228 C   0  0  2  0  0  0  0  0  0  0  0  0
  -18.8530   -6.6953   32.2996 C   0  0  0  0  0  0  0  0  0  0  0  0
  -19.9276   -7.2998   32.2855 O   0  0  0  0  0  0  0  0  0  0  0  0
  -16.4095   -6.8386   32.9025 C   0  0  0  0  0  0  0  0  0  0  0  0
  -15.3644   -6.8897   34.0062 C   0  0  0  0  0  0  0  0  0  0  0  0
  -13.6651   -6.6922   33.4147 S   0  0  2  0  0  0  0  0  0  0  0  0
  -12.7662   -7.6183   34.6839 C   0  0  0  0  0  0  0  0  0  0  0  0
  -13.3230   -4.9827   33.9137 C   0  0  0  0  0  0  0  0  0  0  0  0
  -13.6721   -4.0433   32.7682 C   0  0  1  0  0  0  0  0  0  0  0  0
  -12.8095   -4.3194   31.6906 O   0  0  0  0  0  0  0  0  0  0  0  0
  -15.0661   -4.2000   32.1902 C   0  0  1  0  0  0  0  0  0  0  0  0
  -15.9566   -3.2682   32.7623 O   0  0  0  0  0  0  0  0  0  0  0  0
  -14.8636   -3.8910   30.7207 C   0  0  1  0  0  0  0  0  0  0  0  0
  -15.3865   -2.6120   30.4589 O   0  0  0  0  0  0  0  0  0  0  0  0
  -13.3611   -3.8858   30.4737 C   0  0  2  0  0  0  0  0  0  0  0  0
  -18.6104   -5.9139   31.3797 O   0  0  0  0  0  0  0  0  0  0  0  0
  -11.9117   -8.8369   29.3963 N   0  0  0  0  0  0  0  0  0  0  0  0
  -12.1199   -8.2603   30.6337 C   0  0  0  0  0  0  0  0  0  0  0  0
  -12.4986   -6.9351   30.7374 N   0  0  0  0  0  0  0  0  0  0  0  0
  -12.6659   -6.1829   29.6238 C   0  0  0  0  0  0  0  0  0  0  0  0
  -12.4692   -6.7483   28.3699 C   0  0  0  0  0  0  0  0  0  0  0  0
  -12.0858   -8.0792   28.2584 C   0  0  0  0  0  0  0  0  0  0  0  0
  -11.8882   -8.6179   27.0577 N   0  0  0  0  0  0  0  0  0  0  0  0
  -12.7067   -5.7947   27.4437 N   0  0  0  0  0  0  0  0  0  0  0  0
  -13.0632   -4.6534   28.0785 C   0  0  0  0  0  0  0  0  0  0  0  0
  -13.0439   -4.8752   29.4302 N   0  0  0  0  0  0  0  0  0  0  0  0
  2  1  1  6  0  0  0
  2  3  1  0  0  0  0
  2  5  1  0  0  0  0
  3  4  1  0  0  0  0
  3 17  1  0  0  0  0
  5  6  1  0  0  0  0
  7  6  1  1  0  0  0
  7  8  1  0  0  0  0
  7  9  1  0  0  0  0
 10  9  1  1  0  0  0
 10 11  1  0  0  0  0
 10 12  1  0  0  0  0
 11 16  1  0  0  0  0
 12 13  1  1  0  0  0
 12 14  1  0  0  0  0
 14 15  1  1  0  0  0
 14 16  1  0  0  0  0
 16 27  1  6  0  0  0
 18 19  2  0  0  0  0
 18 23  1  0  0  0  0
 19 20  1  0  0  0  0
 20 21  2  0  0  0  0
 21 22  1  0  0  0  0
 21 27  1  0  0  0  0
 22 23  2  0  0  0  0
 22 25  1  0  0  0  0
 23 24  1  0  0  0  0
 25 26  2  0  0  0  0
 26 27  1  0  0  0  0
M  END
>  <CHROM.1>
19.74750168,-61.20532749,-176.06431445,-151.97619866,-92.16055973,-64.60023184
19.22307071,-14.49321054,-6.04035849,31.37175420,-3.03022367,0.68484367,-0.24706107

>  <Name>
ligand

>  <RI>
0

>  <Rbt.Current_Directory>
/home/itssahil/PROJECTS/Mol_Feturizer/New_Systems/rnas/3GX6

>  <Rbt.Executable>
rbdock ($Id: //depot/dev/client3/rdock/2013.1/src/exe/rbdock.cxx#4 $)

>  <Rbt.Library>
libRbt.so (2013.1, Build901 2013/11/27)

>  <Rbt.Parameter_File>
/export/apps/rDock/src/rDock_2013.1_src/data/scripts/dock_solv.prm

>  <Rbt.Receptor>
prm/pocket_docking_8.prm

>  <SCORE>
-21.8001

>  <SCORE.INTER>
-12.5567

>  <SCORE.INTER.CONST>
1

>  <SCORE.INTER.POLAR>
0

>  <SCORE.INTER.ROT>
7

>  <SCORE.INTER.SOLV>
7.25523

>  <SCORE.INTER.VDW>
-19.0562

>  <SCORE.INTER.norm>
-0.465063

>  <SCORE.INTRA>
-9.24343

>  <SCORE.INTRA.DIHEDRAL>
-7.32515

>  <SCORE.INTRA.DIHEDRAL.0>
15.0182

>  <SCORE.INTRA.POLAR>
0

>  <SCORE.INTRA.POLAR.0>
0

>  <SCORE.INTRA.REPUL>
0

>  <SCORE.INTRA.REPUL.0>
0

>  <SCORE.INTRA.SOLV>
-0.519137

>  <SCORE.INTRA.SOLV.lig_0>
-47.9129

>  <SCORE.INTRA.VDW>
-5.32129

>  <SCORE.INTRA.VDW.0>
2.00851

>  <SCORE.INTRA.norm>
-0.342349

>  <SCORE.RESTR>
0

>  <SCORE.RESTR.CAVITY>
0

>  <SCORE.RESTR.norm>
0

>  <SCORE.SYSTEM>
0

>  <SCORE.SYSTEM.CONST>
0

>  <SCORE.SYSTEM.DIHEDRAL>
0

>  <SCORE.SYSTEM.SOLV>
0

>  <SCORE.SYSTEM.norm>
0

>  <SCORE.heavy>
27

>  <SCORE.norm>
-0.807413

>  <RMSD>
5.929

$$$$
ligand
 OpenBabel11021811483D
libRbt.so/2013.1/901 2013/11/27
 27 29  0  0  0  0  0  0  0  0999 V2000
  -16.3851   -3.6757   30.6506 N   0  0  0  0  0  0  0  0  0  0  0  0
  -16.4110   -2.8118   31.8278 C   0  0  2  0  0  0  0  0  0  0  0  0
  -16.8721   -1.3974   31.4859 C   0  0  0  0  0  0  0  0  0  0  0  0
  -16.1799   -0.6531   30.7880 O   0  0  0  0  0  0  0  0  0  0  0  0
  -15.0539   -2.8006   32.5251 C   0  0  0  0  0  0  0  0  0  0  0  0
  -14.5236   -4.1922   32.8336 C   0  0  0  0  0  0  0  0  0  0  0  0
  -12.9682   -4.1940   33.7594 S   0  0  2  0  0  0  0  0  0  0  0  0
  -11.9160   -3.2428   32.6349 C   0  0  0  0  0  0  0  0  0  0  0  0
  -12.3842   -5.8825   33.4488 C   0  0  0  0  0  0  0  0  0  0  0  0
  -13.5296   -6.8606   33.6672 C   0  0  1  0  0  0  0  0  0  0  0  0
  -14.2045   -7.0323   32.4438 O   0  0  0  0  0  0  0  0  0  0  0  0
  -13.1270   -8.2638   34.0804 C   0  0  1  0  0  0  0  0  0  0  0  0
  -13.1940   -8.4155   35.4809 O   0  0  0  0  0  0  0  0  0  0  0  0
  -14.1752   -9.1308   33.4129 C   0  0  1  0  0  0  0  0  0  0  0  0
  -15.0719   -9.5825   34.3977 O   0  0  0  0  0  0  0  0  0  0  0  0
  -14.9151   -8.2437   32.4208 C   0  0  2  0  0  0  0  0  0  0  0  0
  -17.9470   -0.9700   31.9073 O   0  0  0  0  0  0  0  0  0  0  0  0
  -11.7121   -9.6134   28.4660 N   0  0  0  0  0  0  0  0  0  0  0  0
  -11.3755   -9.0321   29.6726 C   0  0  0  0  0  0  0  0  0  0  0  0
  -12.3504   -8.7334   30.6056 N   0  0  0  0  0  0  0  0  0  0  0  0
  -13.6516   -9.0036   30.3451 C   0  0  0  0  0  0  0  0  0  0  0  0
  -14.0082   -9.5962   29.1400 C   0  0  0  0  0  0  0  0  0  0  0  0
  -13.0334   -9.8968   28.1964 C   0  0  0  0  0  0  0  0  0  0  0  0
  -13.3763  -10.4556   27.0382 N   0  0  0  0  0  0  0  0  0  0  0  0
  -15.3485   -9.7613   29.1402 N   0  0  0  0  0  0  0  0  0  0  0  0
  -15.8409   -9.3060   30.3161 C   0  0  0  0  0  0  0  0  0  0  0  0
  -14.8036   -8.8331   31.0759 N   0  0  0  0  0  0  0  0  0  0  0  0
  2  1  1  6  0  0  0
  2  3  1  0  0  0  0
  2  5  1  0  0  0  0
  3  4  1  0  0  0  0
  3 17  1  0  0  0  0
  5  6  1  0  0  0  0
  7  6  1  6  0  0  0
  7  8  1  0  0  0  0
  7  9  1  0  0  0  0
 10  9  1  6  0  0  0
 10 11  1  0  0  0  0
 10 12  1  0  0  0  0
 11 16  1  0  0  0  0
 12 13  1  1  0  0  0
 12 14  1  0  0  0  0
 14 15  1  1  0  0  0
 14 16  1  0  0  0  0
 16 27  1  6  0  0  0
 18 19  2  0  0  0  0
 18 23  1  0  0  0  0
 19 20  1  0  0  0  0
 20 21  2  0  0  0  0
 21 22  1  0  0  0  0
 21 27  1  0  0  0  0
 22 23  2  0  0  0  0
 22 25  1  0  0  0  0
 23 24  1  0  0  0  0
 25 26  2  0  0  0  0
 26 27  1  0  0  0  0
M  END
>  <CHROM.1>
-67.67677177,-52.23140175,-176.11030664,-57.94000777,-46.66425412,90.23852000
48.67941789,-14.19917567,-6.51845585,31.72165026,2.24663182,-1.11791952,0.90047051

>  <Name>
ligand

>  <RI>
0

>  <Rbt.Current_Directory>
/home/itssahil/PROJECTS/Mol_Feturizer/New_Systems/rnas/3GX6

>  <Rbt.Executable>
rbdock ($Id: //depot/dev/client3/rdock/2013.1/src/exe/rbdock.cxx#4 $)

>  <Rbt.Library>
libRbt.so (2013.1, Build901 2013/11/27)

>  <Rbt.Parameter_File>
/export/apps/rDock/src/rDock_2013.1_src/data/scripts/dock_solv.prm

>  <Rbt.Receptor>
prm/pocket_docking_3.prm

>  <SCORE>
-27.3911

>  <SCORE.INTER>
-19.7797

>  <SCORE.INTER.CONST>
1

>  <SCORE.INTER.POLAR>
0

>  <SCORE.INTER.ROT>
7

>  <SCORE.INTER.SOLV>
14.1805

>  <SCORE.INTER.VDW>
-26.18

>  <SCORE.INTER.norm>
-0.732581

>  <SCORE.INTRA>
-7.61611

>  <SCORE.INTRA.DIHEDRAL>
-7.31179

>  <SCORE.INTRA.DIHEDRAL.0>
15.0182

>  <SCORE.INTRA.POLAR>
0

>  <SCORE.INTRA.POLAR.0>
0

>  <SCORE.INTRA.REPUL>
0

>  <SCORE.INTRA.REPUL.0>
0

>  <SCORE.INTRA.SOLV>
-0.998765

>  <SCORE.INTRA.SOLV.lig_0>
-47.9129

>  <SCORE.INTRA.VDW>
-3.46083

>  <SCORE.INTRA.VDW.0>
2.00851

>  <SCORE.INTRA.norm>
-0.282078

>  <SCORE.RESTR>
0.00471313

>  <SCORE.RESTR.CAVITY>
0.00471313

>  <SCORE.RESTR.norm>
0.00017456

>  <SCORE.SYSTEM>
0

>  <SCORE.SYSTEM.CONST>
0

>  <SCORE.SYSTEM.DIHEDRAL>
0

>  <SCORE.SYSTEM.SOLV>
0

>  <SCORE.SYSTEM.norm>
0

>  <SCORE.heavy>
27

>  <SCORE.norm>
-1.01448

>  <RMSD>
5.936

$$$$
ligand
 OpenBabel11021811483D
libRbt.so/2013.1/901 2013/11/27
 27 29  0  0  0  0  0  0  0  0999 V2000
  -16.1044   -3.5778   32.6880 N   0  0  0  0  0  0  0  0  0  0  0  0
  -15.2593   -2.5918   32.0197 C   0  0  2  0  0  0  0  0  0  0  0  0
  -16.0466   -1.3484   31.6147 C   0  0  0  0  0  0  0  0  0  0  0  0
  -15.5104   -0.4305   30.9899 O   0  0  0  0  0  0  0  0  0  0  0  0
  -14.5430   -3.2102   30.8230 C   0  0  0  0  0  0  0  0  0  0  0  0
  -13.3197   -4.0272   31.2094 C   0  0  0  0  0  0  0  0  0  0  0  0
  -13.6339   -5.2441   32.5119 S   0  0  2  0  0  0  0  0  0  0  0  0
  -12.8854   -4.4063   33.9312 C   0  0  0  0  0  0  0  0  0  0  0  0
  -12.3734   -6.4907   32.1304 C   0  0  0  0  0  0  0  0  0  0  0  0
  -13.0244   -7.6618   31.4086 C   0  0  1  0  0  0  0  0  0  0  0  0
  -13.8882   -8.3125   32.3097 O   0  0  0  0  0  0  0  0  0  0  0  0
  -13.9070   -7.2994   30.2290 C   0  0  1  0  0  0  0  0  0  0  0  0
  -13.1944   -7.4013   29.0163 O   0  0  0  0  0  0  0  0  0  0  0  0
  -14.9967   -8.3509   30.2815 C   0  0  1  0  0  0  0  0  0  0  0  0
  -14.7693   -9.2793   29.2499 O   0  0  0  0  0  0  0  0  0  0  0  0
  -14.8722   -9.0486   31.6293 C   0  0  2  0  0  0  0  0  0  0  0  0
  -17.2364   -1.2363   31.9105 O   0  0  0  0  0  0  0  0  0  0  0  0
  -17.3384   -9.3198   36.2789 N   0  0  0  0  0  0  0  0  0  0  0  0
  -16.0005   -9.5318   36.0106 C   0  0  0  0  0  0  0  0  0  0  0  0
  -15.5156   -9.4213   34.7210 N   0  0  0  0  0  0  0  0  0  0  0  0
  -16.3501   -9.1076   33.7016 C   0  0  0  0  0  0  0  0  0  0  0  0
  -17.6977   -8.8823   33.9538 C   0  0  0  0  0  0  0  0  0  0  0  0
  -18.1924   -8.9943   35.2475 C   0  0  0  0  0  0  0  0  0  0  0  0
  -19.4850   -8.7879   35.4874 N   0  0  0  0  0  0  0  0  0  0  0  0
  -18.2945   -8.5832   32.7800 N   0  0  0  0  0  0  0  0  0  0  0  0
  -17.3583   -8.5970   31.8022 C   0  0  0  0  0  0  0  0  0  0  0  0
  -16.1471   -8.9196   32.3548 N   0  0  0  0  0  0  0  0  0  0  0  0
  2  1  1  6  0  0  0
  2  3  1  0  0  0  0
  2  5  1  0  0  0  0
  3  4  1  0  0  0  0
  3 17  1  0  0  0  0
  5  6  1  0  0  0  0
  7  6  1  6  0  0  0
  7  8  1  0  0  0  0
  7  9  1  0  0  0  0
 10  9  1  1  0  0  0
 10 11  1  0  0  0  0
 10 12  1  0  0  0  0
 11 16  1  0  0  0  0
 12 13  1  6  0  0  0
 12 14  1  0  0  0  0
 14 15  1  6  0  0  0
 14 16  1  0  0  0  0
 16 27  1  1  0  0  0
 18 19  2  0  0  0  0
 18 23  1  0  0  0  0
 19 20  1  0  0  0  0
 20 21  2  0  0  0  0
 21 22  1  0  0  0  0
 21 27  1  0  0  0  0
 22 23  2  0  0  0  0
 22 25  1  0  0  0  0
 23 24  1  0  0  0  0
 25 26  2  0  0  0  0
 26 27  1  0  0  0  0
M  END
>  <CHROM.1>
-177.03210975,-79.59781614,50.55381747,-103.49588041,-101.66543359,-67.15155003
-49.54997107,-15.34131530,-6.52561755,32.39477070,1.18281781,0.75991867,-0.08834753

>  <Name>
ligand

>  <RI>
0

>  <Rbt.Current_Directory>
/home/itssahil/PROJECTS/Mol_Feturizer/New_Systems/rnas/3GX6

>  <Rbt.Executable>
rbdock ($Id: //depot/dev/client3/rdock/2013.1/src/exe/rbdock.cxx#4 $)

>  <Rbt.Library>
libRbt.so (2013.1, Build901 2013/11/27)

>  <Rbt.Parameter_File>
/export/apps/rDock/src/rDock_2013.1_src/data/scripts/dock_solv.prm

>  <Rbt.Receptor>
prm/pocket_docking_6.prm

>  <SCORE>
-19.1747

>  <SCORE.INTER>
-13.2819

>  <SCORE.INTER.CONST>
1

>  <SCORE.INTER.POLAR>
0

>  <SCORE.INTER.ROT>
7

>  <SCORE.INTER.SOLV>
11.9899

>  <SCORE.INTER.VDW>
-21.1179

>  <SCORE.INTER.norm>
-0.491924

>  <SCORE.INTRA>
-5.89274

>  <SCORE.INTRA.DIHEDRAL>
-4.58505

>  <SCORE.INTRA.DIHEDRAL.0>
15.0182

>  <SCORE.INTRA.POLAR>
0

>  <SCORE.INTRA.POLAR.0>
0

>  <SCORE.INTRA.REPUL>
0

>  <SCORE.INTRA.REPUL.0>
0

>  <SCORE.INTRA.SOLV>
1.13674

>  <SCORE.INTRA.SOLV.lig_0>
-47.9129

>  <SCORE.INTRA.VDW>
-4.16858

>  <SCORE.INTRA.VDW.0>
2.00851

>  <SCORE.INTRA.norm>
-0.218249

>  <SCORE.RESTR>
0

>  <SCORE.RESTR.CAVITY>
0

>  <SCORE.RESTR.norm>
0

>  <SCORE.SYSTEM>
0

>  <SCORE.SYSTEM.CONST>
0

>  <SCORE.SYSTEM.DIHEDRAL>
0

>  <SCORE.SYSTEM.SOLV>
0

>  <SCORE.SYSTEM.norm>
0

>  <SCORE.heavy>
27

>  <SCORE.norm>
-0.710173

>  <RMSD>
5.960

$$$$
ligand
 OpenBabel11021811483D
libRbt.so/2013.1/901 2013/11/27
 27 29  0  0  0  0  0  0  0  0999 V2000
  -20.5167   -7.5495   32.8562 N   0  0  0  0  0  0  0  0  0  0  0  0
  -19.2811   -7.3533   32.1027 C   0  0  2  0  0  0  0  0  0  0  0  0
  -19.2624   -8.1748   30.8163 C   0  0  0  0  0  0  0  0  0  0  0  0
  -18.8303   -7.6998   29.7636 O   0  0  0  0  0  0  0  0  0  0  0  0
  -18.0614   -7.6508   32.9698 C   0  0  0  0  0  0  0  0  0  0  0  0
  -17.7979   -6.5868   34.0242 C   0  0  0  0  0  0  0  0  0  0  0  0
  -16.7209   -5.2467   33.4583 S   0  0  2  0  0  0  0  0  0  0  0  0
  -17.6325   -4.6875   31.9979 C   0  0  0  0  0  0  0  0  0  0  0  0
  -15.3714   -6.1877   32.6955 C   0  0  0  0  0  0  0  0  0  0  0  0
  -14.2683   -5.2306   32.2671 C   0  0  1  0  0  0  0  0  0  0  0  0
  -13.3499   -5.9412   31.4713 O   0  0  0  0  0  0  0  0  0  0  0  0
  -14.7071   -4.0680   31.3966 C   0  0  1  0  0  0  0  0  0  0  0  0
  -14.9273   -2.9118   32.1734 O   0  0  0  0  0  0  0  0  0  0  0  0
  -13.5187   -3.8598   30.4798 C   0  0  1  0  0  0  0  0  0  0  0  0
  -12.8328   -2.7047   30.8959 O   0  0  0  0  0  0  0  0  0  0  0  0
  -12.6153   -5.0743   30.6456 C   0  0  2  0  0  0  0  0  0  0  0  0
  -19.6854   -9.3309   30.8051 O   0  0  0  0  0  0  0  0  0  0  0  0
  -14.4544   -5.6875   25.7448 N   0  0  0  0  0  0  0  0  0  0  0  0
  -14.9826   -4.9186   26.7630 C   0  0  0  0  0  0  0  0  0  0  0  0
  -14.3689   -4.8724   28.0005 N   0  0  0  0  0  0  0  0  0  0  0  0
  -13.2415   -5.5862   28.2314 C   0  0  0  0  0  0  0  0  0  0  0  0
  -12.6907   -6.3588   27.2163 C   0  0  0  0  0  0  0  0  0  0  0  0
  -13.3040   -6.4119   25.9706 C   0  0  0  0  0  0  0  0  0  0  0  0
  -12.7816   -7.1595   25.0014 N   0  0  0  0  0  0  0  0  0  0  0  0
  -11.5804   -6.9530   27.7040 N   0  0  0  0  0  0  0  0  0  0  0  0
  -11.4089   -6.5626   28.9889 C   0  0  0  0  0  0  0  0  0  0  0  0
  -12.4287   -5.7149   29.3328 N   0  0  0  0  0  0  0  0  0  0  0  0
  2  1  1  1  0  0  0
  2  3  1  0  0  0  0
  2  5  1  0  0  0  0
  3  4  1  0  0  0  0
  3 17  1  0  0  0  0
  5  6  1  0  0  0  0
  7  6  1  1  0  0  0
  7  8  1  0  0  0  0
  7  9  1  0  0  0  0
 10  9  1  6  0  0  0
 10 11  1  0  0  0  0
 10 12  1  0  0  0  0
 11 16  1  0  0  0  0
 12 13  1  1  0  0  0
 12 14  1  0  0  0  0
 14 15  1  1  0  0  0
 14 16  1  0  0  0  0
 16 27  1  6  0  0  0
 18 19  2  0  0  0  0
 18 23  1  0  0  0  0
 19 20  1  0  0  0  0
 20 21  2  0  0  0  0
 21 22  1  0  0  0  0
 21 27  1  0  0  0  0
 22 23  2  0  0  0  0
 22 25  1  0  0  0  0
 23 24  1  0  0  0  0
 25 26  2  0  0  0  0
 26 27  1  0  0  0  0
M  END
>  <CHROM.1>
138.60887410,-72.45829872,-89.55777315,55.94016238,-174.41151980,-169.63612837
92.03153510,-15.33980483,-5.90108899,30.37112991,2.61574673,0.51549573,1.11799299

>  <Name>
ligand

>  <RI>
0

>  <Rbt.Current_Directory>
/home/itssahil/PROJECTS/Mol_Feturizer/New_Systems/rnas/3GX6

>  <Rbt.Executable>
rbdock ($Id: //depot/dev/client3/rdock/2013.1/src/exe/rbdock.cxx#4 $)

>  <Rbt.Library>
libRbt.so (2013.1, Build901 2013/11/27)

>  <Rbt.Parameter_File>
/export/apps/rDock/src/rDock_2013.1_src/data/scripts/dock_solv.prm

>  <Rbt.Receptor>
prm/pocket_docking_7.prm

>  <SCORE>
-16.1465

>  <SCORE.INTER>
-10.173

>  <SCORE.INTER.CONST>
1

>  <SCORE.INTER.POLAR>
0

>  <SCORE.INTER.ROT>
7

>  <SCORE.INTER.SOLV>
12.7712

>  <SCORE.INTER.VDW>
-19.3058

>  <SCORE.INTER.norm>
-0.376779

>  <SCORE.INTRA>
-5.9735

>  <SCORE.INTRA.DIHEDRAL>
-7.53012

>  <SCORE.INTRA.DIHEDRAL.0>
15.0182

>  <SCORE.INTRA.POLAR>
0

>  <SCORE.INTRA.POLAR.0>
0

>  <SCORE.INTRA.REPUL>
0

>  <SCORE.INTRA.REPUL.0>
0

>  <SCORE.INTRA.SOLV>
-0.284021

>  <SCORE.INTRA.SOLV.lig_0>
-47.9129

>  <SCORE.INTRA.VDW>
-2.06643

>  <SCORE.INTRA.VDW.0>
2.00851

>  <SCORE.INTRA.norm>
-0.221241

>  <SCORE.RESTR>
0

>  <SCORE.RESTR.CAVITY>
0

>  <SCORE.RESTR.norm>
0

>  <SCORE.SYSTEM>
0

>  <SCORE.SYSTEM.CONST>
0

>  <SCORE.SYSTEM.DIHEDRAL>
0

>  <SCORE.SYSTEM.SOLV>
0

>  <SCORE.SYSTEM.norm>
0

>  <SCORE.heavy>
27

>  <SCORE.norm>
-0.59802

>  <RMSD>
6.004

$$$$
ligand
 OpenBabel11021811483D
libRbt.so/2013.1/901 2013/11/27
 27 29  0  0  0  0  0  0  0  0999 V2000
  -13.6662   -6.5439   27.5120 N   0  0  0  0  0  0  0  0  0  0  0  0
  -12.9560   -5.6857   28.4565 C   0  0  2  0  0  0  0  0  0  0  0  0
  -11.6950   -6.3549   28.9967 C   0  0  0  0  0  0  0  0  0  0  0  0
  -10.5877   -6.1134   28.5108 O   0  0  0  0  0  0  0  0  0  0  0  0
  -13.8779   -5.2417   29.5883 C   0  0  0  0  0  0  0  0  0  0  0  0
  -13.2410   -4.2214   30.5190 C   0  0  0  0  0  0  0  0  0  0  0  0
  -14.2883   -3.7540   31.9194 S   0  0  2  0  0  0  0  0  0  0  0  0
  -13.1557   -2.6754   32.8306 C   0  0  0  0  0  0  0  0  0  0  0  0
  -14.2211   -5.2651   32.9196 C   0  0  0  0  0  0  0  0  0  0  0  0
  -15.5262   -6.0322   32.7629 C   0  0  1  0  0  0  0  0  0  0  0  0
  -15.3961   -7.2675   33.4254 O   0  0  0  0  0  0  0  0  0  0  0  0
  -16.7474   -5.3889   33.3928 C   0  0  1  0  0  0  0  0  0  0  0  0
  -17.4752   -4.6479   32.4389 O   0  0  0  0  0  0  0  0  0  0  0  0
  -17.5608   -6.5804   33.8563 C   0  0  1  0  0  0  0  0  0  0  0  0
  -18.6520   -6.7407   32.9837 O   0  0  0  0  0  0  0  0  0  0  0  0
  -16.6520   -7.7986   33.7623 C   0  0  2  0  0  0  0  0  0  0  0  0
  -11.7613   -7.1563   29.9289 O   0  0  0  0  0  0  0  0  0  0  0  0
  -13.6290   -8.7897   37.9641 N   0  0  0  0  0  0  0  0  0  0  0  0
  -13.2960   -8.0903   36.8209 C   0  0  0  0  0  0  0  0  0  0  0  0
  -14.2176   -7.9243   35.8043 N   0  0  0  0  0  0  0  0  0  0  0  0
  -15.4602   -8.4511   35.9155 C   0  0  0  0  0  0  0  0  0  0  0  0
  -15.8160   -9.1506   37.0621 C   0  0  0  0  0  0  0  0  0  0  0  0
  -14.8936   -9.3235   38.0868 C   0  0  0  0  0  0  0  0  0  0  0  0
  -15.2316  -10.0017   39.1808 N   0  0  0  0  0  0  0  0  0  0  0  0
  -17.0960   -9.5564   36.9192 N   0  0  0  0  0  0  0  0  0  0  0  0
  -17.5589   -9.1176   35.7251 C   0  0  0  0  0  0  0  0  0  0  0  0
  -16.5590   -8.4301   35.0894 N   0  0  0  0  0  0  0  0  0  0  0  0
  2  1  1  6  0  0  0
  2  3  1  0  0  0  0
  2  5  1  0  0  0  0
  3  4  1  0  0  0  0
  3 17  1  0  0  0  0
  5  6  1  0  0  0  0
  7  6  1  6  0  0  0
  7  8  1  0  0  0  0
  7  9  1  0  0  0  0
 10  9  1  1  0  0  0
 10 11  1  0  0  0  0
 10 12  1  0  0  0  0
 11 16  1  0  0  0  0
 12 13  1  6  0  0  0
 12 14  1  0  0  0  0
 14 15  1  6  0  0  0
 14 16  1  0  0  0  0
 16 27  1  1  0  0  0
 18 19  2  0  0  0  0
 18 23  1  0  0  0  0
 19 20  1  0  0  0  0
 20 21  2  0  0  0  0
 21 22  1  0  0  0  0
 21 27  1  0  0  0  0
 22 23  2  0  0  0  0
 22 25  1  0  0  0  0
 23 24  1  0  0  0  0
 25 26  2  0  0  0  0
 26 27  1  0  0  0  0
M  END
>  <CHROM.1>
97.54232792,-173.53773279,-176.77390782,175.42856377,-103.95667128,173.57236642
3.17964972,-14.81588434,-6.69121856,33.25026808,-1.21621264,-0.29714714,2.13504036

>  <Name>
ligand

>  <RI>
0

>  <Rbt.Current_Directory>
/home/itssahil/PROJECTS/Mol_Feturizer/New_Systems/rnas/3GX6

>  <Rbt.Executable>
rbdock ($Id: //depot/dev/client3/rdock/2013.1/src/exe/rbdock.cxx#4 $)

>  <Rbt.Library>
libRbt.so (2013.1, Build901 2013/11/27)

>  <Rbt.Parameter_File>
/export/apps/rDock/src/rDock_2013.1_src/data/scripts/dock_solv.prm

>  <Rbt.Receptor>
prm/pocket_docking_6.prm

>  <SCORE>
-28.2264

>  <SCORE.INTER>
-18.3829

>  <SCORE.INTER.CONST>
1

>  <SCORE.INTER.POLAR>
0

>  <SCORE.INTER.ROT>
7

>  <SCORE.INTER.SOLV>
12.6624

>  <SCORE.INTER.VDW>
-24.7427

>  <SCORE.INTER.norm>
-0.680849

>  <SCORE.INTRA>
-9.84347

>  <SCORE.INTRA.DIHEDRAL>
-8.68809

>  <SCORE.INTRA.DIHEDRAL.0>
15.0182

>  <SCORE.INTRA.POLAR>
0

>  <SCORE.INTRA.POLAR.0>
0

>  <SCORE.INTRA.REPUL>
0

>  <SCORE.INTRA.REPUL.0>
0

>  <SCORE.INTRA.SOLV>
-1.70074

>  <SCORE.INTRA.SOLV.lig_0>
-47.9129

>  <SCORE.INTRA.VDW>
-4.64905

>  <SCORE.INTRA.VDW.0>
2.00851

>  <SCORE.INTRA.norm>
-0.364573

>  <SCORE.RESTR>
0

>  <SCORE.RESTR.CAVITY>
0

>  <SCORE.RESTR.norm>
0

>  <SCORE.SYSTEM>
0

>  <SCORE.SYSTEM.CONST>
0

>  <SCORE.SYSTEM.DIHEDRAL>
0

>  <SCORE.SYSTEM.SOLV>
0

>  <SCORE.SYSTEM.norm>
0

>  <SCORE.heavy>
27

>  <SCORE.norm>
-1.04542

>  <RMSD>
6.027

$$$$
ligand
 OpenBabel11021811483D
libRbt.so/2013.1/901 2013/11/27
 27 29  0  0  0  0  0  0  0  0999 V2000
  -13.6998   -8.4030   34.3919 N   0  0  0  0  0  0  0  0  0  0  0  0
  -14.0480   -8.3957   32.9736 C   0  0  2  0  0  0  0  0  0  0  0  0
  -13.1148   -7.5003   32.1629 C   0  0  0  0  0  0  0  0  0  0  0  0
  -12.8001   -7.7897   31.0063 O   0  0  0  0  0  0  0  0  0  0  0  0
  -15.5085   -8.0022   32.7734 C   0  0  0  0  0  0  0  0  0  0  0  0
  -15.8530   -6.6440   33.3648 C   0  0  0  0  0  0  0  0  0  0  0  0
  -17.6287   -6.2971   33.4158 S   0  0  2  0  0  0  0  0  0  0  0  0
  -18.2287   -7.7808   34.2615 C   0  0  0  0  0  0  0  0  0  0  0  0
  -18.0986   -6.6517   31.7006 C   0  0  0  0  0  0  0  0  0  0  0  0
  -17.7993   -5.4369   30.8341 C   0  0  1  0  0  0  0  0  0  0  0  0
  -16.4067   -5.2308   30.8264 O   0  0  0  0  0  0  0  0  0  0  0  0
  -18.1736   -5.5649   29.3694 C   0  0  1  0  0  0  0  0  0  0  0  0
  -19.4386   -4.9936   29.1207 O   0  0  0  0  0  0  0  0  0  0  0  0
  -17.0946   -4.7636   28.6695 C   0  0  1  0  0  0  0  0  0  0  0  0
  -17.6521   -3.5456   28.2414 O   0  0  0  0  0  0  0  0  0  0  0  0
  -16.0085   -4.4904   29.7012 C   0  0  2  0  0  0  0  0  0  0  0  0
  -12.6526   -6.4700   32.6534 O   0  0  0  0  0  0  0  0  0  0  0  0
  -13.4099   -6.6316   25.6468 N   0  0  0  0  0  0  0  0  0  0  0  0
  -14.7299   -6.2290   25.6955 C   0  0  0  0  0  0  0  0  0  0  0  0
  -15.2569   -5.6840   26.8512 N   0  0  0  0  0  0  0  0  0  0  0  0
  -14.4840   -5.5422   27.9541 C   0  0  0  0  0  0  0  0  0  0  0  0
  -13.1513   -5.9337   27.9212 C   0  0  0  0  0  0  0  0  0  0  0  0
  -12.6157   -6.4849   26.7634 C   0  0  0  0  0  0  0  0  0  0  0  0
  -11.3418   -6.8686   26.7350 N   0  0  0  0  0  0  0  0  0  0  0  0
  -12.6146   -5.6791   29.1339 N   0  0  0  0  0  0  0  0  0  0  0  0
  -13.5660   -5.1237   29.9207 C   0  0  0  0  0  0  0  0  0  0  0  0
  -14.7311   -5.0306   29.2062 N   0  0  0  0  0  0  0  0  0  0  0  0
  2  1  1  1  0  0  0
  2  3  1  0  0  0  0
  2  5  1  0  0  0  0
  3  4  1  0  0  0  0
  3 17  1  0  0  0  0
  5  6  1  0  0  0  0
  7  6  1  6  0  0  0
  7  8  1  0  0  0  0
  7  9  1  0  0  0  0
 10  9  1  1  0  0  0
 10 11  1  0  0  0  0
 10 12  1  0  0  0  0
 11 16  1  0  0  0  0
 12 13  1  1  0  0  0
 12 14  1  0  0  0  0
 14 15  1  1  0  0  0
 14 16  1  0  0  0  0
 16 27  1  6  0  0  0
 18 19  2  0  0  0  0
 18 23  1  0  0  0  0
 19 20  1  0  0  0  0
 20 21  2  0  0  0  0
 21 22  1  0  0  0  0
 21 27  1  0  0  0  0
 22 23  2  0  0  0  0
 22 25  1  0  0  0  0
 23 24  1  0  0  0  0
 25 26  2  0  0  0  0
 26 27  1  0  0  0  0
M  END
>  <CHROM.1>
145.69233991,57.51790344,-169.10369288,52.42567199,-82.61578916,64.60686470
121.08948216,-15.35579043,-6.19321445,30.27054838,-2.03459257,0.31210444
-1.24524352

>  <Name>
ligand

>  <RI>
0

>  <Rbt.Current_Directory>
/home/itssahil/PROJECTS/Mol_Feturizer/New_Systems/rnas/3GX6

>  <Rbt.Executable>
rbdock ($Id: //depot/dev/client3/rdock/2013.1/src/exe/rbdock.cxx#4 $)

>  <Rbt.Library>
libRbt.so (2013.1, Build901 2013/11/27)

>  <Rbt.Parameter_File>
/export/apps/rDock/src/rDock_2013.1_src/data/scripts/dock_solv.prm

>  <Rbt.Receptor>
prm/pocket_docking_5.prm

>  <SCORE>
-17.9795

>  <SCORE.INTER>
-8.56931

>  <SCORE.INTER.CONST>
1

>  <SCORE.INTER.POLAR>
0

>  <SCORE.INTER.ROT>
7

>  <SCORE.INTER.SOLV>
13.5818

>  <SCORE.INTER.VDW>
-18.5068

>  <SCORE.INTER.norm>
-0.317382

>  <SCORE.INTRA>
-9.41022

>  <SCORE.INTRA.DIHEDRAL>
-10.7003

>  <SCORE.INTRA.DIHEDRAL.0>
15.0182

>  <SCORE.INTRA.POLAR>
0

>  <SCORE.INTRA.POLAR.0>
0

>  <SCORE.INTRA.REPUL>
0

>  <SCORE.INTRA.REPUL.0>
0

>  <SCORE.INTRA.SOLV>
-0.744324

>  <SCORE.INTRA.SOLV.lig_0>
-47.9129

>  <SCORE.INTRA.VDW>
-3.68792

>  <SCORE.INTRA.VDW.0>
2.00851

>  <SCORE.INTRA.norm>
-0.348527

>  <SCORE.RESTR>
0

>  <SCORE.RESTR.CAVITY>
0

>  <SCORE.RESTR.norm>
0

>  <SCORE.SYSTEM>
0

>  <SCORE.SYSTEM.CONST>
0

>  <SCORE.SYSTEM.DIHEDRAL>
0

>  <SCORE.SYSTEM.SOLV>
0

>  <SCORE.SYSTEM.norm>
0

>  <SCORE.heavy>
27

>  <SCORE.norm>
-0.665909

>  <RMSD>
6.046

$$$$
ligand
 OpenBabel11021811483D
libRbt.so/2013.1/901 2013/11/27
 27 29  0  0  0  0  0  0  0  0999 V2000
  -13.1606   -5.1371   31.0633 N   0  0  0  0  0  0  0  0  0  0  0  0
  -12.8071   -5.2652   32.4745 C   0  0  2  0  0  0  0  0  0  0  0  0
  -12.4369   -6.7000   32.8407 C   0  0  0  0  0  0  0  0  0  0  0  0
  -11.9036   -6.9644   33.9206 O   0  0  0  0  0  0  0  0  0  0  0  0
  -13.9258   -4.7350   33.3664 C   0  0  0  0  0  0  0  0  0  0  0  0
  -14.2787   -3.2816   33.0903 C   0  0  0  0  0  0  0  0  0  0  0  0
  -15.2999   -3.0440   31.6149 S   0  0  2  0  0  0  0  0  0  0  0  0
  -15.0785   -1.2678   31.3453 C   0  0  0  0  0  0  0  0  0  0  0  0
  -16.9632   -3.0889   32.3359 C   0  0  0  0  0  0  0  0  0  0  0  0
  -17.5332   -4.4937   32.2020 C   0  0  1  0  0  0  0  0  0  0  0  0
  -17.3934   -4.9024   30.8622 O   0  0  0  0  0  0  0  0  0  0  0  0
  -16.8264   -5.5700   33.0044 C   0  0  1  0  0  0  0  0  0  0  0  0
  -17.4841   -5.7979   34.2309 O   0  0  0  0  0  0  0  0  0  0  0  0
  -16.9448   -6.7919   32.1162 C   0  0  1  0  0  0  0  0  0  0  0  0
  -17.9139   -7.6497   32.6664 O   0  0  0  0  0  0  0  0  0  0  0  0
  -17.4147   -6.3026   30.7529 C   0  0  2  0  0  0  0  0  0  0  0  0
  -12.6605   -7.6238   32.0582 O   0  0  0  0  0  0  0  0  0  0  0  0
  -15.8292  -10.0843   27.4423 N   0  0  0  0  0  0  0  0  0  0  0  0
  -16.9052  -10.1057   28.3077 C   0  0  0  0  0  0  0  0  0  0  0  0
  -17.1798   -9.0184   29.1155 N   0  0  0  0  0  0  0  0  0  0  0  0
  -16.3921   -7.9178   29.0713 C   0  0  0  0  0  0  0  0  0  0  0  0
  -15.3101   -7.8748   28.2007 C   0  0  0  0  0  0  0  0  0  0  0  0
  -15.0266   -8.9654   27.3876 C   0  0  0  0  0  0  0  0  0  0  0  0
  -13.9846   -8.9277   26.5607 N   0  0  0  0  0  0  0  0  0  0  0  0
  -14.7057   -6.6764   28.3499 N   0  0  0  0  0  0  0  0  0  0  0  0
  -15.3864   -5.9602   29.2752 C   0  0  0  0  0  0  0  0  0  0  0  0
  -16.4351   -6.7134   29.7330 N   0  0  0  0  0  0  0  0  0  0  0  0
  2  1  1  6  0  0  0
  2  3  1  0  0  0  0
  2  5  1  0  0  0  0
  3  4  1  0  0  0  0
  3 17  1  0  0  0  0
  5  6  1  0  0  0  0
  7  6  1  1  0  0  0
  7  8  1  0  0  0  0
  7  9  1  0  0  0  0
 10  9  1  6  0  0  0
 10 11  1  0  0  0  0
 10 12  1  0  0  0  0
 11 16  1  0  0  0  0
 12 13  1  1  0  0  0
 12 14  1  0  0  0  0
 14 15  1  1  0  0  0
 14 16  1  0  0  0  0
 16 27  1  6  0  0  0
 18 19  2  0  0  0  0
 18 23  1  0  0  0  0
 19 20  1  0  0  0  0
 20 21  2  0  0  0  0
 21 22  1  0  0  0  0
 21 27  1  0  0  0  0
 22 23  2  0  0  0  0
 22 25  1  0  0  0  0
 23 24  1  0  0  0  0
 25 26  2  0  0  0  0
 26 27  1  0  0  0  0
M  END
>  <CHROM.1>
167.98931108,-57.82682460,77.80719470,-163.64834232,-96.12574842,-50.75599793
-161.09977572,-15.43916850,-6.12845557,30.98646111,-1.48197892,0.16372165
-2.41215347

>  <Name>
ligand

>  <RI>
0

>  <Rbt.Current_Directory>
/home/itssahil/PROJECTS/Mol_Feturizer/New_Systems/rnas/3GX6

>  <Rbt.Executable>
rbdock ($Id: //depot/dev/client3/rdock/2013.1/src/exe/rbdock.cxx#4 $)

>  <Rbt.Library>
libRbt.so (2013.1, Build901 2013/11/27)

>  <Rbt.Parameter_File>
/export/apps/rDock/src/rDock_2013.1_src/data/scripts/dock_solv.prm

>  <Rbt.Receptor>
prm/pocket_docking_5.prm

>  <SCORE>
-19.7731

>  <SCORE.INTER>
-11.578

>  <SCORE.INTER.CONST>
1

>  <SCORE.INTER.POLAR>
0

>  <SCORE.INTER.ROT>
7

>  <SCORE.INTER.SOLV>
7.32922

>  <SCORE.INTER.VDW>
-18.4284

>  <SCORE.INTER.norm>
-0.428814

>  <SCORE.INTRA>
-8.19508

>  <SCORE.INTRA.DIHEDRAL>
-6.93171

>  <SCORE.INTRA.DIHEDRAL.0>
15.0182

>  <SCORE.INTRA.POLAR>
0

>  <SCORE.INTRA.POLAR.0>
0

>  <SCORE.INTRA.REPUL>
0

>  <SCORE.INTRA.REPUL.0>
0

>  <SCORE.INTRA.SOLV>
2.43709

>  <SCORE.INTRA.SOLV.lig_0>
-47.9129

>  <SCORE.INTRA.VDW>
-5.94777

>  <SCORE.INTRA.VDW.0>
2.00851

>  <SCORE.INTRA.norm>
-0.303521

>  <SCORE.RESTR>
0

>  <SCORE.RESTR.CAVITY>
0

>  <SCORE.RESTR.norm>
0

>  <SCORE.SYSTEM>
0

>  <SCORE.SYSTEM.CONST>
0

>  <SCORE.SYSTEM.DIHEDRAL>
0

>  <SCORE.SYSTEM.SOLV>
0

>  <SCORE.SYSTEM.norm>
0

>  <SCORE.heavy>
27

>  <SCORE.norm>
-0.732336

>  <RMSD>
6.067

$$$$
ligand
 OpenBabel11021811483D
libRbt.so/2013.1/901 2013/11/27
 27 29  0  0  0  0  0  0  0  0999 V2000
  -17.8318   -8.7262   33.9922 N   0  0  0  0  0  0  0  0  0  0  0  0
  -17.1347   -7.4524   34.1482 C   0  0  2  0  0  0  0  0  0  0  0  0
  -17.9532   -6.2850   33.6031 C   0  0  0  0  0  0  0  0  0  0  0  0
  -17.6871   -5.1213   33.9121 O   0  0  0  0  0  0  0  0  0  0  0  0
  -15.7505   -7.5072   33.5087 C   0  0  0  0  0  0  0  0  0  0  0  0
  -14.9624   -6.2161   33.6667 C   0  0  0  0  0  0  0  0  0  0  0  0
  -13.2502   -6.3288   33.0905 S   0  0  2  0  0  0  0  0  0  0  0  0
  -12.5436   -7.3981   34.3687 C   0  0  0  0  0  0  0  0  0  0  0  0
  -12.6106   -4.7074   33.5909 C   0  0  0  0  0  0  0  0  0  0  0  0
  -13.0148   -3.6650   32.5582 C   0  0  1  0  0  0  0  0  0  0  0  0
  -12.4818   -4.0462   31.3123 O   0  0  0  0  0  0  0  0  0  0  0  0
  -14.5053   -3.5287   32.3093 C   0  0  1  0  0  0  0  0  0  0  0  0
  -15.0492   -2.4747   33.0720 O   0  0  0  0  0  0  0  0  0  0  0  0
  -14.5760   -3.1928   30.8334 C   0  0  1  0  0  0  0  0  0  0  0  0
  -14.8853   -1.8272   30.7023 O   0  0  0  0  0  0  0  0  0  0  0  0
  -13.1934   -3.4584   30.2535 C   0  0  2  0  0  0  0  0  0  0  0  0
  -18.9023   -6.4854   32.8450 O   0  0  0  0  0  0  0  0  0  0  0  0
  -12.2122   -8.3722   28.6204 N   0  0  0  0  0  0  0  0  0  0  0  0
  -11.9053   -7.8027   29.8404 C   0  0  0  0  0  0  0  0  0  0  0  0
  -12.2354   -6.4870   30.1054 N   0  0  0  0  0  0  0  0  0  0  0  0
  -12.8613   -5.7372   29.1674 C   0  0  0  0  0  0  0  0  0  0  0  0
  -13.1857   -6.2957   27.9372 C   0  0  0  0  0  0  0  0  0  0  0  0
  -12.8544   -7.6170   27.6632 C   0  0  0  0  0  0  0  0  0  0  0  0
  -13.1566   -8.1490   26.4813 N   0  0  0  0  0  0  0  0  0  0  0  0
  -13.8027   -5.3464   27.2011 N   0  0  0  0  0  0  0  0  0  0  0  0
  -13.8904   -4.2149   27.9390 C   0  0  0  0  0  0  0  0  0  0  0  0
  -13.3126   -4.4384   29.1609 N   0  0  0  0  0  0  0  0  0  0  0  0
  2  1  1  6  0  0  0
  2  3  1  0  0  0  0
  2  5  1  0  0  0  0
  3  4  1  0  0  0  0
  3 17  1  0  0  0  0
  5  6  1  0  0  0  0
  7  6  1  1  0  0  0
  7  8  1  0  0  0  0
  7  9  1  0  0  0  0
 10  9  1  1  0  0  0
 10 11  1  0  0  0  0
 10 12  1  0  0  0  0
 11 16  1  0  0  0  0
 12 13  1  1  0  0  0
 12 14  1  0  0  0  0
 14 15  1  1  0  0  0
 14 16  1  0  0  0  0
 16 27  1  6  0  0  0
 18 19  2  0  0  0  0
 18 23  1  0  0  0  0
 19 20  1  0  0  0  0
 20 21  2  0  0  0  0
 21 22  1  0  0  0  0
 21 27  1  0  0  0  0
 22 23  2  0  0  0  0
 22 25  1  0  0  0  0
 23 24  1  0  0  0  0
 25 26  2  0  0  0  0
 26 27  1  0  0  0  0
M  END
>  <CHROM.1>
163.12584336,-178.71085217,173.06641385,-70.57510350,-81.25156707,-59.31534293
2.46292481,-14.28633619,-5.65249007,31.35355388,2.92513097,0.95518799,0.27702636

>  <Name>
ligand

>  <RI>
0

>  <Rbt.Current_Directory>
/home/itssahil/PROJECTS/Mol_Feturizer/New_Systems/rnas/3GX6

>  <Rbt.Executable>
rbdock ($Id: //depot/dev/client3/rdock/2013.1/src/exe/rbdock.cxx#4 $)

>  <Rbt.Library>
libRbt.so (2013.1, Build901 2013/11/27)

>  <Rbt.Parameter_File>
/export/apps/rDock/src/rDock_2013.1_src/data/scripts/dock_solv.prm

>  <Rbt.Receptor>
prm/pocket_docking_7.prm

>  <SCORE>
-25.8517

>  <SCORE.INTER>
-14.9245

>  <SCORE.INTER.CONST>
1

>  <SCORE.INTER.POLAR>
0

>  <SCORE.INTER.ROT>
7

>  <SCORE.INTER.SOLV>
10.3279

>  <SCORE.INTER.VDW>
-21.659

>  <SCORE.INTER.norm>
-0.552758

>  <SCORE.INTRA>
-10.9273

>  <SCORE.INTRA.DIHEDRAL>
-11.1467

>  <SCORE.INTRA.DIHEDRAL.0>
15.0182

>  <SCORE.INTRA.POLAR>
0

>  <SCORE.INTRA.POLAR.0>
0

>  <SCORE.INTRA.REPUL>
0

>  <SCORE.INTRA.REPUL.0>
0

>  <SCORE.INTRA.SOLV>
-1.40618

>  <SCORE.INTRA.SOLV.lig_0>
-47.9129

>  <SCORE.INTRA.VDW>
-4.65084

>  <SCORE.INTRA.VDW.0>
2.00851

>  <SCORE.INTRA.norm>
-0.404714

>  <SCORE.RESTR>
0

>  <SCORE.RESTR.CAVITY>
0

>  <SCORE.RESTR.norm>
0

>  <SCORE.SYSTEM>
0

>  <SCORE.SYSTEM.CONST>
0

>  <SCORE.SYSTEM.DIHEDRAL>
0

>  <SCORE.SYSTEM.SOLV>
0

>  <SCORE.SYSTEM.norm>
0

>  <SCORE.heavy>
27

>  <SCORE.norm>
-0.957472

>  <RMSD>
6.075

$$$$
ligand
 OpenBabel11021811483D
libRbt.so/2013.1/901 2013/11/27
 27 29  0  0  0  0  0  0  0  0999 V2000
  -16.8966   -8.1588   32.0303 N   0  0  0  0  0  0  0  0  0  0  0  0
  -16.1120   -7.7980   33.2081 C   0  0  2  0  0  0  0  0  0  0  0  0
  -16.9479   -7.8429   34.4845 C   0  0  0  0  0  0  0  0  0  0  0  0
  -18.0297   -7.2559   34.5584 O   0  0  0  0  0  0  0  0  0  0  0  0
  -15.4500   -6.4356   33.0250 C   0  0  0  0  0  0  0  0  0  0  0  0
  -14.3624   -6.4323   31.9620 C   0  0  0  0  0  0  0  0  0  0  0  0
  -12.6823   -6.3842   32.6339 S   0  0  2  0  0  0  0  0  0  0  0  0
  -12.8381   -7.5706   33.9921 C   0  0  0  0  0  0  0  0  0  0  0  0
  -12.7155   -4.8095   33.5327 C   0  0  0  0  0  0  0  0  0  0  0  0
  -13.0307   -3.6809   32.5615 C   0  0  1  0  0  0  0  0  0  0  0  0
  -12.5040   -4.0212   31.3012 O   0  0  0  0  0  0  0  0  0  0  0  0
  -14.5041   -3.4275   32.3029 C   0  0  1  0  0  0  0  0  0  0  0  0
  -14.9879   -2.3870   33.1226 O   0  0  0  0  0  0  0  0  0  0  0  0
  -14.5272   -2.9982   30.8499 C   0  0  1  0  0  0  0  0  0  0  0  0
  -14.7409   -1.6091   30.7998 O   0  0  0  0  0  0  0  0  0  0  0  0
  -13.1563   -3.3225   30.2720 C   0  0  2  0  0  0  0  0  0  0  0  0
  -16.5526   -8.4652   35.4705 O   0  0  0  0  0  0  0  0  0  0  0  0
  -11.7438   -7.8569   27.9875 N   0  0  0  0  0  0  0  0  0  0  0  0
  -11.3068   -7.3362   29.1895 C   0  0  0  0  0  0  0  0  0  0  0  0
  -11.7826   -6.1208   29.6440 N   0  0  0  0  0  0  0  0  0  0  0  0
  -12.6820   -5.4218   28.9117 C   0  0  0  0  0  0  0  0  0  0  0  0
  -13.1396   -5.9339   27.7039 C   0  0  0  0  0  0  0  0  0  0  0  0
  -12.6635   -7.1541   27.2397 C   0  0  0  0  0  0  0  0  0  0  0  0
  -13.0948   -7.6399   26.0782 N   0  0  0  0  0  0  0  0  0  0  0  0
  -14.0238   -5.0528   27.1887 N   0  0  0  0  0  0  0  0  0  0  0  0
  -14.1473   -4.0119   28.0455 C   0  0  0  0  0  0  0  0  0  0  0  0
  -13.3235   -4.2235   29.1194 N   0  0  0  0  0  0  0  0  0  0  0  0
  2  1  1  6  0  0  0
  2  3  1  0  0  0  0
  2  5  1  0  0  0  0
  3  4  1  0  0  0  0
  3 17  1  0  0  0  0
  5  6  1  0  0  0  0
  7  6  1  6  0  0  0
  7  8  1  0  0  0  0
  7  9  1  0  0  0  0
 10  9  1  1  0  0  0
 10 11  1  0  0  0  0
 10 12  1  0  0  0  0
 11 16  1  0  0  0  0
 12 13  1  1  0  0  0
 12 14  1  0  0  0  0
 14 15  1  1  0  0  0
 14 16  1  0  0  0  0
 16 27  1  6  0  0  0
 18 19  2  0  0  0  0
 18 23  1  0  0  0  0
 19 20  1  0  0  0  0
 20 21  2  0  0  0  0
 21 22  1  0  0  0  0
 21 27  1  0  0  0  0
 22 23  2  0  0  0  0
 22 25  1  0  0  0  0
 23 24  1  0  0  0  0
 25 26  2  0  0  0  0
 26 27  1  0  0  0  0
M  END
>  <CHROM.1>
-51.18370676,-68.06727831,-105.31312642,42.73124697,-59.33456700,-31.36057894
-15.13512184,-13.98143626,-5.69309748,31.18649240,3.13051458,1.09758753,0.22705577

>  <Name>
ligand

>  <RI>
0

>  <Rbt.Current_Directory>
/home/itssahil/PROJECTS/Mol_Feturizer/New_Systems/rnas/3GX6

>  <Rbt.Executable>
rbdock ($Id: //depot/dev/client3/rdock/2013.1/src/exe/rbdock.cxx#4 $)

>  <Rbt.Library>
libRbt.so (2013.1, Build901 2013/11/27)

>  <Rbt.Parameter_File>
/export/apps/rDock/src/rDock_2013.1_src/data/scripts/dock_solv.prm

>  <Rbt.Receptor>
prm/pocket_docking_4.prm

>  <SCORE>
-18.7182

>  <SCORE.INTER>
-13.3241

>  <SCORE.INTER.CONST>
1

>  <SCORE.INTER.POLAR>
0

>  <SCORE.INTER.ROT>
7

>  <SCORE.INTER.SOLV>
9.92555

>  <SCORE.INTER.VDW>
-20.4579

>  <SCORE.INTER.norm>
-0.493486

>  <SCORE.INTRA>
-5.39405

>  <SCORE.INTRA.DIHEDRAL>
-3.89212

>  <SCORE.INTRA.DIHEDRAL.0>
15.0182

>  <SCORE.INTRA.POLAR>
0

>  <SCORE.INTRA.POLAR.0>
0

>  <SCORE.INTRA.REPUL>
0

>  <SCORE.INTRA.REPUL.0>
0

>  <SCORE.INTRA.SOLV>
-0.45799

>  <SCORE.INTRA.SOLV.lig_0>
-47.9129

>  <SCORE.INTRA.VDW>
-3.21899

>  <SCORE.INTRA.VDW.0>
2.00851

>  <SCORE.INTRA.norm>
-0.199779

>  <SCORE.RESTR>
0

>  <SCORE.RESTR.CAVITY>
0

>  <SCORE.RESTR.norm>
0

>  <SCORE.SYSTEM>
0

>  <SCORE.SYSTEM.CONST>
0

>  <SCORE.SYSTEM.DIHEDRAL>
0

>  <SCORE.SYSTEM.SOLV>
0

>  <SCORE.SYSTEM.norm>
0

>  <SCORE.heavy>
27

>  <SCORE.norm>
-0.693265

>  <RMSD>
6.084

$$$$
ligand
 OpenBabel11021811483D
libRbt.so/2013.1/901 2013/11/27
 27 29  0  0  0  0  0  0  0  0999 V2000
  -17.0733   -8.5874   31.3975 N   0  0  0  0  0  0  0  0  0  0  0  0
  -16.2232   -8.1485   32.5009 C   0  0  2  0  0  0  0  0  0  0  0  0
  -16.5567   -8.8760   33.8007 C   0  0  0  0  0  0  0  0  0  0  0  0
  -17.7184   -9.1808   34.0799 O   0  0  0  0  0  0  0  0  0  0  0  0
  -16.2972   -6.6347   32.6765 C   0  0  0  0  0  0  0  0  0  0  0  0
  -15.1931   -6.0761   33.5609 C   0  0  0  0  0  0  0  0  0  0  0  0
  -13.5252   -6.3667   32.9206 S   0  0  2  0  0  0  0  0  0  0  0  0
  -12.9249   -7.5901   34.1121 C   0  0  0  0  0  0  0  0  0  0  0  0
  -12.6725   -4.8703   33.4884 C   0  0  0  0  0  0  0  0  0  0  0  0
  -12.9794   -3.7230   32.5366 C   0  0  1  0  0  0  0  0  0  0  0  0
  -12.4864   -4.0610   31.2622 O   0  0  0  0  0  0  0  0  0  0  0  0
  -14.4510   -3.4310   32.3108 C   0  0  1  0  0  0  0  0  0  0  0  0
  -14.8928   -2.3888   33.1518 O   0  0  0  0  0  0  0  0  0  0  0  0
  -14.4926   -2.9841   30.8635 C   0  0  1  0  0  0  0  0  0  0  0  0
  -14.6733   -1.5898   30.8334 O   0  0  0  0  0  0  0  0  0  0  0  0
  -13.1418   -3.3346   30.2543 C   0  0  2  0  0  0  0  0  0  0  0  0
  -15.6678   -9.1686   34.6007 O   0  0  0  0  0  0  0  0  0  0  0  0
  -11.8411   -7.8460   27.8605 N   0  0  0  0  0  0  0  0  0  0  0  0
  -11.3607   -7.3460   29.0547 C   0  0  0  0  0  0  0  0  0  0  0  0
  -11.8117   -6.1337   29.5419 N   0  0  0  0  0  0  0  0  0  0  0  0
  -12.7291   -5.4176   28.8496 C   0  0  0  0  0  0  0  0  0  0  0  0
  -13.2302   -5.9088   27.6503 C   0  0  0  0  0  0  0  0  0  0  0  0
  -12.7792   -7.1256   27.1535 C   0  0  0  0  0  0  0  0  0  0  0  0
  -13.2523   -7.5914   26.0000 N   0  0  0  0  0  0  0  0  0  0  0  0
  -14.1238   -5.0137   27.1771 N   0  0  0  0  0  0  0  0  0  0  0  0
  -14.2108   -3.9845   28.0521 C   0  0  0  0  0  0  0  0  0  0  0  0
  -13.3539   -4.2177   29.0952 N   0  0  0  0  0  0  0  0  0  0  0  0
  2  1  1  6  0  0  0
  2  3  1  0  0  0  0
  2  5  1  0  0  0  0
  3  4  1  0  0  0  0
  3 17  1  0  0  0  0
  5  6  1  0  0  0  0
  7  6  1  1  0  0  0
  7  8  1  0  0  0  0
  7  9  1  0  0  0  0
 10  9  1  1  0  0  0
 10 11  1  0  0  0  0
 10 12  1  0  0  0  0
 11 16  1  0  0  0  0
 12 13  1  1  0  0  0
 12 14  1  0  0  0  0
 14 15  1  1  0  0  0
 14 16  1  0  0  0  0
 16 27  1  6  0  0  0
 18 19  2  0  0  0  0
 18 23  1  0  0  0  0
 19 20  1  0  0  0  0
 20 21  2  0  0  0  0
 21 22  1  0  0  0  0
 21 27  1  0  0  0  0
 22 23  2  0  0  0  0
 22 25  1  0  0  0  0
 23 24  1  0  0  0  0
 25 26  2  0  0  0  0
 26 27  1  0  0  0  0
M  END
>  <CHROM.1>
-35.81695604,-165.63301097,61.18162991,-109.61504642,-80.76722255,-61.94857028
-16.34713489,-14.07550484,-5.85230698,31.11320487,3.04659595,1.13091632,0.53507074

>  <Name>
ligand

>  <RI>
0

>  <Rbt.Current_Directory>
/home/itssahil/PROJECTS/Mol_Feturizer/New_Systems/rnas/3GX6

>  <Rbt.Executable>
rbdock ($Id: //depot/dev/client3/rdock/2013.1/src/exe/rbdock.cxx#4 $)

>  <Rbt.Library>
libRbt.so (2013.1, Build901 2013/11/27)

>  <Rbt.Parameter_File>
/export/apps/rDock/src/rDock_2013.1_src/data/scripts/dock_solv.prm

>  <Rbt.Receptor>
prm/pocket_docking_4.prm

>  <SCORE>
-22.4455

>  <SCORE.INTER>
-13.0302

>  <SCORE.INTER.CONST>
1

>  <SCORE.INTER.POLAR>
0

>  <SCORE.INTER.ROT>
7

>  <SCORE.INTER.SOLV>
10.5377

>  <SCORE.INTER.VDW>
-20.466

>  <SCORE.INTER.norm>
-0.4826

>  <SCORE.INTRA>
-9.41528

>  <SCORE.INTRA.DIHEDRAL>
-7.2343

>  <SCORE.INTRA.DIHEDRAL.0>
15.0182

>  <SCORE.INTRA.POLAR>
0

>  <SCORE.INTRA.POLAR.0>
0

>  <SCORE.INTRA.REPUL>
0

>  <SCORE.INTRA.REPUL.0>
0

>  <SCORE.INTRA.SOLV>
-1.21154

>  <SCORE.INTRA.SOLV.lig_0>
-47.9129

>  <SCORE.INTRA.VDW>
-5.19236

>  <SCORE.INTRA.VDW.0>
2.00851

>  <SCORE.INTRA.norm>
-0.348714

>  <SCORE.RESTR>
0

>  <SCORE.RESTR.CAVITY>
0

>  <SCORE.RESTR.norm>
0

>  <SCORE.SYSTEM>
0

>  <SCORE.SYSTEM.CONST>
0

>  <SCORE.SYSTEM.DIHEDRAL>
0

>  <SCORE.SYSTEM.SOLV>
0

>  <SCORE.SYSTEM.norm>
0

>  <SCORE.heavy>
27

>  <SCORE.norm>
-0.831314

>  <RMSD>
6.089

$$$$
ligand
 OpenBabel11021811483D
libRbt.so/2013.1/901 2013/11/27
 27 29  0  0  0  0  0  0  0  0999 V2000
  -13.1868   -8.2877   29.1393 N   0  0  0  0  0  0  0  0  0  0  0  0
  -12.8375   -6.9123   28.7942 C   0  0  2  0  0  0  0  0  0  0  0  0
  -11.7137   -6.8520   27.7630 C   0  0  0  0  0  0  0  0  0  0  0  0
  -10.5319   -6.9444   28.1027 O   0  0  0  0  0  0  0  0  0  0  0  0
  -12.4888   -6.1091   30.0437 C   0  0  0  0  0  0  0  0  0  0  0  0
  -13.6524   -5.9670   31.0127 C   0  0  0  0  0  0  0  0  0  0  0  0
  -13.2499   -5.0286   32.5072 S   0  0  2  0  0  0  0  0  0  0  0  0
  -12.2248   -6.2344   33.3857 C   0  0  0  0  0  0  0  0  0  0  0  0
  -14.8096   -5.1541   33.4237 C   0  0  0  0  0  0  0  0  0  0  0  0
  -15.2979   -6.5953   33.3933 C   0  0  1  0  0  0  0  0  0  0  0  0
  -14.5533   -7.3350   34.3314 O   0  0  0  0  0  0  0  0  0  0  0  0
  -16.7437   -6.8090   33.8008 C   0  0  1  0  0  0  0  0  0  0  0  0
  -17.5826   -6.8691   32.6689 O   0  0  0  0  0  0  0  0  0  0  0  0
  -16.7081   -8.1560   34.4937 C   0  0  1  0  0  0  0  0  0  0  0  0
  -17.2787   -9.1130   33.6355 O   0  0  0  0  0  0  0  0  0  0  0  0
  -15.2417   -8.4935   34.7274 C   0  0  2  0  0  0  0  0  0  0  0  0
  -11.9678   -6.7040   26.5675 O   0  0  0  0  0  0  0  0  0  0  0  0
  -17.3813   -9.8252   39.3560 N   0  0  0  0  0  0  0  0  0  0  0  0
  -17.9991   -9.7447   38.1236 C   0  0  0  0  0  0  0  0  0  0  0  0
  -17.2834   -9.3736   37.0010 N   0  0  0  0  0  0  0  0  0  0  0  0
  -15.9651   -9.0791   37.0973 C   0  0  0  0  0  0  0  0  0  0  0  0
  -15.3246   -9.1629   38.3274 C   0  0  0  0  0  0  0  0  0  0  0  0
  -16.0387   -9.5327   39.4607 C   0  0  0  0  0  0  0  0  0  0  0  0
  -15.4272   -9.6036   40.6405 N   0  0  0  0  0  0  0  0  0  0  0  0
  -14.0291   -8.8290   38.1436 N   0  0  0  0  0  0  0  0  0  0  0  0
  -13.8342   -8.5554   36.8322 C   0  0  0  0  0  0  0  0  0  0  0  0
  -15.0230   -8.7056   36.1681 N   0  0  0  0  0  0  0  0  0  0  0  0
  2  1  1  1  0  0  0
  2  3  1  0  0  0  0
  2  5  1  0  0  0  0
  3  4  1  0  0  0  0
  3 17  1  0  0  0  0
  5  6  1  0  0  0  0
  7  6  1  6  0  0  0
  7  8  1  0  0  0  0
  7  9  1  0  0  0  0
 10  9  1  1  0  0  0
 10 11  1  0  0  0  0
 10 12  1  0  0  0  0
 11 16  1  0  0  0  0
 12 13  1  6  0  0  0
 12 14  1  0  0  0  0
 14 15  1  6  0  0  0
 14 16  1  0  0  0  0
 16 27  1  1  0  0  0
 18 19  2  0  0  0  0
 18 23  1  0  0  0  0
 19 20  1  0  0  0  0
 20 21  2  0  0  0  0
 21 22  1  0  0  0  0
 21 27  1  0  0  0  0
 22 23  2  0  0  0  0
 22 25  1  0  0  0  0
 23 24  1  0  0  0  0
 25 26  2  0  0  0  0
 26 27  1  0  0  0  0
M  END
>  <CHROM.1>
-82.83539455,-63.18039104,179.49465955,-73.22687571,46.14025563,78.00781603
137.34334460,-14.64898424,-7.60845228,33.83028448,1.17593770,-0.22454218
-1.37135451

>  <Name>
ligand

>  <RI>
0

>  <Rbt.Current_Directory>
/home/itssahil/PROJECTS/Mol_Feturizer/New_Systems/rnas/3GX6

>  <Rbt.Executable>
rbdock ($Id: //depot/dev/client3/rdock/2013.1/src/exe/rbdock.cxx#4 $)

>  <Rbt.Library>
libRbt.so (2013.1, Build901 2013/11/27)

>  <Rbt.Parameter_File>
/export/apps/rDock/src/rDock_2013.1_src/data/scripts/dock_solv.prm

>  <Rbt.Receptor>
prm/pocket_docking_8.prm

>  <SCORE>
-22.7912

>  <SCORE.INTER>
-15.6946

>  <SCORE.INTER.CONST>
1

>  <SCORE.INTER.POLAR>
0

>  <SCORE.INTER.ROT>
7

>  <SCORE.INTER.SOLV>
6.14256

>  <SCORE.INTER.VDW>
-20.7773

>  <SCORE.INTER.norm>
-0.581283

>  <SCORE.INTRA>
-7.09651

>  <SCORE.INTRA.DIHEDRAL>
-10.4999

>  <SCORE.INTRA.DIHEDRAL.0>
15.0182

>  <SCORE.INTRA.POLAR>
0

>  <SCORE.INTRA.POLAR.0>
0

>  <SCORE.INTRA.REPUL>
0

>  <SCORE.INTRA.REPUL.0>
0

>  <SCORE.INTRA.SOLV>
-0.951673

>  <SCORE.INTRA.SOLV.lig_0>
-47.9129

>  <SCORE.INTRA.VDW>
-1.3707

>  <SCORE.INTRA.VDW.0>
2.00851

>  <SCORE.INTRA.norm>
-0.262834

>  <SCORE.RESTR>
0

>  <SCORE.RESTR.CAVITY>
0

>  <SCORE.RESTR.norm>
0

>  <SCORE.SYSTEM>
0

>  <SCORE.SYSTEM.CONST>
0

>  <SCORE.SYSTEM.DIHEDRAL>
0

>  <SCORE.SYSTEM.SOLV>
0

>  <SCORE.SYSTEM.norm>
0

>  <SCORE.heavy>
27

>  <SCORE.norm>
-0.844117

>  <RMSD>
6.092

$$$$
ligand
 OpenBabel11021811483D
libRbt.so/2013.1/901 2013/11/27
 27 29  0  0  0  0  0  0  0  0999 V2000
  -13.0012   -8.1504   33.6120 N   0  0  0  0  0  0  0  0  0  0  0  0
  -13.6635   -6.9815   33.0392 C   0  0  2  0  0  0  0  0  0  0  0  0
  -13.5349   -6.9426   31.5187 C   0  0  0  0  0  0  0  0  0  0  0  0
  -12.4298   -6.9614   30.9723 O   0  0  0  0  0  0  0  0  0  0  0  0
  -13.1433   -5.6953   33.6741 C   0  0  0  0  0  0  0  0  0  0  0  0
  -14.0987   -4.5213   33.5263 C   0  0  0  0  0  0  0  0  0  0  0  0
  -14.1970   -3.8652   31.8423 S   0  0  2  0  0  0  0  0  0  0  0  0
  -12.9093   -2.5947   31.9095 C   0  0  0  0  0  0  0  0  0  0  0  0
  -15.6987   -2.8546   31.9531 C   0  0  0  0  0  0  0  0  0  0  0  0
  -16.9054   -3.7011   31.5743 C   0  0  1  0  0  0  0  0  0  0  0  0
  -16.8827   -3.9065   30.1819 O   0  0  0  0  0  0  0  0  0  0  0  0
  -16.9408   -5.0982   32.1650 C   0  0  1  0  0  0  0  0  0  0  0  0
  -17.7257   -5.1304   33.3362 O   0  0  0  0  0  0  0  0  0  0  0  0
  -17.6025   -5.9143   31.0732 C   0  0  1  0  0  0  0  0  0  0  0  0
  -18.9214   -6.2002   31.4688 O   0  0  0  0  0  0  0  0  0  0  0  0
  -17.6242   -5.0444   29.8236 C   0  0  2  0  0  0  0  0  0  0  0  0
  -14.5376   -6.8860   30.8066 O   0  0  0  0  0  0  0  0  0  0  0  0
  -16.3619   -9.6898   27.6783 N   0  0  0  0  0  0  0  0  0  0  0  0
  -17.1190   -9.4508   28.8082 C   0  0  0  0  0  0  0  0  0  0  0  0
  -17.3532   -8.1581   29.2375 N   0  0  0  0  0  0  0  0  0  0  0  0
  -16.8378   -7.1076   28.5558 C   0  0  0  0  0  0  0  0  0  0  0  0
  -16.0808   -7.3283   27.4118 C   0  0  0  0  0  0  0  0  0  0  0  0
  -15.8392   -8.6255   26.9761 C   0  0  0  0  0  0  0  0  0  0  0  0
  -15.1061   -8.8370   25.8857 N   0  0  0  0  0  0  0  0  0  0  0  0
  -15.7007   -6.1261   26.9283 N   0  0  0  0  0  0  0  0  0  0  0  0
  -16.2111   -5.1577   27.7248 C   0  0  0  0  0  0  0  0  0  0  0  0
  -16.9192   -5.7473   28.7385 N   0  0  0  0  0  0  0  0  0  0  0  0
  2  1  1  1  0  0  0
  2  3  1  0  0  0  0
  2  5  1  0  0  0  0
  3  4  1  0  0  0  0
  3 17  1  0  0  0  0
  5  6  1  0  0  0  0
  7  6  1  1  0  0  0
  7  8  1  0  0  0  0
  7  9  1  0  0  0  0
 10  9  1  1  0  0  0
 10 11  1  0  0  0  0
 10 12  1  0  0  0  0
 11 16  1  0  0  0  0
 12 13  1  1  0  0  0
 12 14  1  0  0  0  0
 14 15  1  1  0  0  0
 14 16  1  0  0  0  0
 16 27  1  6  0  0  0
 18 19  2  0  0  0  0
 18 23  1  0  0  0  0
 19 20  1  0  0  0  0
 20 21  2  0  0  0  0
 21 22  1  0  0  0  0
 21 27  1  0  0  0  0
 22 23  2  0  0  0  0
 22 25  1  0  0  0  0
 23 24  1  0  0  0  0
 25 26  2  0  0  0  0
 26 27  1  0  0  0  0
M  END
>  <CHROM.1>
-56.58752972,-158.75078255,-71.95152382,-91.14495175,-90.61415971,-73.16655968
143.72712049,-15.59524353,-6.01939002,30.52579704,-1.21179242,0.49726421
-2.34579028

>  <Name>
ligand

>  <RI>
0

>  <Rbt.Current_Directory>
/home/itssahil/PROJECTS/Mol_Feturizer/New_Systems/rnas/3GX6

>  <Rbt.Executable>
rbdock ($Id: //depot/dev/client3/rdock/2013.1/src/exe/rbdock.cxx#4 $)

>  <Rbt.Library>
libRbt.so (2013.1, Build901 2013/11/27)

>  <Rbt.Parameter_File>
/export/apps/rDock/src/rDock_2013.1_src/data/scripts/dock_solv.prm

>  <Rbt.Receptor>
prm/pocket_docking_4.prm

>  <SCORE>
-20.0975

>  <SCORE.INTER>
-9.90628

>  <SCORE.INTER.CONST>
1

>  <SCORE.INTER.POLAR>
0

>  <SCORE.INTER.ROT>
7

>  <SCORE.INTER.SOLV>
9.50344

>  <SCORE.INTER.VDW>
-18.0387

>  <SCORE.INTER.norm>
-0.366899

>  <SCORE.INTRA>
-10.1912

>  <SCORE.INTRA.DIHEDRAL>
-6.44663

>  <SCORE.INTRA.DIHEDRAL.0>
15.0182

>  <SCORE.INTRA.POLAR>
0

>  <SCORE.INTRA.POLAR.0>
0

>  <SCORE.INTRA.REPUL>
0

>  <SCORE.INTRA.REPUL.0>
0

>  <SCORE.INTRA.SOLV>
-1.19867

>  <SCORE.INTRA.SOLV.lig_0>
-47.9129

>  <SCORE.INTRA.VDW>
-6.3686

>  <SCORE.INTRA.VDW.0>
2.00851

>  <SCORE.INTRA.norm>
-0.377454

>  <SCORE.RESTR>
0

>  <SCORE.RESTR.CAVITY>
0

>  <SCORE.RESTR.norm>
0

>  <SCORE.SYSTEM>
0

>  <SCORE.SYSTEM.CONST>
0

>  <SCORE.SYSTEM.DIHEDRAL>
0

>  <SCORE.SYSTEM.SOLV>
0

>  <SCORE.SYSTEM.norm>
0

>  <SCORE.heavy>
27

>  <SCORE.norm>
-0.744353

>  <RMSD>
6.102

$$$$
ligand
 OpenBabel11021811483D
libRbt.so/2013.1/901 2013/11/27
 27 29  0  0  0  0  0  0  0  0999 V2000
  -13.7811   -5.0497   27.2900 N   0  0  0  0  0  0  0  0  0  0  0  0
  -12.9289   -5.1535   28.4715 C   0  0  2  0  0  0  0  0  0  0  0  0
  -12.3165   -6.5447   28.6112 C   0  0  0  0  0  0  0  0  0  0  0  0
  -11.1316   -6.6910   28.9193 O   0  0  0  0  0  0  0  0  0  0  0  0
  -13.6923   -4.7534   29.7305 C   0  0  0  0  0  0  0  0  0  0  0  0
  -12.9528   -5.0902   31.0160 C   0  0  0  0  0  0  0  0  0  0  0  0
  -13.7148   -4.3934   32.5027 S   0  0  2  0  0  0  0  0  0  0  0  0
  -12.6587   -2.9471   32.7657 C   0  0  0  0  0  0  0  0  0  0  0  0
  -13.0892   -5.5255   33.7737 C   0  0  0  0  0  0  0  0  0  0  0  0
  -13.8306   -6.8512   33.6776 C   0  0  1  0  0  0  0  0  0  0  0  0
  -13.4329   -7.6603   34.7587 O   0  0  0  0  0  0  0  0  0  0  0  0
  -15.3409   -6.7708   33.7973 C   0  0  1  0  0  0  0  0  0  0  0  0
  -15.9465   -6.7402   32.5241 O   0  0  0  0  0  0  0  0  0  0  0  0
  -15.6963   -8.0591   34.5113 C   0  0  1  0  0  0  0  0  0  0  0  0
  -16.2675   -8.9422   33.5776 O   0  0  0  0  0  0  0  0  0  0  0  0
  -14.3933   -8.6472   35.0355 C   0  0  2  0  0  0  0  0  0  0  0  0
  -12.9969   -7.5514   28.4127 O   0  0  0  0  0  0  0  0  0  0  0  0
  -17.5122   -9.7813   39.1295 N   0  0  0  0  0  0  0  0  0  0  0  0
  -17.8474   -9.7333   37.7907 C   0  0  0  0  0  0  0  0  0  0  0  0
  -16.8978   -9.4135   36.8389 N   0  0  0  0  0  0  0  0  0  0  0  0
  -15.6247   -9.1380   37.2092 C   0  0  0  0  0  0  0  0  0  0  0  0
  -15.2669   -9.1897   38.5508 C   0  0  0  0  0  0  0  0  0  0  0  0
  -16.2172   -9.5079   39.5133 C   0  0  0  0  0  0  0  0  0  0  0  0
  -15.8766   -9.5480   40.7992 N   0  0  0  0  0  0  0  0  0  0  0  0
  -13.9546   -8.8842   38.6416 N   0  0  0  0  0  0  0  0  0  0  0  0
  -13.4749   -8.6595   37.3958 C   0  0  0  0  0  0  0  0  0  0  0  0
  -14.4956   -8.8128   36.4951 N   0  0  0  0  0  0  0  0  0  0  0  0
  2  1  1  6  0  0  0
  2  3  1  0  0  0  0
  2  5  1  0  0  0  0
  3  4  1  0  0  0  0
  3 17  1  0  0  0  0
  5  6  1  0  0  0  0
  7  6  1  6  0  0  0
  7  8  1  0  0  0  0
  7  9  1  0  0  0  0
 10  9  1  1  0  0  0
 10 11  1  0  0  0  0
 10 12  1  0  0  0  0
 11 16  1  0  0  0  0
 12 13  1  6  0  0  0
 12 14  1  0  0  0  0
 14 15  1  6  0  0  0
 14 16  1  0  0  0  0
 16 27  1  1  0  0  0
 18 19  2  0  0  0  0
 18 23  1  0  0  0  0
 19 20  1  0  0  0  0
 20 21  2  0  0  0  0
 21 22  1  0  0  0  0
 21 27  1  0  0  0  0
 22 23  2  0  0  0  0
 22 25  1  0  0  0  0
 23 24  1  0  0  0  0
 25 26  2  0  0  0  0
 26 27  1  0  0  0  0
M  END
>  <CHROM.1>
136.74918034,168.98672356,170.86875055,-100.00526810,-74.65651417,-173.78428946
147.16896001,-14.42057200,-7.22147956,33.93536294,1.03106669,-0.96287669
-1.61361220

>  <Name>
ligand

>  <RI>
0

>  <Rbt.Current_Directory>
/home/itssahil/PROJECTS/Mol_Feturizer/New_Systems/rnas/3GX6

>  <Rbt.Executable>
rbdock ($Id: //depot/dev/client3/rdock/2013.1/src/exe/rbdock.cxx#4 $)

>  <Rbt.Library>
libRbt.so (2013.1, Build901 2013/11/27)

>  <Rbt.Parameter_File>
/export/apps/rDock/src/rDock_2013.1_src/data/scripts/dock_solv.prm

>  <Rbt.Receptor>
prm/pocket_docking_8.prm

>  <SCORE>
-26.3746

>  <SCORE.INTER>
-17.6856

>  <SCORE.INTER.CONST>
1

>  <SCORE.INTER.POLAR>
0

>  <SCORE.INTER.ROT>
7

>  <SCORE.INTER.SOLV>
10.8129

>  <SCORE.INTER.VDW>
-23.6613

>  <SCORE.INTER.norm>
-0.655021

>  <SCORE.INTRA>
-8.68903

>  <SCORE.INTRA.DIHEDRAL>
-8.34716

>  <SCORE.INTRA.DIHEDRAL.0>
15.0182

>  <SCORE.INTRA.POLAR>
0

>  <SCORE.INTRA.POLAR.0>
0

>  <SCORE.INTRA.REPUL>
0

>  <SCORE.INTRA.REPUL.0>
0

>  <SCORE.INTRA.SOLV>
-1.46555

>  <SCORE.INTRA.SOLV.lig_0>
-47.9129

>  <SCORE.INTRA.VDW>
-3.78268

>  <SCORE.INTRA.VDW.0>
2.00851

>  <SCORE.INTRA.norm>
-0.321816

>  <SCORE.RESTR>
0

>  <SCORE.RESTR.CAVITY>
0

>  <SCORE.RESTR.norm>
0

>  <SCORE.SYSTEM>
0

>  <SCORE.SYSTEM.CONST>
0

>  <SCORE.SYSTEM.DIHEDRAL>
0

>  <SCORE.SYSTEM.SOLV>
0

>  <SCORE.SYSTEM.norm>
0

>  <SCORE.heavy>
27

>  <SCORE.norm>
-0.976837

>  <RMSD>
6.103

$$$$
ligand
 OpenBabel11021811483D
libRbt.so/2013.1/901 2013/11/27
 27 29  0  0  0  0  0  0  0  0999 V2000
  -17.6453   -8.4926   34.0158 N   0  0  0  0  0  0  0  0  0  0  0  0
  -17.9214   -7.1004   33.6718 C   0  0  2  0  0  0  0  0  0  0  0  0
  -19.1744   -6.9645   32.8106 C   0  0  0  0  0  0  0  0  0  0  0  0
  -19.1142   -6.5102   31.6659 O   0  0  0  0  0  0  0  0  0  0  0  0
  -16.7128   -6.4554   33.0000 C   0  0  0  0  0  0  0  0  0  0  0  0
  -15.4109   -6.6876   33.7512 C   0  0  0  0  0  0  0  0  0  0  0  0
  -13.9509   -6.0331   32.9049 S   0  0  2  0  0  0  0  0  0  0  0  0
  -12.6347   -6.7432   33.9247 C   0  0  0  0  0  0  0  0  0  0  0  0
  -13.9592   -4.3142   33.4826 C   0  0  0  0  0  0  0  0  0  0  0  0
  -14.4969   -3.4139   32.3796 C   0  0  1  0  0  0  0  0  0  0  0  0
  -13.6960   -3.5892   31.2352 O   0  0  0  0  0  0  0  0  0  0  0  0
  -15.9063   -3.7199   31.9088 C   0  0  1  0  0  0  0  0  0  0  0  0
  -16.8456   -2.8937   32.5598 O   0  0  0  0  0  0  0  0  0  0  0  0
  -15.8539   -3.3842   30.4321 C   0  0  1  0  0  0  0  0  0  0  0  0
  -16.5318   -2.1691   30.2278 O   0  0  0  0  0  0  0  0  0  0  0  0
  -14.3848   -3.2134   30.0702 C   0  0  2  0  0  0  0  0  0  0  0  0
  -20.2745   -7.3030   33.2475 O   0  0  0  0  0  0  0  0  0  0  0  0
  -11.7210   -7.5476   28.6938 N   0  0  0  0  0  0  0  0  0  0  0  0
  -11.7761   -6.9387   29.9320 C   0  0  0  0  0  0  0  0  0  0  0  0
  -12.5290   -5.7951   30.1207 N   0  0  0  0  0  0  0  0  0  0  0  0
  -13.2199   -5.2538   29.0894 C   0  0  0  0  0  0  0  0  0  0  0  0
  -13.1833   -5.8574   27.8384 C   0  0  0  0  0  0  0  0  0  0  0  0
  -12.4262   -7.0058   27.6411 C   0  0  0  0  0  0  0  0  0  0  0  0
  -12.3837   -7.5784   26.4405 N   0  0  0  0  0  0  0  0  0  0  0  0
  -13.9551   -5.1283   27.0040 N   0  0  0  0  0  0  0  0  0  0  0  0
  -14.4884   -4.0958   27.6983 C   0  0  0  0  0  0  0  0  0  0  0  0
  -14.0441   -4.1577   28.9928 N   0  0  0  0  0  0  0  0  0  0  0  0
  2  1  1  6  0  0  0
  2  3  1  0  0  0  0
  2  5  1  0  0  0  0
  3  4  1  0  0  0  0
  3 17  1  0  0  0  0
  5  6  1  0  0  0  0
  7  6  1  1  0  0  0
  7  8  1  0  0  0  0
  7  9  1  0  0  0  0
 10  9  1  1  0  0  0
 10 11  1  0  0  0  0
 10 12  1  0  0  0  0
 11 16  1  0  0  0  0
 12 13  1  1  0  0  0
 12 14  1  0  0  0  0
 14 15  1  1  0  0  0
 14 16  1  0  0  0  0
 16 27  1  6  0  0  0
 18 19  2  0  0  0  0
 18 23  1  0  0  0  0
 19 20  1  0  0  0  0
 20 21  2  0  0  0  0
 21 22  1  0  0  0  0
 21 27  1  0  0  0  0
 22 23  2  0  0  0  0
 22 25  1  0  0  0  0
 23 24  1  0  0  0  0
 25 26  2  0  0  0  0
 26 27  1  0  0  0  0
M  END
>  <CHROM.1>
-117.59853802,-48.78882325,175.75535193,-170.56263403,-102.77448459,-57.29696890
1.55076677,-14.99685682,-5.49770755,31.08256979,-2.66320657,0.63889421,-0.59286176

>  <Name>
ligand

>  <RI>
0

>  <Rbt.Current_Directory>
/home/itssahil/PROJECTS/Mol_Feturizer/New_Systems/rnas/3GX6

>  <Rbt.Executable>
rbdock ($Id: //depot/dev/client3/rdock/2013.1/src/exe/rbdock.cxx#4 $)

>  <Rbt.Library>
libRbt.so (2013.1, Build901 2013/11/27)

>  <Rbt.Parameter_File>
/export/apps/rDock/src/rDock_2013.1_src/data/scripts/dock_solv.prm

>  <Rbt.Receptor>
prm/pocket_docking_6.prm

>  <SCORE>
-21.2235

>  <SCORE.INTER>
-12.2564

>  <SCORE.INTER.CONST>
1

>  <SCORE.INTER.POLAR>
0

>  <SCORE.INTER.ROT>
7

>  <SCORE.INTER.SOLV>
9.75355

>  <SCORE.INTER.VDW>
-19.6888

>  <SCORE.INTER.norm>
-0.453941

>  <SCORE.INTRA>
-8.9671

>  <SCORE.INTRA.DIHEDRAL>
-7.76377

>  <SCORE.INTRA.DIHEDRAL.0>
15.0182

>  <SCORE.INTRA.POLAR>
0

>  <SCORE.INTRA.POLAR.0>
0

>  <SCORE.INTRA.REPUL>
0

>  <SCORE.INTRA.REPUL.0>
0

>  <SCORE.INTRA.SOLV>
-0.540708

>  <SCORE.INTRA.SOLV.lig_0>
-47.9129

>  <SCORE.INTRA.VDW>
-4.81486

>  <SCORE.INTRA.VDW.0>
2.00851

>  <SCORE.INTRA.norm>
-0.332115

>  <SCORE.RESTR>
0

>  <SCORE.RESTR.CAVITY>
0

>  <SCORE.RESTR.norm>
0

>  <SCORE.SYSTEM>
0

>  <SCORE.SYSTEM.CONST>
0

>  <SCORE.SYSTEM.DIHEDRAL>
0

>  <SCORE.SYSTEM.SOLV>
0

>  <SCORE.SYSTEM.norm>
0

>  <SCORE.heavy>
27

>  <SCORE.norm>
-0.786056

>  <RMSD>
6.111

$$$$
ligand
 OpenBabel11021811483D
libRbt.so/2013.1/901 2013/11/27
 27 29  0  0  0  0  0  0  0  0999 V2000
  -12.9164   -7.0918   32.2165 N   0  0  0  0  0  0  0  0  0  0  0  0
  -12.5726   -6.8166   33.6090 C   0  0  2  0  0  0  0  0  0  0  0  0
  -12.7901   -8.0361   34.5008 C   0  0  0  0  0  0  0  0  0  0  0  0
  -12.4911   -8.0120   35.6967 O   0  0  0  0  0  0  0  0  0  0  0  0
  -13.3384   -5.6039   34.1295 C   0  0  0  0  0  0  0  0  0  0  0  0
  -12.9296   -4.3006   33.4605 C   0  0  0  0  0  0  0  0  0  0  0  0
  -13.8941   -3.9033   31.9813 S   0  0  2  0  0  0  0  0  0  0  0  0
  -13.0092   -2.4363   31.3969 C   0  0  0  0  0  0  0  0  0  0  0  0
  -15.3702   -3.1553   32.7229 C   0  0  0  0  0  0  0  0  0  0  0  0
  -16.6104   -3.8774   32.2161 C   0  0  1  0  0  0  0  0  0  0  0  0
  -16.6262   -3.7972   30.8108 O   0  0  0  0  0  0  0  0  0  0  0  0
  -16.6743   -5.3637   32.5136 C   0  0  1  0  0  0  0  0  0  0  0  0
  -17.4324   -5.6128   33.6763 O   0  0  0  0  0  0  0  0  0  0  0  0
  -17.3853   -5.9253   31.2991 C   0  0  1  0  0  0  0  0  0  0  0  0
  -18.7028   -6.2525   31.6667 O   0  0  0  0  0  0  0  0  0  0  0  0
  -17.4098   -4.8202   30.2518 C   0  0  2  0  0  0  0  0  0  0  0  0
  -13.2657   -9.0733   34.0385 O   0  0  0  0  0  0  0  0  0  0  0  0
  -13.0726   -6.9275   28.1250 N   0  0  0  0  0  0  0  0  0  0  0  0
  -13.2992   -6.5969   29.4465 C   0  0  0  0  0  0  0  0  0  0  0  0
  -14.5047   -6.0450   29.8368 N   0  0  0  0  0  0  0  0  0  0  0  0
  -15.4791   -5.8168   28.9245 C   0  0  0  0  0  0  0  0  0  0  0  0
  -15.2724   -6.1509   27.5918 C   0  0  0  0  0  0  0  0  0  0  0  0
  -14.0618   -6.7037   27.1921 C   0  0  0  0  0  0  0  0  0  0  0  0
  -13.8605   -7.0149   25.9139 N   0  0  0  0  0  0  0  0  0  0  0  0
  -16.3909   -5.8308   26.9062 N   0  0  0  0  0  0  0  0  0  0  0  0
  -17.2990   -5.3221   27.7718 C   0  0  0  0  0  0  0  0  0  0  0  0
  -16.7516   -5.3062   29.0275 N   0  0  0  0  0  0  0  0  0  0  0  0
  2  1  1  6  0  0  0
  2  3  1  0  0  0  0
  2  5  1  0  0  0  0
  3  4  1  0  0  0  0
  3 17  1  0  0  0  0
  5  6  1  0  0  0  0
  7  6  1  1  0  0  0
  7  8  1  0  0  0  0
  7  9  1  0  0  0  0
 10  9  1  6  0  0  0
 10 11  1  0  0  0  0
 10 12  1  0  0  0  0
 11 16  1  0  0  0  0
 12 13  1  1  0  0  0
 12 14  1  0  0  0  0
 14 15  1  1  0  0  0
 14 16  1  0  0  0  0
 16 27  1  6  0  0  0
 18 19  2  0  0  0  0
 18 23  1  0  0  0  0
 19 20  1  0  0  0  0
 20 21  2  0  0  0  0
 21 22  1  0  0  0  0
 21 27  1  0  0  0  0
 22 23  2  0  0  0  0
 22 25  1  0  0  0  0
 23 24  1  0  0  0  0
 25 26  2  0  0  0  0
 26 27  1  0  0  0  0
M  END
>  <CHROM.1>
176.41297983,-66.93826186,90.20329282,-174.02554484,-125.59957758,-57.59839714
57.40124353,-14.89925106,-5.67939247,31.14131182,-1.14265009,0.55377907,-1.69480201

>  <Name>
ligand

>  <RI>
0

>  <Rbt.Current_Directory>
/home/itssahil/PROJECTS/Mol_Feturizer/New_Systems/rnas/3GX6

>  <Rbt.Executable>
rbdock ($Id: //depot/dev/client3/rdock/2013.1/src/exe/rbdock.cxx#4 $)

>  <Rbt.Library>
libRbt.so (2013.1, Build901 2013/11/27)

>  <Rbt.Parameter_File>
/export/apps/rDock/src/rDock_2013.1_src/data/scripts/dock_solv.prm

>  <Rbt.Receptor>
prm/pocket_docking_6.prm

>  <SCORE>
-18.7934

>  <SCORE.INTER>
-10.9013

>  <SCORE.INTER.CONST>
1

>  <SCORE.INTER.POLAR>
0

>  <SCORE.INTER.ROT>
7

>  <SCORE.INTER.SOLV>
9.97959

>  <SCORE.INTER.VDW>
-18.8607

>  <SCORE.INTER.norm>
-0.403752

>  <SCORE.INTRA>
-7.89211

>  <SCORE.INTRA.DIHEDRAL>
-3.9275

>  <SCORE.INTRA.DIHEDRAL.0>
15.0182

>  <SCORE.INTRA.POLAR>
0

>  <SCORE.INTRA.POLAR.0>
0

>  <SCORE.INTRA.REPUL>
0

>  <SCORE.INTRA.REPUL.0>
0

>  <SCORE.INTRA.SOLV>
1.5812

>  <SCORE.INTRA.SOLV.lig_0>
-47.9129

>  <SCORE.INTRA.VDW>
-6.71896

>  <SCORE.INTRA.VDW.0>
2.00851

>  <SCORE.INTRA.norm>
-0.2923

>  <SCORE.RESTR>
0

>  <SCORE.RESTR.CAVITY>
0

>  <SCORE.RESTR.norm>
0

>  <SCORE.SYSTEM>
0

>  <SCORE.SYSTEM.CONST>
0

>  <SCORE.SYSTEM.DIHEDRAL>
0

>  <SCORE.SYSTEM.SOLV>
0

>  <SCORE.SYSTEM.norm>
0

>  <SCORE.heavy>
27

>  <SCORE.norm>
-0.696052

>  <RMSD>
6.117

$$$$
ligand
 OpenBabel11021811483D
libRbt.so/2013.1/901 2013/11/27
 27 29  0  0  0  0  0  0  0  0999 V2000
  -15.7642   -2.5708   30.3265 N   0  0  0  0  0  0  0  0  0  0  0  0
  -15.8911   -2.0976   31.7023 C   0  0  2  0  0  0  0  0  0  0  0  0
  -16.8218   -0.8921   31.8060 C   0  0  0  0  0  0  0  0  0  0  0  0
  -18.0438   -1.0202   31.7030 O   0  0  0  0  0  0  0  0  0  0  0  0
  -14.5215   -1.7956   32.3029 C   0  0  0  0  0  0  0  0  0  0  0  0
  -13.5591   -2.9710   32.2296 C   0  0  0  0  0  0  0  0  0  0  0  0
  -14.2526   -4.5243   32.8479 S   0  0  2  0  0  0  0  0  0  0  0  0
  -12.7869   -5.2534   33.6205 C   0  0  0  0  0  0  0  0  0  0  0  0
  -14.3621   -5.4873   31.3153 C   0  0  0  0  0  0  0  0  0  0  0  0
  -15.0469   -6.8159   31.6021 C   0  0  1  0  0  0  0  0  0  0  0  0
  -14.2427   -7.5440   32.4991 O   0  0  0  0  0  0  0  0  0  0  0  0
  -16.3972   -6.7257   32.2880 C   0  0  1  0  0  0  0  0  0  0  0  0
  -17.4457   -6.7879   31.3470 O   0  0  0  0  0  0  0  0  0  0  0  0
  -16.4159   -7.9580   33.1694 C   0  0  1  0  0  0  0  0  0  0  0  0
  -17.2773   -8.9066   32.5897 O   0  0  0  0  0  0  0  0  0  0  0  0
  -14.9959   -8.5072   33.1904 C   0  0  2  0  0  0  0  0  0  0  0  0
  -16.3664    0.2367   31.9902 O   0  0  0  0  0  0  0  0  0  0  0  0
  -16.2499   -9.4349   38.2245 N   0  0  0  0  0  0  0  0  0  0  0  0
  -17.0710   -9.4998   37.1161 C   0  0  0  0  0  0  0  0  0  0  0  0
  -16.5756   -9.2204   35.8564 N   0  0  0  0  0  0  0  0  0  0  0  0
  -15.2765   -8.8742   35.6942 C   0  0  0  0  0  0  0  0  0  0  0  0
  -14.4333   -8.8121   36.7968 C   0  0  0  0  0  0  0  0  0  0  0  0
  -14.9253   -9.0891   38.0664 C   0  0  0  0  0  0  0  0  0  0  0  0
  -14.1198   -9.0202   39.1235 N   0  0  0  0  0  0  0  0  0  0  0  0
  -13.2061   -8.4558   36.3601 N   0  0  0  0  0  0  0  0  0  0  0  0
  -13.2504   -8.3097   35.0150 C   0  0  0  0  0  0  0  0  0  0  0  0
  -14.5255   -8.5655   34.5847 N   0  0  0  0  0  0  0  0  0  0  0  0
  2  1  1  6  0  0  0
  2  3  1  0  0  0  0
  2  5  1  0  0  0  0
  3  4  1  0  0  0  0
  3 17  1  0  0  0  0
  5  6  1  0  0  0  0
  7  6  1  6  0  0  0
  7  8  1  0  0  0  0
  7  9  1  0  0  0  0
 10  9  1  1  0  0  0
 10 11  1  0  0  0  0
 10 12  1  0  0  0  0
 11 16  1  0  0  0  0
 12 13  1  6  0  0  0
 12 14  1  0  0  0  0
 14 15  1  6  0  0  0
 14 16  1  0  0  0  0
 16 27  1  1  0  0  0
 18 19  2  0  0  0  0
 18 23  1  0  0  0  0
 19 20  1  0  0  0  0
 20 21  2  0  0  0  0
 21 22  1  0  0  0  0
 21 27  1  0  0  0  0
 22 23  2  0  0  0  0
 22 25  1  0  0  0  0
 23 24  1  0  0  0  0
 25 26  2  0  0  0  0
 26 27  1  0  0  0  0
M  END
>  <CHROM.1>
74.01373954,-54.97983868,-50.02912310,-144.23059320,-175.12128609,-63.28509378
149.18592956,-15.30028630,-6.09276318,33.69550911,1.71912380,-0.99117875
-0.48344206

>  <Name>
ligand

>  <RI>
0

>  <Rbt.Current_Directory>
/home/itssahil/PROJECTS/Mol_Feturizer/New_Systems/rnas/3GX6

>  <Rbt.Executable>
rbdock ($Id: //depot/dev/client3/rdock/2013.1/src/exe/rbdock.cxx#4 $)

>  <Rbt.Library>
libRbt.so (2013.1, Build901 2013/11/27)

>  <Rbt.Parameter_File>
/export/apps/rDock/src/rDock_2013.1_src/data/scripts/dock_solv.prm

>  <Rbt.Receptor>
prm/pocket_docking_5.prm

>  <SCORE>
-26.0604

>  <SCORE.INTER>
-19.3199

>  <SCORE.INTER.CONST>
1

>  <SCORE.INTER.POLAR>
0

>  <SCORE.INTER.ROT>
7

>  <SCORE.INTER.SOLV>
14.9502

>  <SCORE.INTER.VDW>
-26.13

>  <SCORE.INTER.norm>
-0.715553

>  <SCORE.INTRA>
-6.91296

>  <SCORE.INTRA.DIHEDRAL>
-7.18727

>  <SCORE.INTRA.DIHEDRAL.0>
15.0182

>  <SCORE.INTRA.POLAR>
0

>  <SCORE.INTRA.POLAR.0>
0

>  <SCORE.INTRA.REPUL>
0

>  <SCORE.INTRA.REPUL.0>
0

>  <SCORE.INTRA.SOLV>
1.0323

>  <SCORE.INTRA.SOLV.lig_0>
-47.9129

>  <SCORE.INTRA.VDW>
-3.83547

>  <SCORE.INTRA.VDW.0>
2.00851

>  <SCORE.INTRA.norm>
-0.256036

>  <SCORE.RESTR>
0.172444

>  <SCORE.RESTR.CAVITY>
0.172444

>  <SCORE.RESTR.norm>
0.00638683

>  <SCORE.SYSTEM>
0

>  <SCORE.SYSTEM.CONST>
0

>  <SCORE.SYSTEM.DIHEDRAL>
0

>  <SCORE.SYSTEM.SOLV>
0

>  <SCORE.SYSTEM.norm>
0

>  <SCORE.heavy>
27

>  <SCORE.norm>
-0.965201

>  <RMSD>
6.128

$$$$
ligand
 OpenBabel11021811483D
libRbt.so/2013.1/901 2013/11/27
 27 29  0  0  0  0  0  0  0  0999 V2000
  -13.3143   -8.4494   34.2929 N   0  0  0  0  0  0  0  0  0  0  0  0
  -13.8486   -7.2876   33.5875 C   0  0  2  0  0  0  0  0  0  0  0  0
  -13.7786   -7.4596   32.0725 C   0  0  0  0  0  0  0  0  0  0  0  0
  -12.8224   -8.0268   31.5394 O   0  0  0  0  0  0  0  0  0  0  0  0
  -13.1466   -6.0088   34.0347 C   0  0  0  0  0  0  0  0  0  0  0  0
  -13.9268   -4.7460   33.7037 C   0  0  0  0  0  0  0  0  0  0  0  0
  -13.7227   -4.1864   31.9945 S   0  0  2  0  0  0  0  0  0  0  0  0
  -12.2695   -3.1215   32.1692 C   0  0  0  0  0  0  0  0  0  0  0  0
  -15.0507   -2.9575   31.8731 C   0  0  0  0  0  0  0  0  0  0  0  0
  -16.0028   -3.3527   30.7534 C   0  0  1  0  0  0  0  0  0  0  0  0
  -15.2799   -3.3784   29.5458 O   0  0  0  0  0  0  0  0  0  0  0  0
  -16.6095   -4.7389   30.8639 C   0  0  1  0  0  0  0  0  0  0  0  0
  -17.8875   -4.6839   31.4573 O   0  0  0  0  0  0  0  0  0  0  0  0
  -16.7260   -5.1773   29.4182 C   0  0  1  0  0  0  0  0  0  0  0  0
  -18.0784   -5.1061   29.0393 O   0  0  0  0  0  0  0  0  0  0  0  0
  -15.9140   -4.1901   28.5908 C   0  0  2  0  0  0  0  0  0  0  0  0
  -14.6780   -7.0282   31.3508 O   0  0  0  0  0  0  0  0  0  0  0  0
  -11.2513   -6.6413   28.7513 N   0  0  0  0  0  0  0  0  0  0  0  0
  -11.9255   -6.0245   29.7866 C   0  0  0  0  0  0  0  0  0  0  0  0
  -13.1499   -5.4215   29.5682 N   0  0  0  0  0  0  0  0  0  0  0  0
  -13.7022   -5.4244   28.3317 C   0  0  0  0  0  0  0  0  0  0  0  0
  -13.0424   -6.0476   27.2797 C   0  0  0  0  0  0  0  0  0  0  0  0
  -11.8100   -6.6534   27.4917 C   0  0  0  0  0  0  0  0  0  0  0  0
  -11.1737   -7.2420   26.4818 N   0  0  0  0  0  0  0  0  0  0  0  0
  -13.8056   -5.9124   26.1739 N   0  0  0  0  0  0  0  0  0  0  0  0
  -14.9320   -5.2383   26.5047 C   0  0  0  0  0  0  0  0  0  0  0  0
  -14.8856   -4.9281   27.8382 N   0  0  0  0  0  0  0  0  0  0  0  0
  2  1  1  1  0  0  0
  2  3  1  0  0  0  0
  2  5  1  0  0  0  0
  3  4  1  0  0  0  0
  3 17  1  0  0  0  0
  5  6  1  0  0  0  0
  7  6  1  1  0  0  0
  7  8  1  0  0  0  0
  7  9  1  0  0  0  0
 10  9  1  1  0  0  0
 10 11  1  0  0  0  0
 10 12  1  0  0  0  0
 11 16  1  0  0  0  0
 12 13  1  6  0  0  0
 12 14  1  0  0  0  0
 14 15  1  6  0  0  0
 14 16  1  0  0  0  0
 16 27  1  1  0  0  0
 18 19  2  0  0  0  0
 18 23  1  0  0  0  0
 19 20  1  0  0  0  0
 20 21  2  0  0  0  0
 21 22  1  0  0  0  0
 21 27  1  0  0  0  0
 22 23  2  0  0  0  0
 22 25  1  0  0  0  0
 23 24  1  0  0  0  0
 25 26  2  0  0  0  0
 26 27  1  0  0  0  0
M  END
>  <CHROM.1>
-37.11869620,-161.20444871,-81.37459729,-88.87688658,-121.27630281,-60.91805810
35.61218324,-14.19871399,-5.45730373,30.31017909,-1.68035664,0.56637791,-1.53040035

>  <Name>
ligand

>  <RI>
0

>  <Rbt.Current_Directory>
/home/itssahil/PROJECTS/Mol_Feturizer/New_Systems/rnas/3GX6

>  <Rbt.Executable>
rbdock ($Id: //depot/dev/client3/rdock/2013.1/src/exe/rbdock.cxx#4 $)

>  <Rbt.Library>
libRbt.so (2013.1, Build901 2013/11/27)

>  <Rbt.Parameter_File>
/export/apps/rDock/src/rDock_2013.1_src/data/scripts/dock_solv.prm

>  <Rbt.Receptor>
prm/pocket_docking_6.prm

>  <SCORE>
-21.6675

>  <SCORE.INTER>
-11.3425

>  <SCORE.INTER.CONST>
1

>  <SCORE.INTER.POLAR>
0

>  <SCORE.INTER.ROT>
7

>  <SCORE.INTER.SOLV>
11.8579

>  <SCORE.INTER.VDW>
-19.781

>  <SCORE.INTER.norm>
-0.420093

>  <SCORE.INTRA>
-10.325

>  <SCORE.INTRA.DIHEDRAL>
-3.67434

>  <SCORE.INTRA.DIHEDRAL.0>
15.0182

>  <SCORE.INTRA.POLAR>
0

>  <SCORE.INTRA.POLAR.0>
0

>  <SCORE.INTRA.REPUL>
0

>  <SCORE.INTRA.REPUL.0>
0

>  <SCORE.INTRA.SOLV>
-1.39221

>  <SCORE.INTRA.SOLV.lig_0>
-47.9129

>  <SCORE.INTRA.VDW>
-7.79171

>  <SCORE.INTRA.VDW.0>
2.00851

>  <SCORE.INTRA.norm>
-0.382407

>  <SCORE.RESTR>
0

>  <SCORE.RESTR.CAVITY>
0

>  <SCORE.RESTR.norm>
0

>  <SCORE.SYSTEM>
0

>  <SCORE.SYSTEM.CONST>
0

>  <SCORE.SYSTEM.DIHEDRAL>
0

>  <SCORE.SYSTEM.SOLV>
0

>  <SCORE.SYSTEM.norm>
0

>  <SCORE.heavy>
27

>  <SCORE.norm>
-0.8025

>  <RMSD>
6.133

$$$$
ligand
 OpenBabel11021811483D
libRbt.so/2013.1/901 2013/11/27
 27 29  0  0  0  0  0  0  0  0999 V2000
  -14.1181   -8.2620   34.2094 N   0  0  0  0  0  0  0  0  0  0  0  0
  -15.2208   -7.7014   33.4331 C   0  0  2  0  0  0  0  0  0  0  0  0
  -15.9708   -8.7766   32.6511 C   0  0  0  0  0  0  0  0  0  0  0  0
  -17.0373   -9.2373   33.0642 O   0  0  0  0  0  0  0  0  0  0  0  0
  -14.7287   -6.5873   32.5141 C   0  0  0  0  0  0  0  0  0  0  0  0
  -14.3469   -5.3171   33.2583 C   0  0  0  0  0  0  0  0  0  0  0  0
  -13.7515   -3.9892   32.1820 S   0  0  2  0  0  0  0  0  0  0  0  0
  -12.5901   -3.1601   33.2956 C   0  0  0  0  0  0  0  0  0  0  0  0
  -15.1617   -2.8499   32.2277 C   0  0  0  0  0  0  0  0  0  0  0  0
  -16.1510   -3.2276   31.1346 C   0  0  1  0  0  0  0  0  0  0  0  0
  -15.4811   -3.1851   29.8972 O   0  0  0  0  0  0  0  0  0  0  0  0
  -16.7148   -4.6339   31.2144 C   0  0  1  0  0  0  0  0  0  0  0  0
  -17.9667   -4.6388   31.8636 O   0  0  0  0  0  0  0  0  0  0  0  0
  -16.8827   -5.0181   29.7584 C   0  0  1  0  0  0  0  0  0  0  0  0
  -18.2518   -4.9707   29.4407 O   0  0  0  0  0  0  0  0  0  0  0  0
  -16.1344   -3.9762   28.9379 C   0  0  2  0  0  0  0  0  0  0  0  0
  -15.5195   -9.2095   31.5907 O   0  0  0  0  0  0  0  0  0  0  0  0
  -11.5932   -6.6494   28.8575 N   0  0  0  0  0  0  0  0  0  0  0  0
  -12.2665   -6.1466   29.9533 C   0  0  0  0  0  0  0  0  0  0  0  0
  -13.4560   -5.4611   29.7943 N   0  0  0  0  0  0  0  0  0  0  0  0
  -13.9745   -5.2697   28.5580 C   0  0  0  0  0  0  0  0  0  0  0  0
  -13.3155   -5.7758   27.4444 C   0  0  0  0  0  0  0  0  0  0  0  0
  -12.1178   -6.4637   27.5968 C   0  0  0  0  0  0  0  0  0  0  0  0
  -11.4818   -6.9401   26.5293 N   0  0  0  0  0  0  0  0  0  0  0  0
  -14.0418   -5.4551   26.3520 N   0  0  0  0  0  0  0  0  0  0  0  0
  -15.1451   -4.7783   26.7486 C   0  0  0  0  0  0  0  0  0  0  0  0
  -15.1206   -4.6543   28.1127 N   0  0  0  0  0  0  0  0  0  0  0  0
  2  1  1  6  0  0  0
  2  3  1  0  0  0  0
  2  5  1  0  0  0  0
  3  4  1  0  0  0  0
  3 17  1  0  0  0  0
  5  6  1  0  0  0  0
  7  6  1  1  0  0  0
  7  8  1  0  0  0  0
  7  9  1  0  0  0  0
 10  9  1  1  0  0  0
 10 11  1  0  0  0  0
 10 12  1  0  0  0  0
 11 16  1  0  0  0  0
 12 13  1  1  0  0  0
 12 14  1  0  0  0  0
 14 15  1  6  0  0  0
 14 16  1  0  0  0  0
 16 27  1  6  0  0  0
 18 19  2  0  0  0  0
 18 23  1  0  0  0  0
 19 20  1  0  0  0  0
 20 21  2  0  0  0  0
 21 22  1  0  0  0  0
 21 27  1  0  0  0  0
 22 23  2  0  0  0  0
 22 25  1  0  0  0  0
 23 24  1  0  0  0  0
 25 26  2  0  0  0  0
 26 27  1  0  0  0  0
M  END
>  <CHROM.1>
100.07632069,-71.62140209,179.64972020,-149.04637621,-88.03313889,-57.78464190
43.58612308,-14.77279075,-5.56650839,30.54563407,-2.18544112,0.87137793,-0.84301921

>  <Name>
ligand

>  <RI>
0

>  <Rbt.Current_Directory>
/home/itssahil/PROJECTS/Mol_Feturizer/New_Systems/rnas/3GX6

>  <Rbt.Executable>
rbdock ($Id: //depot/dev/client3/rdock/2013.1/src/exe/rbdock.cxx#4 $)

>  <Rbt.Library>
libRbt.so (2013.1, Build901 2013/11/27)

>  <Rbt.Parameter_File>
/export/apps/rDock/src/rDock_2013.1_src/data/scripts/dock_solv.prm

>  <Rbt.Receptor>
prm/pocket_docking_3.prm

>  <SCORE>
-20.292

>  <SCORE.INTER>
-10.408

>  <SCORE.INTER.CONST>
1

>  <SCORE.INTER.POLAR>
0

>  <SCORE.INTER.ROT>
7

>  <SCORE.INTER.SOLV>
11.3366

>  <SCORE.INTER.VDW>
-18.9842

>  <SCORE.INTER.norm>
-0.385481

>  <SCORE.INTRA>
-9.88405

>  <SCORE.INTRA.DIHEDRAL>
-7.03614

>  <SCORE.INTRA.DIHEDRAL.0>
15.0182

>  <SCORE.INTRA.POLAR>
0

>  <SCORE.INTRA.POLAR.0>
0

>  <SCORE.INTRA.REPUL>
0

>  <SCORE.INTRA.REPUL.0>
0

>  <SCORE.INTRA.SOLV>
-0.676951

>  <SCORE.INTRA.SOLV.lig_0>
-47.9129

>  <SCORE.INTRA.VDW>
-6.0275

>  <SCORE.INTRA.VDW.0>
2.00851

>  <SCORE.INTRA.norm>
-0.366076

>  <SCORE.RESTR>
0

>  <SCORE.RESTR.CAVITY>
0

>  <SCORE.RESTR.norm>
0

>  <SCORE.SYSTEM>
0

>  <SCORE.SYSTEM.CONST>
0

>  <SCORE.SYSTEM.DIHEDRAL>
0

>  <SCORE.SYSTEM.SOLV>
0

>  <SCORE.SYSTEM.norm>
0

>  <SCORE.heavy>
27

>  <SCORE.norm>
-0.751557

>  <RMSD>
6.137

$$$$
ligand
 OpenBabel11021811483D
libRbt.so/2013.1/901 2013/11/27
 27 29  0  0  0  0  0  0  0  0999 V2000
  -13.9089   -2.7880   30.5690 N   0  0  0  0  0  0  0  0  0  0  0  0
  -14.7256   -2.6536   31.7723 C   0  0  2  0  0  0  0  0  0  0  0  0
  -15.7112   -1.4930   31.6647 C   0  0  0  0  0  0  0  0  0  0  0  0
  -16.8085   -1.5352   32.2254 O   0  0  0  0  0  0  0  0  0  0  0  0
  -13.8487   -2.5247   33.0141 C   0  0  0  0  0  0  0  0  0  0  0  0
  -13.0609   -3.7870   33.3290 C   0  0  0  0  0  0  0  0  0  0  0  0
  -14.0762   -5.2835   33.4050 S   0  0  2  0  0  0  0  0  0  0  0  0
  -12.8297   -6.5012   33.8946 C   0  0  0  0  0  0  0  0  0  0  0  0
  -14.2671   -5.6605   31.6415 C   0  0  0  0  0  0  0  0  0  0  0  0
  -15.5740   -6.4095   31.4243 C   0  0  1  0  0  0  0  0  0  0  0  0
  -15.8458   -6.4344   30.0433 O   0  0  0  0  0  0  0  0  0  0  0  0
  -15.5728   -7.8690   31.8388 C   0  0  1  0  0  0  0  0  0  0  0  0
  -16.1049   -8.0251   33.1353 O   0  0  0  0  0  0  0  0  0  0  0  0
  -16.4894   -8.5146   30.8194 C   0  0  1  0  0  0  0  0  0  0  0  0
  -17.7157   -8.8040   31.4441 O   0  0  0  0  0  0  0  0  0  0  0  0
  -16.7113   -7.4907   29.7144 C   0  0  2  0  0  0  0  0  0  0  0  0
  -15.4290   -0.4904   31.0083 O   0  0  0  0  0  0  0  0  0  0  0  0
  -14.4659   -6.6325   25.0244 N   0  0  0  0  0  0  0  0  0  0  0  0
  -14.6971   -5.7229   26.0374 C   0  0  0  0  0  0  0  0  0  0  0  0
  -15.3051   -6.1196   27.2135 N   0  0  0  0  0  0  0  0  0  0  0  0
  -15.6867   -7.4075   27.3851 C   0  0  0  0  0  0  0  0  0  0  0  0
  -15.4545   -8.3386   26.3802 C   0  0  0  0  0  0  0  0  0  0  0  0
  -14.8460   -7.9461   25.1942 C   0  0  0  0  0  0  0  0  0  0  0  0
  -14.6324   -8.8360   24.2281 N   0  0  0  0  0  0  0  0  0  0  0  0
  -15.9189   -9.5328   26.8066 N   0  0  0  0  0  0  0  0  0  0  0  0
  -16.4196   -9.3821   28.0553 C   0  0  0  0  0  0  0  0  0  0  0  0
  -16.2838   -8.0716   28.4305 N   0  0  0  0  0  0  0  0  0  0  0  0
  2  1  1  6  0  0  0
  2  3  1  0  0  0  0
  2  5  1  0  0  0  0
  3  4  1  0  0  0  0
  3 17  1  0  0  0  0
  5  6  1  0  0  0  0
  7  6  1  6  0  0  0
  7  8  1  0  0  0  0
  7  9  1  0  0  0  0
 10  9  1  6  0  0  0
 10 11  1  0  0  0  0
 10 12  1  0  0  0  0
 11 16  1  0  0  0  0
 12 13  1  1  0  0  0
 12 14  1  0  0  0  0
 14 15  1  1  0  0  0
 14 16  1  0  0  0  0
 16 27  1  6  0  0  0
 18 19  2  0  0  0  0
 18 23  1  0  0  0  0
 19 20  1  0  0  0  0
 20 21  2  0  0  0  0
 21 22  1  0  0  0  0
 21 27  1  0  0  0  0
 22 23  2  0  0  0  0
 22 25  1  0  0  0  0
 23 24  1  0  0  0  0
 25 26  2  0  0  0  0
 26 27  1  0  0  0  0
M  END
>  <CHROM.1>
148.38594077,-66.87918756,-51.89009291,-176.48592047,-152.23415724,167.32612212
-31.69213868,-15.22705303,-5.99533849,30.11795445,-0.89813883,-1.38888787
-1.58006297

>  <Name>
ligand

>  <RI>
0

>  <Rbt.Current_Directory>
/home/itssahil/PROJECTS/Mol_Feturizer/New_Systems/rnas/3GX6

>  <Rbt.Executable>
rbdock ($Id: //depot/dev/client3/rdock/2013.1/src/exe/rbdock.cxx#4 $)

>  <Rbt.Library>
libRbt.so (2013.1, Build901 2013/11/27)

>  <Rbt.Parameter_File>
/export/apps/rDock/src/rDock_2013.1_src/data/scripts/dock_solv.prm

>  <Rbt.Receptor>
prm/pocket_docking_6.prm

>  <SCORE>
-19.6299

>  <SCORE.INTER>
-12.1256

>  <SCORE.INTER.CONST>
1

>  <SCORE.INTER.POLAR>
0

>  <SCORE.INTER.ROT>
7

>  <SCORE.INTER.SOLV>
10.7263

>  <SCORE.INTER.VDW>
-19.9258

>  <SCORE.INTER.norm>
-0.449095

>  <SCORE.INTRA>
-7.50435

>  <SCORE.INTRA.DIHEDRAL>
-7.5915

>  <SCORE.INTRA.DIHEDRAL.0>
15.0182

>  <SCORE.INTRA.POLAR>
0

>  <SCORE.INTRA.POLAR.0>
0

>  <SCORE.INTRA.REPUL>
0

>  <SCORE.INTRA.REPUL.0>
0

>  <SCORE.INTRA.SOLV>
1.35808

>  <SCORE.INTRA.SOLV.lig_0>
-47.9129

>  <SCORE.INTRA.VDW>
-4.38763

>  <SCORE.INTRA.VDW.0>
2.00851

>  <SCORE.INTRA.norm>
-0.277939

>  <SCORE.RESTR>
0

>  <SCORE.RESTR.CAVITY>
0

>  <SCORE.RESTR.norm>
0

>  <SCORE.SYSTEM>
0

>  <SCORE.SYSTEM.CONST>
0

>  <SCORE.SYSTEM.DIHEDRAL>
0

>  <SCORE.SYSTEM.SOLV>
0

>  <SCORE.SYSTEM.norm>
0

>  <SCORE.heavy>
27

>  <SCORE.norm>
-0.727033

>  <RMSD>
6.146

$$$$
ligand
 OpenBabel11021811483D
libRbt.so/2013.1/901 2013/11/27
 27 29  0  0  0  0  0  0  0  0999 V2000
  -10.0299  -11.4132   25.4725 N   0  0  0  0  0  0  0  0  0  0  0  0
  -11.3615  -10.9423   25.1010 C   0  0  2  0  0  0  0  0  0  0  0  0
  -11.4889  -10.7246   23.5956 C   0  0  0  0  0  0  0  0  0  0  0  0
  -12.5803  -10.8156   23.0291 O   0  0  0  0  0  0  0  0  0  0  0  0
  -11.7297   -9.6818   25.8780 C   0  0  0  0  0  0  0  0  0  0  0  0
  -11.8701   -9.9158   27.3742 C   0  0  0  0  0  0  0  0  0  0  0  0
  -12.6051   -8.5233   28.2669 S   0  0  2  0  0  0  0  0  0  0  0  0
  -11.1627   -7.4425   28.4337 C   0  0  0  0  0  0  0  0  0  0  0  0
  -12.7275   -9.2124   29.9398 C   0  0  0  0  0  0  0  0  0  0  0  0
  -13.6273   -8.3239   30.7867 C   0  0  1  0  0  0  0  0  0  0  0  0
  -14.8352   -8.1259   30.0914 O   0  0  0  0  0  0  0  0  0  0  0  0
  -14.0486   -8.8995   32.1258 C   0  0  1  0  0  0  0  0  0  0  0  0
  -13.2086   -8.4370   33.1598 O   0  0  0  0  0  0  0  0  0  0  0  0
  -15.4489   -8.3504   32.3087 C   0  0  1  0  0  0  0  0  0  0  0  0
  -15.4029   -7.3260   33.2712 O   0  0  0  0  0  0  0  0  0  0  0  0
  -15.8734   -7.7682   30.9673 C   0  0  2  0  0  0  0  0  0  0  0  0
  -10.4982  -10.4578   22.9152 O   0  0  0  0  0  0  0  0  0  0  0  0
  -18.3275  -10.4197   27.1303 N   0  0  0  0  0  0  0  0  0  0  0  0
  -17.0347   -9.9343   27.1382 C   0  0  0  0  0  0  0  0  0  0  0  0
  -16.5462   -9.2521   28.2364 N   0  0  0  0  0  0  0  0  0  0  0  0
  -17.3333   -9.0469   29.3191 C   0  0  0  0  0  0  0  0  0  0  0  0
  -18.6339   -9.5354   29.3327 C   0  0  0  0  0  0  0  0  0  0  0  0
  -19.1323  -10.2198   28.2309 C   0  0  0  0  0  0  0  0  0  0  0  0
  -20.3813  -10.6793   28.2403 N   0  0  0  0  0  0  0  0  0  0  0  0
  -19.1887   -9.2037   30.5184 N   0  0  0  0  0  0  0  0  0  0  0  0
  -18.2694   -8.5371   31.2554 C   0  0  0  0  0  0  0  0  0  0  0  0
  -17.1131   -8.4309   30.5285 N   0  0  0  0  0  0  0  0  0  0  0  0
  2  1  1  6  0  0  0
  2  3  1  0  0  0  0
  2  5  1  0  0  0  0
  3  4  1  0  0  0  0
  3 17  1  0  0  0  0
  5  6  1  0  0  0  0
  7  6  1  6  0  0  0
  7  8  1  0  0  0  0
  7  9  1  0  0  0  0
 10  9  1  6  0  0  0
 10 11  1  0  0  0  0
 10 12  1  0  0  0  0
 11 16  1  0  0  0  0
 12 13  1  1  0  0  0
 12 14  1  0  0  0  0
 14 15  1  1  0  0  0
 14 16  1  0  0  0  0
 16 27  1  6  0  0  0
 18 19  2  0  0  0  0
 18 23  1  0  0  0  0
 19 20  1  0  0  0  0
 20 21  2  0  0  0  0
 21 22  1  0  0  0  0
 21 27  1  0  0  0  0
 22 23  2  0  0  0  0
 22 25  1  0  0  0  0
 23 24  1  0  0  0  0
 25 26  2  0  0  0  0
 26 27  1  0  0  0  0
M  END
>  <CHROM.1>
152.93090674,-65.40099189,-169.05887777,-80.52356696,-166.48932670,51.66715433
-13.73157244,-14.62343681,-9.26541763,28.59031256,-0.79978700,0.11317672
1.21277384

>  <Name>
ligand

>  <RI>
0

>  <Rbt.Current_Directory>
/home/itssahil/PROJECTS/Mol_Feturizer/New_Systems/rnas/3GX6

>  <Rbt.Executable>
rbdock ($Id: //depot/dev/client3/rdock/2013.1/src/exe/rbdock.cxx#4 $)

>  <Rbt.Library>
libRbt.so (2013.1, Build901 2013/11/27)

>  <Rbt.Parameter_File>
/export/apps/rDock/src/rDock_2013.1_src/data/scripts/dock_solv.prm

>  <Rbt.Receptor>
prm/pocket_docking_7.prm

>  <SCORE>
-16.0702

>  <SCORE.INTER>
-6.53441

>  <SCORE.INTER.CONST>
1

>  <SCORE.INTER.POLAR>
0

>  <SCORE.INTER.ROT>
7

>  <SCORE.INTER.SOLV>
11.3923

>  <SCORE.INTER.VDW>
-16.4204

>  <SCORE.INTER.norm>
-0.242015

>  <SCORE.INTRA>
-9.53579

>  <SCORE.INTRA.DIHEDRAL>
-9.29674

>  <SCORE.INTRA.DIHEDRAL.0>
15.0182

>  <SCORE.INTRA.POLAR>
0

>  <SCORE.INTRA.POLAR.0>
0

>  <SCORE.INTRA.REPUL>
0

>  <SCORE.INTRA.REPUL.0>
0

>  <SCORE.INTRA.SOLV>
-1.12726

>  <SCORE.INTRA.SOLV.lig_0>
-47.9129

>  <SCORE.INTRA.VDW>
-4.32379

>  <SCORE.INTRA.VDW.0>
2.00851

>  <SCORE.INTRA.norm>
-0.353177

>  <SCORE.RESTR>
0

>  <SCORE.RESTR.CAVITY>
0

>  <SCORE.RESTR.norm>
0

>  <SCORE.SYSTEM>
0

>  <SCORE.SYSTEM.CONST>
0

>  <SCORE.SYSTEM.DIHEDRAL>
0

>  <SCORE.SYSTEM.SOLV>
0

>  <SCORE.SYSTEM.norm>
0

>  <SCORE.heavy>
27

>  <SCORE.norm>
-0.595192

>  <RMSD>
6.165

$$$$
ligand
 OpenBabel11021811483D
libRbt.so/2013.1/901 2013/11/27
 27 29  0  0  0  0  0  0  0  0999 V2000
  -15.4383   -9.3242   34.5154 N   0  0  0  0  0  0  0  0  0  0  0  0
  -14.7983   -8.1958   33.8446 C   0  0  2  0  0  0  0  0  0  0  0  0
  -14.6943   -8.4139   32.3374 C   0  0  0  0  0  0  0  0  0  0  0  0
  -15.5455   -7.9620   31.5683 O   0  0  0  0  0  0  0  0  0  0  0  0
  -13.4333   -7.9001   34.4588 C   0  0  0  0  0  0  0  0  0  0  0  0
  -13.1679   -6.4148   34.6503 C   0  0  0  0  0  0  0  0  0  0  0  0
  -13.2465   -5.4538   33.1185 S   0  0  2  0  0  0  0  0  0  0  0  0
  -12.6111   -3.8609   33.6976 C   0  0  0  0  0  0  0  0  0  0  0  0
  -15.0243   -5.1111   33.0173 C   0  0  0  0  0  0  0  0  0  0  0  0
  -15.2640   -3.9761   32.0322 C   0  0  1  0  0  0  0  0  0  0  0  0
  -14.5709   -4.2687   30.8424 O   0  0  0  0  0  0  0  0  0  0  0  0
  -16.7033   -3.7766   31.5955 C   0  0  1  0  0  0  0  0  0  0  0  0
  -17.3288   -2.7736   32.3645 O   0  0  0  0  0  0  0  0  0  0  0  0
  -16.5639   -3.3184   30.1579 C   0  0  1  0  0  0  0  0  0  0  0  0
  -16.8284   -1.9382   30.1032 O   0  0  0  0  0  0  0  0  0  0  0  0
  -15.1193   -3.5753   29.7508 C   0  0  2  0  0  0  0  0  0  0  0  0
  -13.7565   -9.0529   31.8602 O   0  0  0  0  0  0  0  0  0  0  0  0
  -12.9599   -7.7878   27.4340 N   0  0  0  0  0  0  0  0  0  0  0  0
  -12.6549   -7.2430   28.6658 C   0  0  0  0  0  0  0  0  0  0  0  0
  -13.3231   -6.1236   29.1247 N   0  0  0  0  0  0  0  0  0  0  0  0
  -14.2845   -5.5433   28.3678 C   0  0  0  0  0  0  0  0  0  0  0  0
  -14.6110   -6.0825   27.1296 C   0  0  0  0  0  0  0  0  0  0  0  0
  -13.9412   -7.2062   26.6609 C   0  0  0  0  0  0  0  0  0  0  0  0
  -14.2474   -7.7169   25.4707 N   0  0  0  0  0  0  0  0  0  0  0  0
  -15.5931   -5.3260   26.5943 N   0  0  0  0  0  0  0  0  0  0  0  0
  -15.9043   -4.3391   27.4671 C   0  0  0  0  0  0  0  0  0  0  0  0
  -15.1037   -4.4582   28.5723 N   0  0  0  0  0  0  0  0  0  0  0  0
  2  1  1  1  0  0  0
  2  3  1  0  0  0  0
  2  5  1  0  0  0  0
  3  4  1  0  0  0  0
  3 17  1  0  0  0  0
  5  6  1  0  0  0  0
  7  6  1  1  0  0  0
  7  8  1  0  0  0  0
  7  9  1  0  0  0  0
 10  9  1  1  0  0  0
 10 11  1  0  0  0  0
 10 12  1  0  0  0  0
 11 16  1  0  0  0  0
 12 13  1  1  0  0  0
 12 14  1  0  0  0  0
 14 15  1  1  0  0  0
 14 16  1  0  0  0  0
 16 27  1  6  0  0  0
 18 19  2  0  0  0  0
 18 23  1  0  0  0  0
 19 20  1  0  0  0  0
 20 21  2  0  0  0  0
 21 22  1  0  0  0  0
 21 27  1  0  0  0  0
 22 23  2  0  0  0  0
 22 25  1  0  0  0  0
 23 24  1  0  0  0  0
 25 26  2  0  0  0  0
 26 27  1  0  0  0  0
M  END
>  <CHROM.1>
95.38435582,-137.44291199,-58.66062062,-170.70978526,163.38587436,49.71325625
-22.79912996,-14.64201499,-5.77812491,30.77084475,-1.34828739,1.15725656
-1.61080109

>  <Name>
ligand

>  <RI>
0

>  <Rbt.Current_Directory>
/home/itssahil/PROJECTS/Mol_Feturizer/New_Systems/rnas/3GX6

>  <Rbt.Executable>
rbdock ($Id: //depot/dev/client3/rdock/2013.1/src/exe/rbdock.cxx#4 $)

>  <Rbt.Library>
libRbt.so (2013.1, Build901 2013/11/27)

>  <Rbt.Parameter_File>
/export/apps/rDock/src/rDock_2013.1_src/data/scripts/dock_solv.prm

>  <Rbt.Receptor>
prm/pocket_docking_2.prm

>  <SCORE>
-18.1747

>  <SCORE.INTER>
-10.4774

>  <SCORE.INTER.CONST>
1

>  <SCORE.INTER.POLAR>
0

>  <SCORE.INTER.ROT>
7

>  <SCORE.INTER.SOLV>
11.1938

>  <SCORE.INTER.VDW>
-18.9828

>  <SCORE.INTER.norm>
-0.38805

>  <SCORE.INTRA>
-8.66108

>  <SCORE.INTRA.DIHEDRAL>
-5.8787

>  <SCORE.INTRA.DIHEDRAL.0>
15.0182

>  <SCORE.INTRA.POLAR>
0

>  <SCORE.INTRA.POLAR.0>
0

>  <SCORE.INTRA.REPUL>
0

>  <SCORE.INTRA.REPUL.0>
0

>  <SCORE.INTRA.SOLV>
-1.3285

>  <SCORE.INTRA.SOLV.lig_0>
-47.9129

>  <SCORE.INTRA.VDW>
-5.05748

>  <SCORE.INTRA.VDW.0>
2.00851

>  <SCORE.INTRA.norm>
-0.320781

>  <SCORE.RESTR>
0.963749

>  <SCORE.RESTR.CAVITY>
0.963749

>  <SCORE.RESTR.norm>
0.0356944

>  <SCORE.SYSTEM>
0

>  <SCORE.SYSTEM.CONST>
0

>  <SCORE.SYSTEM.DIHEDRAL>
0

>  <SCORE.SYSTEM.SOLV>
0

>  <SCORE.SYSTEM.norm>
0

>  <SCORE.heavy>
27

>  <SCORE.norm>
-0.673136

>  <RMSD>
6.166

$$$$
ligand
 OpenBabel11021811483D
libRbt.so/2013.1/901 2013/11/27
 27 29  0  0  0  0  0  0  0  0999 V2000
  -14.8271   -8.5546   26.1547 N   0  0  0  0  0  0  0  0  0  0  0  0
  -14.3413   -9.0714   27.4313 C   0  0  2  0  0  0  0  0  0  0  0  0
  -13.4909  -10.3261   27.2509 C   0  0  0  0  0  0  0  0  0  0  0  0
  -13.6180  -11.0442   26.2566 O   0  0  0  0  0  0  0  0  0  0  0  0
  -15.4983   -9.3180   28.3947 C   0  0  0  0  0  0  0  0  0  0  0  0
  -15.0460   -9.6116   29.8168 C   0  0  0  0  0  0  0  0  0  0  0  0
  -14.2472   -8.2086   30.6351 S   0  0  2  0  0  0  0  0  0  0  0  0
  -12.5055   -8.6095   30.3480 C   0  0  0  0  0  0  0  0  0  0  0  0
  -14.4356   -8.6729   32.3779 C   0  0  0  0  0  0  0  0  0  0  0  0
  -15.8935   -8.5176   32.7865 C   0  0  1  0  0  0  0  0  0  0  0  0
  -16.1389   -9.3664   33.8824 O   0  0  0  0  0  0  0  0  0  0  0  0
  -16.2969   -7.1389   33.2746 C   0  0  1  0  0  0  0  0  0  0  0  0
  -16.8727   -6.3838   32.2321 O   0  0  0  0  0  0  0  0  0  0  0  0
  -17.3377   -7.4420   34.3332 C   0  0  1  0  0  0  0  0  0  0  0  0
  -18.6066   -7.1351   33.8103 O   0  0  0  0  0  0  0  0  0  0  0  0
  -17.2540   -8.9352   34.6198 C   0  0  2  0  0  0  0  0  0  0  0  0
  -12.6618  -10.6486   28.1020 O   0  0  0  0  0  0  0  0  0  0  0  0
  -13.6653   -8.7889   38.4766 N   0  0  0  0  0  0  0  0  0  0  0  0
  -13.4896   -8.4988   37.1380 C   0  0  0  0  0  0  0  0  0  0  0  0
  -14.5475   -8.5914   36.2535 N   0  0  0  0  0  0  0  0  0  0  0  0
  -15.7714   -8.9733   36.6893 C   0  0  0  0  0  0  0  0  0  0  0  0
  -15.9692   -9.2609   38.0342 C   0  0  0  0  0  0  0  0  0  0  0  0
  -14.9094   -9.1725   38.9285 C   0  0  0  0  0  0  0  0  0  0  0  0
  -15.0968   -9.4572   40.2149 N   0  0  0  0  0  0  0  0  0  0  0  0
  -17.2651   -9.6036   38.1983 N   0  0  0  0  0  0  0  0  0  0  0  0
  -17.8897   -9.5227   37.0000 C   0  0  0  0  0  0  0  0  0  0  0  0
  -16.9797   -9.1330   36.0530 N   0  0  0  0  0  0  0  0  0  0  0  0
  2  1  1  6  0  0  0
  2  3  1  0  0  0  0
  2  5  1  0  0  0  0
  3  4  1  0  0  0  0
  3 17  1  0  0  0  0
  5  6  1  0  0  0  0
  7  6  1  6  0  0  0
  7  8  1  0  0  0  0
  7  9  1  0  0  0  0
 10  9  1  1  0  0  0
 10 11  1  0  0  0  0
 10 12  1  0  0  0  0
 11 16  1  0  0  0  0
 12 13  1  6  0  0  0
 12 14  1  0  0  0  0
 14 15  1  6  0  0  0
 14 16  1  0  0  0  0
 16 27  1  1  0  0  0
 18 19  2  0  0  0  0
 18 23  1  0  0  0  0
 19 20  1  0  0  0  0
 20 21  2  0  0  0  0
 21 22  1  0  0  0  0
 21 27  1  0  0  0  0
 22 23  2  0  0  0  0
 22 25  1  0  0  0  0
 23 24  1  0  0  0  0
 25 26  2  0  0  0  0
 26 27  1  0  0  0  0
M  END
>  <CHROM.1>
-24.01566389,-169.44413316,66.51552724,-96.85283826,-72.05993316,155.73059537
36.26039561,-15.29659442,-8.85301806,33.02388239,1.36995454,0.42056947,-1.54461363

>  <Name>
ligand

>  <RI>
0

>  <Rbt.Current_Directory>
/home/itssahil/PROJECTS/Mol_Feturizer/New_Systems/rnas/3GX6

>  <Rbt.Executable>
rbdock ($Id: //depot/dev/client3/rdock/2013.1/src/exe/rbdock.cxx#4 $)

>  <Rbt.Library>
libRbt.so (2013.1, Build901 2013/11/27)

>  <Rbt.Parameter_File>
/export/apps/rDock/src/rDock_2013.1_src/data/scripts/dock_solv.prm

>  <Rbt.Receptor>
prm/pocket_docking_8.prm

>  <SCORE>
-23.7667

>  <SCORE.INTER>
-13.9227

>  <SCORE.INTER.CONST>
1

>  <SCORE.INTER.POLAR>
0

>  <SCORE.INTER.ROT>
7

>  <SCORE.INTER.SOLV>
8.85403

>  <SCORE.INTER.VDW>
-20.4998

>  <SCORE.INTER.norm>
-0.515655

>  <SCORE.INTRA>
-9.84402

>  <SCORE.INTRA.DIHEDRAL>
-7.35965

>  <SCORE.INTRA.DIHEDRAL.0>
15.0182

>  <SCORE.INTRA.POLAR>
0

>  <SCORE.INTRA.POLAR.0>
0

>  <SCORE.INTRA.REPUL>
0

>  <SCORE.INTRA.REPUL.0>
0

>  <SCORE.INTRA.SOLV>
-1.55283

>  <SCORE.INTRA.SOLV.lig_0>
-47.9129

>  <SCORE.INTRA.VDW>
-5.38779

>  <SCORE.INTRA.VDW.0>
2.00851

>  <SCORE.INTRA.norm>
-0.364593

>  <SCORE.RESTR>
0

>  <SCORE.RESTR.CAVITY>
0

>  <SCORE.RESTR.norm>
0

>  <SCORE.SYSTEM>
0

>  <SCORE.SYSTEM.CONST>
0

>  <SCORE.SYSTEM.DIHEDRAL>
0

>  <SCORE.SYSTEM.SOLV>
0

>  <SCORE.SYSTEM.norm>
0

>  <SCORE.heavy>
27

>  <SCORE.norm>
-0.880248

>  <RMSD>
6.177

$$$$
ligand
 OpenBabel11021811483D
libRbt.so/2013.1/901 2013/11/27
 27 29  0  0  0  0  0  0  0  0999 V2000
  -16.0344   -8.0900   32.5484 N   0  0  0  0  0  0  0  0  0  0  0  0
  -14.8909   -7.1815   32.5422 C   0  0  2  0  0  0  0  0  0  0  0  0
  -13.5792   -7.9156   32.8076 C   0  0  0  0  0  0  0  0  0  0  0  0
  -13.5625   -8.9941   33.4050 O   0  0  0  0  0  0  0  0  0  0  0  0
  -15.0981   -6.0386   33.5315 C   0  0  0  0  0  0  0  0  0  0  0  0
  -13.9352   -5.0593   33.5729 C   0  0  0  0  0  0  0  0  0  0  0  0
  -13.6541   -4.1905   32.0101 S   0  0  2  0  0  0  0  0  0  0  0  0
  -12.2486   -3.1443   32.4646 C   0  0  0  0  0  0  0  0  0  0  0  0
  -15.0128   -2.9897   32.0340 C   0  0  0  0  0  0  0  0  0  0  0  0
  -16.0114   -3.3360   30.9390 C   0  0  1  0  0  0  0  0  0  0  0  0
  -15.3388   -3.3121   29.7026 O   0  0  0  0  0  0  0  0  0  0  0  0
  -16.6175   -4.7247   31.0162 C   0  0  1  0  0  0  0  0  0  0  0  0
  -17.8699   -4.6927   31.6636 O   0  0  0  0  0  0  0  0  0  0  0  0
  -16.7948   -5.1019   29.5594 C   0  0  1  0  0  0  0  0  0  0  0  0
  -18.1614   -5.0128   29.2399 O   0  0  0  0  0  0  0  0  0  0  0  0
  -16.0142   -4.0820   28.7414 C   0  0  2  0  0  0  0  0  0  0  0  0
  -12.5077   -7.4391   32.4326 O   0  0  0  0  0  0  0  0  0  0  0  0
  -11.5620   -6.9011   28.6650 N   0  0  0  0  0  0  0  0  0  0  0  0
  -12.2225   -6.3812   29.7607 C   0  0  0  0  0  0  0  0  0  0  0  0
  -13.3885   -5.6567   29.6005 N   0  0  0  0  0  0  0  0  0  0  0  0
  -13.8962   -5.4434   28.3633 C   0  0  0  0  0  0  0  0  0  0  0  0
  -13.2501   -5.9662   27.2498 C   0  0  0  0  0  0  0  0  0  0  0  0
  -12.0759   -6.6932   27.4034 C   0  0  0  0  0  0  0  0  0  0  0  0
  -11.4521   -7.1857   26.3360 N   0  0  0  0  0  0  0  0  0  0  0  0
  -13.9618   -5.6176   26.1563 N   0  0  0  0  0  0  0  0  0  0  0  0
  -15.0439   -4.9069   26.5521 C   0  0  0  0  0  0  0  0  0  0  0  0
  -15.0201   -4.7893   27.9168 N   0  0  0  0  0  0  0  0  0  0  0  0
  2  1  1  1  0  0  0
  2  3  1  0  0  0  0
  2  5  1  0  0  0  0
  3  4  1  0  0  0  0
  3 17  1  0  0  0  0
  5  6  1  0  0  0  0
  7  6  1  1  0  0  0
  7  8  1  0  0  0  0
  7  9  1  0  0  0  0
 10  9  1  1  0  0  0
 10 11  1  0  0  0  0
 10 12  1  0  0  0  0
 11 16  1  0  0  0  0
 12 13  1  1  0  0  0
 12 14  1  0  0  0  0
 14 15  1  6  0  0  0
 14 16  1  0  0  0  0
 16 27  1  6  0  0  0
 18 19  2  0  0  0  0
 18 23  1  0  0  0  0
 19 20  1  0  0  0  0
 20 21  2  0  0  0  0
 21 22  1  0  0  0  0
 21 27  1  0  0  0  0
 22 23  2  0  0  0  0
 22 25  1  0  0  0  0
 23 24  1  0  0  0  0
 25 26  2  0  0  0  0
 26 27  1  0  0  0  0
M  END
>  <CHROM.1>
-23.57201988,179.82560266,62.98292249,179.40851695,-112.00444069,-58.90035239
43.82686825,-14.41347408,-5.51301987,30.38893106,-1.83737410,0.62162843,-1.39019855

>  <Name>
ligand

>  <RI>
0

>  <Rbt.Current_Directory>
/home/itssahil/PROJECTS/Mol_Feturizer/New_Systems/rnas/3GX6

>  <Rbt.Executable>
rbdock ($Id: //depot/dev/client3/rdock/2013.1/src/exe/rbdock.cxx#4 $)

>  <Rbt.Library>
libRbt.so (2013.1, Build901 2013/11/27)

>  <Rbt.Parameter_File>
/export/apps/rDock/src/rDock_2013.1_src/data/scripts/dock_solv.prm

>  <Rbt.Receptor>
prm/pocket_docking_3.prm

>  <SCORE>
-21.5614

>  <SCORE.INTER>
-10.5741

>  <SCORE.INTER.CONST>
1

>  <SCORE.INTER.POLAR>
0

>  <SCORE.INTER.ROT>
7

>  <SCORE.INTER.SOLV>
10.0248

>  <SCORE.INTER.VDW>
-18.6576

>  <SCORE.INTER.norm>
-0.391632

>  <SCORE.INTRA>
-10.9874

>  <SCORE.INTRA.DIHEDRAL>
-8.03927

>  <SCORE.INTRA.DIHEDRAL.0>
15.0182

>  <SCORE.INTRA.POLAR>
0

>  <SCORE.INTRA.POLAR.0>
0

>  <SCORE.INTRA.REPUL>
0

>  <SCORE.INTRA.REPUL.0>
0

>  <SCORE.INTRA.SOLV>
0.0598717

>  <SCORE.INTRA.SOLV.lig_0>
-47.9129

>  <SCORE.INTRA.VDW>
-6.99767

>  <SCORE.INTRA.VDW.0>
2.00851

>  <SCORE.INTRA.norm>
-0.406939

>  <SCORE.RESTR>
0

>  <SCORE.RESTR.CAVITY>
0

>  <SCORE.RESTR.norm>
0

>  <SCORE.SYSTEM>
0

>  <SCORE.SYSTEM.CONST>
0

>  <SCORE.SYSTEM.DIHEDRAL>
0

>  <SCORE.SYSTEM.SOLV>
0

>  <SCORE.SYSTEM.norm>
0

>  <SCORE.heavy>
27

>  <SCORE.norm>
-0.798571

>  <RMSD>
6.189

$$$$
ligand
 OpenBabel11021811483D
libRbt.so/2013.1/901 2013/11/27
 27 29  0  0  0  0  0  0  0  0999 V2000
  -13.3341   -7.4330   31.8127 N   0  0  0  0  0  0  0  0  0  0  0  0
  -13.6066   -7.7136   33.2198 C   0  0  2  0  0  0  0  0  0  0  0  0
  -14.9464   -8.4198   33.4104 C   0  0  0  0  0  0  0  0  0  0  0  0
  -15.8499   -8.3065   32.5790 O   0  0  0  0  0  0  0  0  0  0  0  0
  -13.5264   -6.4391   34.0547 C   0  0  0  0  0  0  0  0  0  0  0  0
  -14.4125   -5.3193   33.5314 C   0  0  0  0  0  0  0  0  0  0  0  0
  -13.6559   -4.3462   32.2059 S   0  0  2  0  0  0  0  0  0  0  0  0
  -12.3335   -3.5164   33.1219 C   0  0  0  0  0  0  0  0  0  0  0  0
  -14.8630   -3.0042   32.0314 C   0  0  0  0  0  0  0  0  0  0  0  0
  -15.8744   -3.3721   30.9554 C   0  0  1  0  0  0  0  0  0  0  0  0
  -15.2194   -3.3605   29.7094 O   0  0  0  0  0  0  0  0  0  0  0  0
  -16.4697   -4.7637   31.0599 C   0  0  1  0  0  0  0  0  0  0  0  0
  -17.7131   -4.7314   31.7243 O   0  0  0  0  0  0  0  0  0  0  0  0
  -16.6647   -5.1619   29.6110 C   0  0  1  0  0  0  0  0  0  0  0  0
  -18.0363   -5.0864   29.3095 O   0  0  0  0  0  0  0  0  0  0  0  0
  -15.9028   -4.1480   28.7683 C   0  0  2  0  0  0  0  0  0  0  0  0
  -15.1521   -9.1149   34.4054 O   0  0  0  0  0  0  0  0  0  0  0  0
  -11.2779   -6.6708   28.6223 N   0  0  0  0  0  0  0  0  0  0  0  0
  -11.9030   -6.1000   29.7135 C   0  0  0  0  0  0  0  0  0  0  0  0
  -13.1246   -5.4689   29.5737 N   0  0  0  0  0  0  0  0  0  0  0  0
  -13.7227   -5.3984   28.3608 C   0  0  0  0  0  0  0  0  0  0  0  0
  -13.1129   -5.9744   27.2532 C   0  0  0  0  0  0  0  0  0  0  0  0
  -11.8834   -6.6082   27.3860 C   0  0  0  0  0  0  0  0  0  0  0  0
  -11.2949   -7.1515   26.3232 N   0  0  0  0  0  0  0  0  0  0  0  0
  -13.9145   -5.7699   26.1858 N   0  0  0  0  0  0  0  0  0  0  0  0
  -15.0166   -5.0982   26.5942 C   0  0  0  0  0  0  0  0  0  0  0  0
  -14.9155   -4.8597   27.9394 N   0  0  0  0  0  0  0  0  0  0  0  0
  2  1  1  6  0  0  0
  2  3  1  0  0  0  0
  2  5  1  0  0  0  0
  3  4  1  0  0  0  0
  3 17  1  0  0  0  0
  5  6  1  0  0  0  0
  7  6  1  1  0  0  0
  7  8  1  0  0  0  0
  7  9  1  0  0  0  0
 10  9  1  1  0  0  0
 10 11  1  0  0  0  0
 10 12  1  0  0  0  0
 11 16  1  0  0  0  0
 12 13  1  1  0  0  0
 12 14  1  0  0  0  0
 14 15  1  6  0  0  0
 14 16  1  0  0  0  0
 16 27  1  6  0  0  0
 18 19  2  0  0  0  0
 18 23  1  0  0  0  0
 19 20  1  0  0  0  0
 20 21  2  0  0  0  0
 21 22  1  0  0  0  0
 21 27  1  0  0  0  0
 22 23  2  0  0  0  0
 22 25  1  0  0  0  0
 23 24  1  0  0  0  0
 25 26  2  0  0  0  0
 26 27  1  0  0  0  0
M  END
>  <CHROM.1>
-24.47056567,53.87015714,-83.85789561,-68.09644955,-92.90762963,-68.87719152
37.65999800,-14.38576372,-5.61311976,30.51777585,-1.84148039,0.60659560,-1.27706375

>  <Name>
ligand

>  <RI>
0

>  <Rbt.Current_Directory>
/home/itssahil/PROJECTS/Mol_Feturizer/New_Systems/rnas/3GX6

>  <Rbt.Executable>
rbdock ($Id: //depot/dev/client3/rdock/2013.1/src/exe/rbdock.cxx#4 $)

>  <Rbt.Library>
libRbt.so (2013.1, Build901 2013/11/27)

>  <Rbt.Parameter_File>
/export/apps/rDock/src/rDock_2013.1_src/data/scripts/dock_solv.prm

>  <Rbt.Receptor>
prm/pocket_docking_4.prm

>  <SCORE>
-21.8684

>  <SCORE.INTER>
-12.8418

>  <SCORE.INTER.CONST>
1

>  <SCORE.INTER.POLAR>
0

>  <SCORE.INTER.ROT>
7

>  <SCORE.INTER.SOLV>
9.80921

>  <SCORE.INTER.VDW>
-20.0976

>  <SCORE.INTER.norm>
-0.475621

>  <SCORE.INTRA>
-9.02667

>  <SCORE.INTRA.DIHEDRAL>
-7.95918

>  <SCORE.INTRA.DIHEDRAL.0>
15.0182

>  <SCORE.INTRA.POLAR>
0

>  <SCORE.INTRA.POLAR.0>
0

>  <SCORE.INTRA.REPUL>
0

>  <SCORE.INTRA.REPUL.0>
0

>  <SCORE.INTRA.SOLV>
2.1835

>  <SCORE.INTRA.SOLV.lig_0>
-47.9129

>  <SCORE.INTRA.VDW>
-6.13883

>  <SCORE.INTRA.VDW.0>
2.00851

>  <SCORE.INTRA.norm>
-0.334321

>  <SCORE.RESTR>
0

>  <SCORE.RESTR.CAVITY>
0

>  <SCORE.RESTR.norm>
0

>  <SCORE.SYSTEM>
0

>  <SCORE.SYSTEM.CONST>
0

>  <SCORE.SYSTEM.DIHEDRAL>
0

>  <SCORE.SYSTEM.SOLV>
0

>  <SCORE.SYSTEM.norm>
0

>  <SCORE.heavy>
27

>  <SCORE.norm>
-0.809942

>  <RMSD>
6.212

$$$$
ligand
 OpenBabel11021811483D
libRbt.so/2013.1/901 2013/11/27
 27 29  0  0  0  0  0  0  0  0999 V2000
  -14.9227   -8.6858   34.5761 N   0  0  0  0  0  0  0  0  0  0  0  0
  -14.3917   -7.5109   33.8901 C   0  0  2  0  0  0  0  0  0  0  0  0
  -13.2240   -6.8872   34.6501 C   0  0  0  0  0  0  0  0  0  0  0  0
  -12.5518   -5.9810   34.1529 O   0  0  0  0  0  0  0  0  0  0  0  0
  -15.4938   -6.4887   33.6285 C   0  0  0  0  0  0  0  0  0  0  0  0
  -16.5875   -7.0048   32.7063 C   0  0  0  0  0  0  0  0  0  0  0  0
  -17.8630   -5.7782   32.3257 S   0  0  2  0  0  0  0  0  0  0  0  0
  -19.1179   -6.8359   31.5622 C   0  0  0  0  0  0  0  0  0  0  0  0
  -17.1433   -4.9731   30.8689 C   0  0  0  0  0  0  0  0  0  0  0  0
  -15.7669   -4.4281   31.2221 C   0  0  1  0  0  0  0  0  0  0  0  0
  -14.8115   -5.4234   30.9428 O   0  0  0  0  0  0  0  0  0  0  0  0
  -15.3096   -3.2249   30.4190 C   0  0  1  0  0  0  0  0  0  0  0  0
  -15.5765   -2.0257   31.1115 O   0  0  0  0  0  0  0  0  0  0  0  0
  -13.8136   -3.4380   30.3058 C   0  0  1  0  0  0  0  0  0  0  0  0
  -13.1692   -2.5385   31.1739 O   0  0  0  0  0  0  0  0  0  0  0  0
  -13.5359   -4.8658   30.7562 C   0  0  2  0  0  0  0  0  0  0  0  0
  -12.9272   -7.2834   35.7773 O   0  0  0  0  0  0  0  0  0  0  0  0
  -13.6251   -6.2615   25.6749 N   0  0  0  0  0  0  0  0  0  0  0  0
  -14.5481   -5.5015   26.3660 C   0  0  0  0  0  0  0  0  0  0  0  0
  -14.3706   -5.2295   27.7094 N   0  0  0  0  0  0  0  0  0  0  0  0
  -13.2888   -5.7102   28.3670 C   0  0  0  0  0  0  0  0  0  0  0  0
  -12.3451   -6.4695   27.6861 C   0  0  0  0  0  0  0  0  0  0  0  0
  -12.5187   -6.7490   26.3360 C   0  0  0  0  0  0  0  0  0  0  0  0
  -11.6196   -7.4843   25.6863 N   0  0  0  0  0  0  0  0  0  0  0  0
  -11.3770   -6.8111   28.5634 N   0  0  0  0  0  0  0  0  0  0  0  0
  -11.6764   -6.2743   29.7696 C   0  0  0  0  0  0  0  0  0  0  0  0
  -12.8576   -5.5881   29.6668 N   0  0  0  0  0  0  0  0  0  0  0  0
  2  1  1  1  0  0  0
  2  3  1  0  0  0  0
  2  5  1  0  0  0  0
  3  4  1  0  0  0  0
  3 17  1  0  0  0  0
  5  6  1  0  0  0  0
  7  6  1  6  0  0  0
  7  8  1  0  0  0  0
  7  9  1  0  0  0  0
 10  9  1  6  0  0  0
 10 11  1  0  0  0  0
 10 12  1  0  0  0  0
 11 16  1  0  0  0  0
 12 13  1  1  0  0  0
 12 14  1  0  0  0  0
 14 15  1  1  0  0  0
 14 16  1  0  0  0  0
 16 27  1  6  0  0  0
 18 19  2  0  0  0  0
 18 23  1  0  0  0  0
 19 20  1  0  0  0  0
 20 21  2  0  0  0  0
 21 22  1  0  0  0  0
 21 27  1  0  0  0  0
 22 23  2  0  0  0  0
 22 25  1  0  0  0  0
 23 24  1  0  0  0  0
 25 26  2  0  0  0  0
 26 27  1  0  0  0  0
M  END
>  <CHROM.1>
171.74359659,-62.87903846,-177.35112068,-167.85648578,-56.85634896,90.67754558
59.31425954,-14.44399233,-5.73096794,30.76773260,-1.99116243,0.37473498,-1.33604542

>  <Name>
ligand

>  <RI>
0

>  <Rbt.Current_Directory>
/home/itssahil/PROJECTS/Mol_Feturizer/New_Systems/rnas/3GX6

>  <Rbt.Executable>
rbdock ($Id: //depot/dev/client3/rdock/2013.1/src/exe/rbdock.cxx#4 $)

>  <Rbt.Library>
libRbt.so (2013.1, Build901 2013/11/27)

>  <Rbt.Parameter_File>
/export/apps/rDock/src/rDock_2013.1_src/data/scripts/dock_solv.prm

>  <Rbt.Receptor>
prm/pocket_docking_7.prm

>  <SCORE>
-20.3958

>  <SCORE.INTER>
-11.2586

>  <SCORE.INTER.CONST>
1

>  <SCORE.INTER.POLAR>
0

>  <SCORE.INTER.ROT>
7

>  <SCORE.INTER.SOLV>
10.5003

>  <SCORE.INTER.VDW>
-19.2725

>  <SCORE.INTER.norm>
-0.416987

>  <SCORE.INTRA>
-9.13721

>  <SCORE.INTRA.DIHEDRAL>
-7.52503

>  <SCORE.INTRA.DIHEDRAL.0>
15.0182

>  <SCORE.INTRA.POLAR>
0

>  <SCORE.INTRA.POLAR.0>
0

>  <SCORE.INTRA.REPUL>
0

>  <SCORE.INTRA.REPUL.0>
0

>  <SCORE.INTRA.SOLV>
-0.832084

>  <SCORE.INTRA.SOLV.lig_0>
-47.9129

>  <SCORE.INTRA.VDW>
-4.95865

>  <SCORE.INTRA.VDW.0>
2.00851

>  <SCORE.INTRA.norm>
-0.338415

>  <SCORE.RESTR>
0

>  <SCORE.RESTR.CAVITY>
0

>  <SCORE.RESTR.norm>
0

>  <SCORE.SYSTEM>
0

>  <SCORE.SYSTEM.CONST>
0

>  <SCORE.SYSTEM.DIHEDRAL>
0

>  <SCORE.SYSTEM.SOLV>
0

>  <SCORE.SYSTEM.norm>
0

>  <SCORE.heavy>
27

>  <SCORE.norm>
-0.755402

>  <RMSD>
6.230

$$$$
ligand
 OpenBabel11021811483D
libRbt.so/2013.1/901 2013/11/27
 27 29  0  0  0  0  0  0  0  0999 V2000
  -15.0544   -9.3436   34.6153 N   0  0  0  0  0  0  0  0  0  0  0  0
  -16.1825   -8.4163   34.5951 C   0  0  2  0  0  0  0  0  0  0  0  0
  -17.5217   -9.1485   34.6165 C   0  0  0  0  0  0  0  0  0  0  0  0
  -17.9742   -9.6783   33.5992 O   0  0  0  0  0  0  0  0  0  0  0  0
  -16.0866   -7.4678   33.4039 C   0  0  0  0  0  0  0  0  0  0  0  0
  -15.3300   -6.1855   33.7141 C   0  0  0  0  0  0  0  0  0  0  0  0
  -13.5369   -6.3264   33.5110 S   0  0  2  0  0  0  0  0  0  0  0  0
  -13.1038   -7.2153   35.0272 C   0  0  0  0  0  0  0  0  0  0  0  0
  -13.0097   -4.6414   33.9246 C   0  0  0  0  0  0  0  0  0  0  0  0
  -13.2916   -3.7209   32.7458 C   0  0  1  0  0  0  0  0  0  0  0  0
  -12.5362   -4.1672   31.6450 O   0  0  0  0  0  0  0  0  0  0  0  0
  -14.7241   -3.7114   32.2461 C   0  0  1  0  0  0  0  0  0  0  0  0
  -15.4463   -2.6378   32.8069 O   0  0  0  0  0  0  0  0  0  0  0  0
  -14.5641   -3.5069   30.7533 C   0  0  1  0  0  0  0  0  0  0  0  0
  -14.9223   -2.1824   30.4447 O   0  0  0  0  0  0  0  0  0  0  0  0
  -13.0910   -3.7224   30.4337 C   0  0  2  0  0  0  0  0  0  0  0  0
  -18.1804   -9.2193   35.6541 O   0  0  0  0  0  0  0  0  0  0  0  0
  -14.6880   -5.6032   25.7767 N   0  0  0  0  0  0  0  0  0  0  0  0
  -15.0909   -4.4446   26.4111 C   0  0  0  0  0  0  0  0  0  0  0  0
  -14.5678   -4.0988   27.6428 N   0  0  0  0  0  0  0  0  0  0  0  0
  -13.6549   -4.8966   28.2460 C   0  0  0  0  0  0  0  0  0  0  0  0
  -13.2312   -6.0618   27.6190 C   0  0  0  0  0  0  0  0  0  0  0  0
  -13.7549   -6.4169   26.3818 C   0  0  0  0  0  0  0  0  0  0  0  0
  -13.3561   -7.5379   25.7857 N   0  0  0  0  0  0  0  0  0  0  0  0
  -12.3244   -6.6584   28.4223 N   0  0  0  0  0  0  0  0  0  0  0  0
  -12.1539   -5.8934   29.5261 C   0  0  0  0  0  0  0  0  0  0  0  0
  -12.9701   -4.7970   29.4341 N   0  0  0  0  0  0  0  0  0  0  0  0
  2  1  1  6  0  0  0
  2  3  1  0  0  0  0
  2  5  1  0  0  0  0
  3  4  1  0  0  0  0
  3 17  1  0  0  0  0
  5  6  1  0  0  0  0
  7  6  1  1  0  0  0
  7  8  1  0  0  0  0
  7  9  1  0  0  0  0
 10  9  1  1  0  0  0
 10 11  1  0  0  0  0
 10 12  1  0  0  0  0
 11 16  1  0  0  0  0
 12 13  1  1  0  0  0
 12 14  1  0  0  0  0
 14 15  1  1  0  0  0
 14 16  1  0  0  0  0
 16 27  1  6  0  0  0
 18 19  2  0  0  0  0
 18 23  1  0  0  0  0
 19 20  1  0  0  0  0
 20 21  2  0  0  0  0
 21 22  1  0  0  0  0
 21 27  1  0  0  0  0
 22 23  2  0  0  0  0
 22 25  1  0  0  0  0
 23 24  1  0  0  0  0
 25 26  2  0  0  0  0
 26 27  1  0  0  0  0
M  END
>  <CHROM.1>
-77.59980252,-90.45764417,85.99505210,-77.32012808,-77.10844968,-61.94546026
163.26296714,-14.45376628,-5.86634398,31.29783956,2.30429036,1.11095567,1.29879314

>  <Name>
ligand

>  <RI>
0

>  <Rbt.Current_Directory>
/home/itssahil/PROJECTS/Mol_Feturizer/New_Systems/rnas/3GX6

>  <Rbt.Executable>
rbdock ($Id: //depot/dev/client3/rdock/2013.1/src/exe/rbdock.cxx#4 $)

>  <Rbt.Library>
libRbt.so (2013.1, Build901 2013/11/27)

>  <Rbt.Parameter_File>
/export/apps/rDock/src/rDock_2013.1_src/data/scripts/dock_solv.prm

>  <Rbt.Receptor>
prm/pocket_docking_5.prm

>  <SCORE>
-22.5525

>  <SCORE.INTER>
-16.58

>  <SCORE.INTER.CONST>
1

>  <SCORE.INTER.POLAR>
0

>  <SCORE.INTER.ROT>
7

>  <SCORE.INTER.SOLV>
10.9764

>  <SCORE.INTER.VDW>
-22.9788

>  <SCORE.INTER.norm>
-0.614075

>  <SCORE.INTRA>
-5.97244

>  <SCORE.INTRA.DIHEDRAL>
-6.16714

>  <SCORE.INTRA.DIHEDRAL.0>
15.0182

>  <SCORE.INTRA.POLAR>
0

>  <SCORE.INTRA.POLAR.0>
0

>  <SCORE.INTRA.REPUL>
0

>  <SCORE.INTRA.REPUL.0>
0

>  <SCORE.INTRA.SOLV>
1.18353

>  <SCORE.INTRA.SOLV.lig_0>
-47.9129

>  <SCORE.INTRA.VDW>
-3.48064

>  <SCORE.INTRA.VDW.0>
2.00851

>  <SCORE.INTRA.norm>
-0.221202

>  <SCORE.RESTR>
0

>  <SCORE.RESTR.CAVITY>
0

>  <SCORE.RESTR.norm>
0

>  <SCORE.SYSTEM>
0

>  <SCORE.SYSTEM.CONST>
0

>  <SCORE.SYSTEM.DIHEDRAL>
0

>  <SCORE.SYSTEM.SOLV>
0

>  <SCORE.SYSTEM.norm>
0

>  <SCORE.heavy>
27

>  <SCORE.norm>
-0.835277

>  <RMSD>
6.238

$$$$
ligand
 OpenBabel11021811483D
libRbt.so/2013.1/901 2013/11/27
 27 29  0  0  0  0  0  0  0  0999 V2000
  -13.2006   -8.6671   27.0739 N   0  0  0  0  0  0  0  0  0  0  0  0
  -14.3029   -7.7325   26.8637 C   0  0  2  0  0  0  0  0  0  0  0  0
  -15.3663   -8.3070   25.9313 C   0  0  0  0  0  0  0  0  0  0  0  0
  -16.5625   -8.2660   26.2276 O   0  0  0  0  0  0  0  0  0  0  0  0
  -13.7882   -6.3881   26.3581 C   0  0  0  0  0  0  0  0  0  0  0  0
  -14.8688   -5.3209   26.2776 C   0  0  0  0  0  0  0  0  0  0  0  0
  -15.2429   -4.5369   27.8656 S   0  0  2  0  0  0  0  0  0  0  0  0
  -13.5691   -4.2377   28.4862 C   0  0  0  0  0  0  0  0  0  0  0  0
  -15.7356   -5.9760   28.8530 C   0  0  0  0  0  0  0  0  0  0  0  0
  -17.2165   -6.2526   28.6374 C   0  0  1  0  0  0  0  0  0  0  0  0
  -17.5200   -7.5051   29.2036 O   0  0  0  0  0  0  0  0  0  0  0  0
  -18.1717   -5.2872   29.3138 C   0  0  1  0  0  0  0  0  0  0  0  0
  -18.5879   -4.2800   28.4188 O   0  0  0  0  0  0  0  0  0  0  0  0
  -19.3454   -6.1709   29.6844 C   0  0  1  0  0  0  0  0  0  0  0  0
  -20.4051   -5.8965   28.8015 O   0  0  0  0  0  0  0  0  0  0  0  0
  -18.8893   -7.6116   29.4983 C   0  0  2  0  0  0  0  0  0  0  0  0
  -15.0468   -8.8291   24.8631 O   0  0  0  0  0  0  0  0  0  0  0  0
  -18.2179   -7.5062   34.7245 N   0  0  0  0  0  0  0  0  0  0  0  0
  -17.9090   -6.5225   33.8059 C   0  0  0  0  0  0  0  0  0  0  0  0
  -18.1505   -6.7170   32.4590 N   0  0  0  0  0  0  0  0  0  0  0  0
  -18.6901   -7.8798   32.0223 C   0  0  0  0  0  0  0  0  0  0  0  0
  -19.0154   -8.8776   32.9329 C   0  0  0  0  0  0  0  0  0  0  0  0
  -18.7728   -8.6897   34.2881 C   0  0  0  0  0  0  0  0  0  0  0  0
  -19.0756   -9.6493   35.1591 N   0  0  0  0  0  0  0  0  0  0  0  0
  -19.5380   -9.9140   32.2426 N   0  0  0  0  0  0  0  0  0  0  0  0
  -19.5662   -9.5891   30.9287 C   0  0  0  0  0  0  0  0  0  0  0  0
  -19.0451   -8.3317   30.7733 N   0  0  0  0  0  0  0  0  0  0  0  0
  2  1  1  6  0  0  0
  2  3  1  0  0  0  0
  2  5  1  0  0  0  0
  3  4  1  0  0  0  0
  3 17  1  0  0  0  0
  5  6  1  0  0  0  0
  7  6  1  6  0  0  0
  7  8  1  0  0  0  0
  7  9  1  0  0  0  0
 10  9  1  1  0  0  0
 10 11  1  0  0  0  0
 10 12  1  0  0  0  0
 11 16  1  0  0  0  0
 12 13  1  6  0  0  0
 12 14  1  0  0  0  0
 14 15  1  6  0  0  0
 14 16  1  0  0  0  0
 16 27  1  1  0  0  0
 18 19  2  0  0  0  0
 18 23  1  0  0  0  0
 19 20  1  0  0  0  0
 20 21  2  0  0  0  0
 21 22  1  0  0  0  0
 21 27  1  0  0  0  0
 22 23  2  0  0  0  0
 22 25  1  0  0  0  0
 23 24  1  0  0  0  0
 25 26  2  0  0  0  0
 26 27  1  0  0  0  0
M  END
>  <CHROM.1>
131.48525562,-173.14232227,80.47840123,45.31599383,-85.98226914,169.10092488
68.44309650,-17.12448227,-7.05542856,29.49963998,-0.18061012,-0.99991352
-3.08636890

>  <Name>
ligand

>  <RI>
0

>  <Rbt.Current_Directory>
/home/itssahil/PROJECTS/Mol_Feturizer/New_Systems/rnas/3GX6

>  <Rbt.Executable>
rbdock ($Id: //depot/dev/client3/rdock/2013.1/src/exe/rbdock.cxx#4 $)

>  <Rbt.Library>
libRbt.so (2013.1, Build901 2013/11/27)

>  <Rbt.Parameter_File>
/export/apps/rDock/src/rDock_2013.1_src/data/scripts/dock_solv.prm

>  <Rbt.Receptor>
prm/pocket_docking_6.prm

>  <SCORE>
-16.3949

>  <SCORE.INTER>
-7.3893

>  <SCORE.INTER.CONST>
1

>  <SCORE.INTER.POLAR>
0

>  <SCORE.INTER.ROT>
7

>  <SCORE.INTER.SOLV>
12.4869

>  <SCORE.INTER.VDW>
-17.3552

>  <SCORE.INTER.norm>
-0.273678

>  <SCORE.INTRA>
-9.0056

>  <SCORE.INTRA.DIHEDRAL>
-8.84147

>  <SCORE.INTRA.DIHEDRAL.0>
15.0182

>  <SCORE.INTRA.POLAR>
0

>  <SCORE.INTRA.POLAR.0>
0

>  <SCORE.INTRA.REPUL>
0

>  <SCORE.INTRA.REPUL.0>
0

>  <SCORE.INTRA.SOLV>
-0.926501

>  <SCORE.INTRA.SOLV.lig_0>
-47.9129

>  <SCORE.INTRA.VDW>
-4.12161

>  <SCORE.INTRA.VDW.0>
2.00851

>  <SCORE.INTRA.norm>
-0.333541

>  <SCORE.RESTR>
0

>  <SCORE.RESTR.CAVITY>
0

>  <SCORE.RESTR.norm>
0

>  <SCORE.SYSTEM>
0

>  <SCORE.SYSTEM.CONST>
0

>  <SCORE.SYSTEM.DIHEDRAL>
0

>  <SCORE.SYSTEM.SOLV>
0

>  <SCORE.SYSTEM.norm>
0

>  <SCORE.heavy>
27

>  <SCORE.norm>
-0.607218

>  <RMSD>
6.253

$$$$
ligand
 OpenBabel11021811483D
libRbt.so/2013.1/901 2013/11/27
 27 29  0  0  0  0  0  0  0  0999 V2000
  -13.9996   -8.6768   32.1151 N   0  0  0  0  0  0  0  0  0  0  0  0
  -13.6395   -7.3704   32.6595 C   0  0  2  0  0  0  0  0  0  0  0  0
  -12.6833   -7.4908   33.8432 C   0  0  0  0  0  0  0  0  0  0  0  0
  -12.9533   -8.2072   34.8097 O   0  0  0  0  0  0  0  0  0  0  0  0
  -14.8861   -6.5729   33.0310 C   0  0  0  0  0  0  0  0  0  0  0  0
  -14.5778   -5.1655   33.5181 C   0  0  0  0  0  0  0  0  0  0  0  0
  -13.7472   -4.1305   32.2872 S   0  0  2  0  0  0  0  0  0  0  0  0
  -12.4934   -3.3332   33.3212 C   0  0  0  0  0  0  0  0  0  0  0  0
  -14.9528   -2.7897   32.0940 C   0  0  0  0  0  0  0  0  0  0  0  0
  -15.9655   -3.1722   31.0243 C   0  0  1  0  0  0  0  0  0  0  0  0
  -15.3101   -3.1852   29.7785 O   0  0  0  0  0  0  0  0  0  0  0  0
  -16.5666   -4.5593   31.1529 C   0  0  1  0  0  0  0  0  0  0  0  0
  -17.8101   -4.5101   31.8163 O   0  0  0  0  0  0  0  0  0  0  0  0
  -16.7629   -4.9820   29.7111 C   0  0  1  0  0  0  0  0  0  0  0  0
  -18.1341   -4.9060   29.4080 O   0  0  0  0  0  0  0  0  0  0  0  0
  -15.9966   -3.9862   28.8511 C   0  0  2  0  0  0  0  0  0  0  0  0
  -11.6217   -6.8675   33.8568 O   0  0  0  0  0  0  0  0  0  0  0  0
  -11.4772   -6.6966   28.7850 N   0  0  0  0  0  0  0  0  0  0  0  0
  -12.1146   -6.1294   29.8708 C   0  0  0  0  0  0  0  0  0  0  0  0
  -13.3038   -5.4439   29.7092 N   0  0  0  0  0  0  0  0  0  0  0  0
  -13.8573   -5.3159   28.4798 C   0  0  0  0  0  0  0  0  0  0  0  0
  -13.2347   -5.8873   27.3769 C   0  0  0  0  0  0  0  0  0  0  0  0
  -12.0376   -6.5755   27.5319 C   0  0  0  0  0  0  0  0  0  0  0  0
  -11.4365   -7.1146   26.4739 N   0  0  0  0  0  0  0  0  0  0  0  0
  -13.9908   -5.6207   26.2902 N   0  0  0  0  0  0  0  0  0  0  0  0
  -15.0775   -4.9144   26.6812 C   0  0  0  0  0  0  0  0  0  0  0  0
  -15.0120   -4.7164   28.0351 N   0  0  0  0  0  0  0  0  0  0  0  0
  2  1  1  1  0  0  0
  2  3  1  0  0  0  0
  2  5  1  0  0  0  0
  3  4  1  0  0  0  0
  3 17  1  0  0  0  0
  5  6  1  0  0  0  0
  7  6  1  1  0  0  0
  7  8  1  0  0  0  0
  7  9  1  0  0  0  0
 10  9  1  1  0  0  0
 10 11  1  0  0  0  0
 10 12  1  0  0  0  0
 11 16  1  0  0  0  0
 12 13  1  1  0  0  0
 12 14  1  0  0  0  0
 14 15  1  6  0  0  0
 14 16  1  0  0  0  0
 16 27  1  6  0  0  0
 18 19  2  0  0  0  0
 18 23  1  0  0  0  0
 19 20  1  0  0  0  0
 20 21  2  0  0  0  0
 21 22  1  0  0  0  0
 21 27  1  0  0  0  0
 22 23  2  0  0  0  0
 22 25  1  0  0  0  0
 23 24  1  0  0  0  0
 25 26  2  0  0  0  0
 26 27  1  0  0  0  0
M  END
>  <CHROM.1>
-53.35814332,-176.16596204,61.41654946,-136.98055337,-87.89173026,-68.63081951
41.50374912,-14.21961616,-5.41704045,30.63645705,-1.38025633,0.61814274,-1.50776038

>  <Name>
ligand

>  <RI>
0

>  <Rbt.Current_Directory>
/home/itssahil/PROJECTS/Mol_Feturizer/New_Systems/rnas/3GX6

>  <Rbt.Executable>
rbdock ($Id: //depot/dev/client3/rdock/2013.1/src/exe/rbdock.cxx#4 $)

>  <Rbt.Library>
libRbt.so (2013.1, Build901 2013/11/27)

>  <Rbt.Parameter_File>
/export/apps/rDock/src/rDock_2013.1_src/data/scripts/dock_solv.prm

>  <Rbt.Receptor>
prm/pocket_docking_3.prm

>  <SCORE>
-22.6976

>  <SCORE.INTER>
-12.1541

>  <SCORE.INTER.CONST>
1

>  <SCORE.INTER.POLAR>
0

>  <SCORE.INTER.ROT>
7

>  <SCORE.INTER.SOLV>
11.8308

>  <SCORE.INTER.VDW>
-20.313

>  <SCORE.INTER.norm>
-0.450153

>  <SCORE.INTRA>
-10.5435

>  <SCORE.INTRA.DIHEDRAL>
-6.33874

>  <SCORE.INTRA.DIHEDRAL.0>
15.0182

>  <SCORE.INTRA.POLAR>
0

>  <SCORE.INTRA.POLAR.0>
0

>  <SCORE.INTRA.REPUL>
0

>  <SCORE.INTRA.REPUL.0>
0

>  <SCORE.INTRA.SOLV>
-1.05722

>  <SCORE.INTRA.SOLV.lig_0>
-47.9129

>  <SCORE.INTRA.VDW>
-6.8455

>  <SCORE.INTRA.VDW.0>
2.00851

>  <SCORE.INTRA.norm>
-0.390499

>  <SCORE.RESTR>
0

>  <SCORE.RESTR.CAVITY>
0

>  <SCORE.RESTR.norm>
0

>  <SCORE.SYSTEM>
0

>  <SCORE.SYSTEM.CONST>
0

>  <SCORE.SYSTEM.DIHEDRAL>
0

>  <SCORE.SYSTEM.SOLV>
0

>  <SCORE.SYSTEM.norm>
0

>  <SCORE.heavy>
27

>  <SCORE.norm>
-0.840652

>  <RMSD>
6.296

$$$$
ligand
 OpenBabel11021811483D
libRbt.so/2013.1/901 2013/11/27
 27 29  0  0  0  0  0  0  0  0999 V2000
  -18.4317   -7.6711   34.8424 N   0  0  0  0  0  0  0  0  0  0  0  0
  -17.8702   -8.9181   34.3299 C   0  0  2  0  0  0  0  0  0  0  0  0
  -18.8465   -9.6463   33.4099 C   0  0  0  0  0  0  0  0  0  0  0  0
  -19.6168  -10.5032   33.8489 O   0  0  0  0  0  0  0  0  0  0  0  0
  -17.4074   -9.8171   35.4724 C   0  0  0  0  0  0  0  0  0  0  0  0
  -16.2516   -9.2320   36.2692 C   0  0  0  0  0  0  0  0  0  0  0  0
  -14.7620   -8.9326   35.2854 S   0  0  2  0  0  0  0  0  0  0  0  0
  -13.6965   -8.1624   36.5296 C   0  0  0  0  0  0  0  0  0  0  0  0
  -15.2745   -7.4892   34.3145 C   0  0  0  0  0  0  0  0  0  0  0  0
  -14.0412   -6.7135   33.8747 C   0  0  1  0  0  0  0  0  0  0  0  0
  -13.2627   -7.5491   33.0517 O   0  0  0  0  0  0  0  0  0  0  0  0
  -14.3052   -5.4830   33.0273 C   0  0  1  0  0  0  0  0  0  0  0  0
  -14.3240   -4.3183   33.8221 O   0  0  0  0  0  0  0  0  0  0  0  0
  -13.1162   -5.4527   32.0886 C   0  0  1  0  0  0  0  0  0  0  0  0
  -12.2474   -4.4277   32.5039 O   0  0  0  0  0  0  0  0  0  0  0  0
  -12.4149   -6.7978   32.2211 C   0  0  2  0  0  0  0  0  0  0  0  0
  -18.8793   -9.3938   32.2054 O   0  0  0  0  0  0  0  0  0  0  0  0
  -12.5468   -6.1316   26.9949 N   0  0  0  0  0  0  0  0  0  0  0  0
  -12.6419   -5.1678   27.9792 C   0  0  0  0  0  0  0  0  0  0  0  0
  -12.5909   -5.5191   29.3149 N   0  0  0  0  0  0  0  0  0  0  0  0
  -12.4512   -6.8170   29.6754 C   0  0  0  0  0  0  0  0  0  0  0  0
  -12.3453   -7.7997   28.6989 C   0  0  0  0  0  0  0  0  0  0  0  0
  -12.3985   -7.4537   27.3541 C   0  0  0  0  0  0  0  0  0  0  0  0
  -12.3066   -8.3962   26.4189 N   0  0  0  0  0  0  0  0  0  0  0  0
  -12.2086   -8.9899   29.3220 N   0  0  0  0  0  0  0  0  0  0  0  0
  -12.2083   -8.7811   30.6595 C   0  0  0  0  0  0  0  0  0  0  0  0
  -12.3571   -7.4402   30.8973 N   0  0  0  0  0  0  0  0  0  0  0  0
  2  1  1  1  0  0  0
  2  3  1  0  0  0  0
  2  5  1  0  0  0  0
  3  4  1  0  0  0  0
  3 17  1  0  0  0  0
  5  6  1  0  0  0  0
  7  6  1  1  0  0  0
  7  8  1  0  0  0  0
  7  9  1  0  0  0  0
 10  9  1  6  0  0  0
 10 11  1  0  0  0  0
 10 12  1  0  0  0  0
 11 16  1  0  0  0  0
 12 13  1  1  0  0  0
 12 14  1  0  0  0  0
 14 15  1  1  0  0  0
 14 16  1  0  0  0  0
 16 27  1  6  0  0  0
 18 19  2  0  0  0  0
 18 23  1  0  0  0  0
 19 20  1  0  0  0  0
 20 21  2  0  0  0  0
 21 22  1  0  0  0  0
 21 27  1  0  0  0  0
 22 23  2  0  0  0  0
 22 25  1  0  0  0  0
 23 24  1  0  0  0  0
 25 26  2  0  0  0  0
 26 27  1  0  0  0  0
M  END
>  <CHROM.1>
-92.56546796,-65.07016687,-60.38095197,176.56722810,155.86016045,62.03414065
134.74998207,-14.47642587,-7.58667822,32.26559149,2.40964077,0.63482662,1.34149140

>  <Name>
ligand

>  <RI>
0

>  <Rbt.Current_Directory>
/home/itssahil/PROJECTS/Mol_Feturizer/New_Systems/rnas/3GX6

>  <Rbt.Executable>
rbdock ($Id: //depot/dev/client3/rdock/2013.1/src/exe/rbdock.cxx#4 $)

>  <Rbt.Library>
libRbt.so (2013.1, Build901 2013/11/27)

>  <Rbt.Parameter_File>
/export/apps/rDock/src/rDock_2013.1_src/data/scripts/dock_solv.prm

>  <Rbt.Receptor>
prm/pocket_docking_6.prm

>  <SCORE>
-19.8551

>  <SCORE.INTER>
-12.3129

>  <SCORE.INTER.CONST>
1

>  <SCORE.INTER.POLAR>
0

>  <SCORE.INTER.ROT>
7

>  <SCORE.INTER.SOLV>
10.6538

>  <SCORE.INTER.VDW>
-20.0265

>  <SCORE.INTER.norm>
-0.456034

>  <SCORE.INTRA>
-7.54215

>  <SCORE.INTRA.DIHEDRAL>
-10.9215

>  <SCORE.INTRA.DIHEDRAL.0>
15.0182

>  <SCORE.INTRA.POLAR>
0

>  <SCORE.INTRA.POLAR.0>
0

>  <SCORE.INTRA.REPUL>
0

>  <SCORE.INTRA.REPUL.0>
0

>  <SCORE.INTRA.SOLV>
0.568441

>  <SCORE.INTRA.SOLV.lig_0>
-47.9129

>  <SCORE.INTRA.VDW>
-2.36561

>  <SCORE.INTRA.VDW.0>
2.00851

>  <SCORE.INTRA.norm>
-0.279339

>  <SCORE.RESTR>
0

>  <SCORE.RESTR.CAVITY>
0

>  <SCORE.RESTR.norm>
0

>  <SCORE.SYSTEM>
0

>  <SCORE.SYSTEM.CONST>
0

>  <SCORE.SYSTEM.DIHEDRAL>
0

>  <SCORE.SYSTEM.SOLV>
0

>  <SCORE.SYSTEM.norm>
0

>  <SCORE.heavy>
27

>  <SCORE.norm>
-0.735372

>  <RMSD>
6.312

$$$$
ligand
 OpenBabel11021811483D
libRbt.so/2013.1/901 2013/11/27
 27 29  0  0  0  0  0  0  0  0999 V2000
  -12.8803   -7.2664   34.8233 N   0  0  0  0  0  0  0  0  0  0  0  0
  -14.2006   -7.3483   34.2043 C   0  0  2  0  0  0  0  0  0  0  0  0
  -14.6083   -8.7919   33.9218 C   0  0  0  0  0  0  0  0  0  0  0  0
  -15.7889   -9.1430   33.9783 O   0  0  0  0  0  0  0  0  0  0  0  0
  -14.2634   -6.4957   32.9406 C   0  0  0  0  0  0  0  0  0  0  0  0
  -13.9521   -5.0277   33.1882 C   0  0  0  0  0  0  0  0  0  0  0  0
  -14.3694   -3.9465   31.7979 S   0  0  2  0  0  0  0  0  0  0  0  0
  -13.1212   -2.6516   32.0032 C   0  0  0  0  0  0  0  0  0  0  0  0
  -15.8495   -3.1173   32.4381 C   0  0  0  0  0  0  0  0  0  0  0  0
  -17.0703   -3.9852   32.1687 C   0  0  1  0  0  0  0  0  0  0  0  0
  -17.1438   -4.2285   30.7841 O   0  0  0  0  0  0  0  0  0  0  0  0
  -17.0480   -5.3659   32.7974 C   0  0  1  0  0  0  0  0  0  0  0  0
  -17.7477   -5.3734   34.0217 O   0  0  0  0  0  0  0  0  0  0  0  0
  -17.7758   -6.2178   31.7774 C   0  0  1  0  0  0  0  0  0  0  0  0
  -19.0601   -6.5053   32.2731 O   0  0  0  0  0  0  0  0  0  0  0  0
  -17.8957   -5.3827   30.5098 C   0  0  2  0  0  0  0  0  0  0  0  0
  -13.7606   -9.6377   33.6358 O   0  0  0  0  0  0  0  0  0  0  0  0
  -15.1450   -9.6235   29.0185 N   0  0  0  0  0  0  0  0  0  0  0  0
  -15.5816   -9.2939   30.2864 C   0  0  0  0  0  0  0  0  0  0  0  0
  -16.2959   -8.1309   30.5041 N   0  0  0  0  0  0  0  0  0  0  0  0
  -16.5729   -7.2960   29.4745 C   0  0  0  0  0  0  0  0  0  0  0  0
  -16.1492   -7.6154   28.1904 C   0  0  0  0  0  0  0  0  0  0  0  0
  -15.4283   -8.7817   27.9648 C   0  0  0  0  0  0  0  0  0  0  0  0
  -15.0142   -9.0827   26.7364 N   0  0  0  0  0  0  0  0  0  0  0  0
  -16.5590   -6.6308   27.3620 N   0  0  0  0  0  0  0  0  0  0  0  0
  -17.2418   -5.7125   28.0852 C   0  0  0  0  0  0  0  0  0  0  0  0
  -17.2612   -6.1083   29.3965 N   0  0  0  0  0  0  0  0  0  0  0  0
  2  1  1  6  0  0  0
  2  3  1  0  0  0  0
  2  5  1  0  0  0  0
  3  4  1  0  0  0  0
  3 17  1  0  0  0  0
  5  6  1  0  0  0  0
  7  6  1  1  0  0  0
  7  8  1  0  0  0  0
  7  9  1  0  0  0  0
 10  9  1  6  0  0  0
 10 11  1  0  0  0  0
 10 12  1  0  0  0  0
 11 16  1  0  0  0  0
 12 13  1  1  0  0  0
 12 14  1  0  0  0  0
 14 15  1  1  0  0  0
 14 16  1  0  0  0  0
 16 27  1  6  0  0  0
 18 19  2  0  0  0  0
 18 23  1  0  0  0  0
 19 20  1  0  0  0  0
 20 21  2  0  0  0  0
 21 22  1  0  0  0  0
 21 27  1  0  0  0  0
 22 23  2  0  0  0  0
 22 25  1  0  0  0  0
 23 24  1  0  0  0  0
 25 26  2  0  0  0  0
 26 27  1  0  0  0  0
M  END
>  <CHROM.1>
147.42341160,-58.38974608,-167.33599427,-149.71839253,-84.87115660,-56.98732635
108.30226982,-15.77547865,-6.46793545,31.37556354,-1.04027027,1.09874840
-2.51247020

>  <Name>
ligand

>  <RI>
0

>  <Rbt.Current_Directory>
/home/itssahil/PROJECTS/Mol_Feturizer/New_Systems/rnas/3GX6

>  <Rbt.Executable>
rbdock ($Id: //depot/dev/client3/rdock/2013.1/src/exe/rbdock.cxx#4 $)

>  <Rbt.Library>
libRbt.so (2013.1, Build901 2013/11/27)

>  <Rbt.Parameter_File>
/export/apps/rDock/src/rDock_2013.1_src/data/scripts/dock_solv.prm

>  <Rbt.Receptor>
prm/pocket_docking_4.prm

>  <SCORE>
-19.297

>  <SCORE.INTER>
-10.4689

>  <SCORE.INTER.CONST>
1

>  <SCORE.INTER.POLAR>
0

>  <SCORE.INTER.ROT>
7

>  <SCORE.INTER.SOLV>
11.2738

>  <SCORE.INTER.VDW>
-19.0039

>  <SCORE.INTER.norm>
-0.387736

>  <SCORE.INTRA>
-8.82815

>  <SCORE.INTRA.DIHEDRAL>
-7.33153

>  <SCORE.INTRA.DIHEDRAL.0>
15.0182

>  <SCORE.INTRA.POLAR>
0

>  <SCORE.INTRA.POLAR.0>
0

>  <SCORE.INTRA.REPUL>
0

>  <SCORE.INTRA.REPUL.0>
0

>  <SCORE.INTRA.SOLV>
-0.509386

>  <SCORE.INTRA.SOLV.lig_0>
-47.9129

>  <SCORE.INTRA.VDW>
-4.90769

>  <SCORE.INTRA.VDW.0>
2.00851

>  <SCORE.INTRA.norm>
-0.326969

>  <SCORE.RESTR>
0

>  <SCORE.RESTR.CAVITY>
0

>  <SCORE.RESTR.norm>
0

>  <SCORE.SYSTEM>
0

>  <SCORE.SYSTEM.CONST>
0

>  <SCORE.SYSTEM.DIHEDRAL>
0

>  <SCORE.SYSTEM.SOLV>
0

>  <SCORE.SYSTEM.norm>
0

>  <SCORE.heavy>
27

>  <SCORE.norm>
-0.714705

>  <RMSD>
6.315

$$$$
ligand
 OpenBabel11021811483D
libRbt.so/2013.1/901 2013/11/27
 27 29  0  0  0  0  0  0  0  0999 V2000
  -13.8907   -5.8213   28.7917 N   0  0  0  0  0  0  0  0  0  0  0  0
  -12.5530   -5.7481   29.3732 C   0  0  2  0  0  0  0  0  0  0  0  0
  -11.6365   -6.8424   28.8323 C   0  0  0  0  0  0  0  0  0  0  0  0
  -11.8914   -8.0348   29.0154 O   0  0  0  0  0  0  0  0  0  0  0  0
  -12.6192   -5.7816   30.8971 C   0  0  0  0  0  0  0  0  0  0  0  0
  -12.7943   -4.4065   31.5229 C   0  0  0  0  0  0  0  0  0  0  0  0
  -14.5217   -3.9462   31.8068 S   0  0  2  0  0  0  0  0  0  0  0  0
  -14.3056   -2.3306   32.5940 C   0  0  0  0  0  0  0  0  0  0  0  0
  -14.9251   -4.9864   33.2363 C   0  0  0  0  0  0  0  0  0  0  0  0
  -15.9370   -6.0445   32.8207 C   0  0  1  0  0  0  0  0  0  0  0  0
  -15.6913   -7.2106   33.5700 O   0  0  0  0  0  0  0  0  0  0  0  0
  -17.3905   -5.7111   33.1005 C   0  0  1  0  0  0  0  0  0  0  0  0
  -18.0123   -5.1689   31.9568 O   0  0  0  0  0  0  0  0  0  0  0  0
  -17.9938   -7.0616   33.4293 C   0  0  1  0  0  0  0  0  0  0  0  0
  -18.7688   -7.4814   32.3334 O   0  0  0  0  0  0  0  0  0  0  0  0
  -16.8331   -8.0265   33.6299 C   0  0  2  0  0  0  0  0  0  0  0  0
  -10.6179   -6.5527   28.2045 O   0  0  0  0  0  0  0  0  0  0  0  0
  -19.9982   -9.8440   37.4318 N   0  0  0  0  0  0  0  0  0  0  0  0
  -20.3537   -9.3337   36.1988 C   0  0  0  0  0  0  0  0  0  0  0  0
  -19.3870   -8.8947   35.3140 N   0  0  0  0  0  0  0  0  0  0  0  0
  -18.0761   -8.9556   35.6484 C   0  0  0  0  0  0  0  0  0  0  0  0
  -17.6990   -9.4739   36.8812 C   0  0  0  0  0  0  0  0  0  0  0  0
  -18.6659   -9.9146   37.7766 C   0  0  0  0  0  0  0  0  0  0  0  0
  -18.3050  -10.4021   38.9612 N   0  0  0  0  0  0  0  0  0  0  0  0
  -16.3514   -9.4271   36.9555 N   0  0  0  0  0  0  0  0  0  0  0  0
  -15.8715   -8.9113   35.7996 C   0  0  0  0  0  0  0  0  0  0  0  0
  -16.9259   -8.6136   34.9772 N   0  0  0  0  0  0  0  0  0  0  0  0
  2  1  1  6  0  0  0
  2  3  1  0  0  0  0
  2  5  1  0  0  0  0
  3  4  1  0  0  0  0
  3 17  1  0  0  0  0
  5  6  1  0  0  0  0
  7  6  1  1  0  0  0
  7  8  1  0  0  0  0
  7  9  1  0  0  0  0
 10  9  1  1  0  0  0
 10 11  1  0  0  0  0
 10 12  1  0  0  0  0
 11 16  1  0  0  0  0
 12 13  1  6  0  0  0
 12 14  1  0  0  0  0
 14 15  1  6  0  0  0
 14 16  1  0  0  0  0
 16 27  1  1  0  0  0
 18 19  2  0  0  0  0
 18 23  1  0  0  0  0
 19 20  1  0  0  0  0
 20 21  2  0  0  0  0
 21 22  1  0  0  0  0
 21 27  1  0  0  0  0
 22 23  2  0  0  0  0
 22 25  1  0  0  0  0
 23 24  1  0  0  0  0
 25 26  2  0  0  0  0
 26 27  1  0  0  0  0
M  END
>  <CHROM.1>
-62.13514596,-87.48144687,92.20443764,177.92189251,-112.32422021,147.06674020
149.37965985,-15.86771478,-7.00362939,33.19339546,-0.70736591,-0.65102584
2.70640382

>  <Name>
ligand

>  <RI>
0

>  <Rbt.Current_Directory>
/home/itssahil/PROJECTS/Mol_Feturizer/New_Systems/rnas/3GX6

>  <Rbt.Executable>
rbdock ($Id: //depot/dev/client3/rdock/2013.1/src/exe/rbdock.cxx#4 $)

>  <Rbt.Library>
libRbt.so (2013.1, Build901 2013/11/27)

>  <Rbt.Parameter_File>
/export/apps/rDock/src/rDock_2013.1_src/data/scripts/dock_solv.prm

>  <Rbt.Receptor>
prm/pocket_docking_8.prm

>  <SCORE>
-17.6196

>  <SCORE.INTER>
-12.8087

>  <SCORE.INTER.CONST>
1

>  <SCORE.INTER.POLAR>
0

>  <SCORE.INTER.ROT>
7

>  <SCORE.INTER.SOLV>
7.15417

>  <SCORE.INTER.VDW>
-19.1905

>  <SCORE.INTER.norm>
-0.474396

>  <SCORE.INTRA>
-4.81088

>  <SCORE.INTRA.DIHEDRAL>
0.513487

>  <SCORE.INTRA.DIHEDRAL.0>
15.0182

>  <SCORE.INTRA.POLAR>
0

>  <SCORE.INTRA.POLAR.0>
0

>  <SCORE.INTRA.REPUL>
0

>  <SCORE.INTRA.REPUL.0>
0

>  <SCORE.INTRA.SOLV>
-0.408733

>  <SCORE.INTRA.SOLV.lig_0>
-47.9129

>  <SCORE.INTRA.VDW>
-4.86326

>  <SCORE.INTRA.VDW.0>
2.00851

>  <SCORE.INTRA.norm>
-0.178181

>  <SCORE.RESTR>
0

>  <SCORE.RESTR.CAVITY>
0

>  <SCORE.RESTR.norm>
0

>  <SCORE.SYSTEM>
0

>  <SCORE.SYSTEM.CONST>
0

>  <SCORE.SYSTEM.DIHEDRAL>
0

>  <SCORE.SYSTEM.SOLV>
0

>  <SCORE.SYSTEM.norm>
0

>  <SCORE.heavy>
27

>  <SCORE.norm>
-0.652577

>  <RMSD>
6.323

$$$$
ligand
 OpenBabel11021811483D
libRbt.so/2013.1/901 2013/11/27
 27 29  0  0  0  0  0  0  0  0999 V2000
  -14.2607   -9.8043   34.6185 N   0  0  0  0  0  0  0  0  0  0  0  0
  -14.6574   -8.6524   35.4239 C   0  0  2  0  0  0  0  0  0  0  0  0
  -15.9473   -8.0169   34.9118 C   0  0  0  0  0  0  0  0  0  0  0  0
  -15.9219   -7.0195   34.1873 O   0  0  0  0  0  0  0  0  0  0  0  0
  -13.5281   -7.6297   35.5051 C   0  0  0  0  0  0  0  0  0  0  0  0
  -12.7355   -7.5038   34.2132 C   0  0  0  0  0  0  0  0  0  0  0  0
  -13.4693   -6.3655   33.0123 S   0  0  2  0  0  0  0  0  0  0  0  0
  -12.7694   -7.0149   31.4745 C   0  0  0  0  0  0  0  0  0  0  0  0
  -12.4498   -4.8881   33.2701 C   0  0  0  0  0  0  0  0  0  0  0  0
  -12.9224   -3.7805   32.3394 C   0  0  1  0  0  0  0  0  0  0  0  0
  -12.5027   -4.0913   31.0322 O   0  0  0  0  0  0  0  0  0  0  0  0
  -14.4260   -3.6122   32.2269 C   0  0  1  0  0  0  0  0  0  0  0  0
  -14.8863   -2.6003   33.0946 O   0  0  0  0  0  0  0  0  0  0  0  0
  -14.6155   -3.1866   30.7851 C   0  0  1  0  0  0  0  0  0  0  0  0
  -14.9121   -1.8120   30.7623 O   0  0  0  0  0  0  0  0  0  0  0  0
  -13.2912   -3.4323   30.0747 C   0  0  2  0  0  0  0  0  0  0  0  0
  -17.0426   -8.4879   35.2187 O   0  0  0  0  0  0  0  0  0  0  0  0
  -11.5068   -7.5458   27.3052 N   0  0  0  0  0  0  0  0  0  0  0  0
  -10.9324   -6.9490   28.4101 C   0  0  0  0  0  0  0  0  0  0  0  0
  -11.5383   -5.8666   29.0196 N   0  0  0  0  0  0  0  0  0  0  0  0
  -12.7034   -5.3739   28.5362 C   0  0  0  0  0  0  0  0  0  0  0  0
  -13.3005   -5.9667   27.4305 C   0  0  0  0  0  0  0  0  0  0  0  0
  -12.6955   -7.0536   26.8113 C   0  0  0  0  0  0  0  0  0  0  0  0
  -13.2627   -7.6153   25.7465 N   0  0  0  0  0  0  0  0  0  0  0  0
  -14.4409   -5.2938   27.1651 N   0  0  0  0  0  0  0  0  0  0  0  0
  -14.5856   -4.3080   28.0816 C   0  0  0  0  0  0  0  0  0  0  0  0
  -13.5183   -4.3427   28.9398 N   0  0  0  0  0  0  0  0  0  0  0  0
  2  1  1  6  0  0  0
  2  3  1  0  0  0  0
  2  5  1  0  0  0  0
  3  4  1  0  0  0  0
  3 17  1  0  0  0  0
  5  6  1  0  0  0  0
  7  6  1  1  0  0  0
  7  8  1  0  0  0  0
  7  9  1  0  0  0  0
 10  9  1  1  0  0  0
 10 11  1  0  0  0  0
 10 12  1  0  0  0  0
 11 16  1  0  0  0  0
 12 13  1  1  0  0  0
 12 14  1  0  0  0  0
 14 15  1  1  0  0  0
 14 16  1  0  0  0  0
 16 27  1  6  0  0  0
 18 19  2  0  0  0  0
 18 23  1  0  0  0  0
 19 20  1  0  0  0  0
 20 21  2  0  0  0  0
 21 22  1  0  0  0  0
 21 27  1  0  0  0  0
 22 23  2  0  0  0  0
 22 25  1  0  0  0  0
 23 24  1  0  0  0  0
 25 26  2  0  0  0  0
 26 27  1  0  0  0  0
M  END
>  <CHROM.1>
-98.37413197,36.88197621,84.94426366,-155.75936054,-179.57163129,-73.88927418
-26.76800679,-13.68948334,-5.86328574,31.28106885,-2.44401988,1.24255035
-0.44748646

>  <Name>
ligand

>  <RI>
0

>  <Rbt.Current_Directory>
/home/itssahil/PROJECTS/Mol_Feturizer/New_Systems/rnas/3GX6

>  <Rbt.Executable>
rbdock ($Id: //depot/dev/client3/rdock/2013.1/src/exe/rbdock.cxx#4 $)

>  <Rbt.Library>
libRbt.so (2013.1, Build901 2013/11/27)

>  <Rbt.Parameter_File>
/export/apps/rDock/src/rDock_2013.1_src/data/scripts/dock_solv.prm

>  <Rbt.Receptor>
prm/pocket_docking_3.prm

>  <SCORE>
-21.3671

>  <SCORE.INTER>
-15.7177

>  <SCORE.INTER.CONST>
1

>  <SCORE.INTER.POLAR>
0

>  <SCORE.INTER.ROT>
7

>  <SCORE.INTER.SOLV>
13.7073

>  <SCORE.INTER.VDW>
-23.3142

>  <SCORE.INTER.norm>
-0.582137

>  <SCORE.INTRA>
-5.64941

>  <SCORE.INTRA.DIHEDRAL>
-4.56711

>  <SCORE.INTRA.DIHEDRAL.0>
15.0182

>  <SCORE.INTRA.POLAR>
0

>  <SCORE.INTRA.POLAR.0>
0

>  <SCORE.INTRA.REPUL>
0

>  <SCORE.INTRA.REPUL.0>
0

>  <SCORE.INTRA.SOLV>
0.138085

>  <SCORE.INTRA.SOLV.lig_0>
-47.9129

>  <SCORE.INTRA.VDW>
-3.4349

>  <SCORE.INTRA.VDW.0>
2.00851

>  <SCORE.INTRA.norm>
-0.209237

>  <SCORE.RESTR>
0

>  <SCORE.RESTR.CAVITY>
0

>  <SCORE.RESTR.norm>
0

>  <SCORE.SYSTEM>
0

>  <SCORE.SYSTEM.CONST>
0

>  <SCORE.SYSTEM.DIHEDRAL>
0

>  <SCORE.SYSTEM.SOLV>
0

>  <SCORE.SYSTEM.norm>
0

>  <SCORE.heavy>
27

>  <SCORE.norm>
-0.791375

>  <RMSD>
6.337

$$$$
ligand
 OpenBabel11021811483D
libRbt.so/2013.1/901 2013/11/27
 27 29  0  0  0  0  0  0  0  0999 V2000
  -16.1452   -9.7447   35.5656 N   0  0  0  0  0  0  0  0  0  0  0  0
  -16.3941   -8.4506   34.9360 C   0  0  2  0  0  0  0  0  0  0  0  0
  -17.7138   -8.4350   34.1693 C   0  0  0  0  0  0  0  0  0  0  0  0
  -18.2069   -9.4758   33.7288 O   0  0  0  0  0  0  0  0  0  0  0  0
  -15.2264   -8.0470   34.0407 C   0  0  0  0  0  0  0  0  0  0  0  0
  -15.1800   -6.5555   33.7469 C   0  0  0  0  0  0  0  0  0  0  0  0
  -13.7184   -6.0388   32.8125 S   0  0  2  0  0  0  0  0  0  0  0  0
  -12.4070   -6.7671   33.8256 C   0  0  0  0  0  0  0  0  0  0  0  0
  -13.6053   -4.2924   33.2874 C   0  0  0  0  0  0  0  0  0  0  0  0
  -14.3211   -3.4400   32.2495 C   0  0  1  0  0  0  0  0  0  0  0  0
  -13.6218   -3.5443   31.0322 O   0  0  0  0  0  0  0  0  0  0  0  0
  -15.7380   -3.8650   31.9126 C   0  0  1  0  0  0  0  0  0  0  0  0
  -16.6774   -3.1234   32.6582 O   0  0  0  0  0  0  0  0  0  0  0  0
  -15.8564   -3.5241   30.4409 C   0  0  1  0  0  0  0  0  0  0  0  0
  -16.6519   -2.3713   30.3140 O   0  0  0  0  0  0  0  0  0  0  0  0
  -14.4487   -3.2274   29.9420 C   0  0  2  0  0  0  0  0  0  0  0  0
  -18.3107   -7.3766   33.9711 O   0  0  0  0  0  0  0  0  0  0  0  0
  -11.5770   -7.3217   28.2791 N   0  0  0  0  0  0  0  0  0  0  0  0
  -11.5658   -6.7225   29.5232 C   0  0  0  0  0  0  0  0  0  0  0  0
  -12.3895   -5.6459   29.7929 N   0  0  0  0  0  0  0  0  0  0  0  0
  -13.2164   -5.1615   28.8361 C   0  0  0  0  0  0  0  0  0  0  0  0
  -13.2476   -5.7569   27.5811 C   0  0  0  0  0  0  0  0  0  0  0  0
  -12.4202   -6.8379   27.3023 C   0  0  0  0  0  0  0  0  0  0  0  0
  -12.4433   -7.4021   26.0972 N   0  0  0  0  0  0  0  0  0  0  0  0
  -14.1519   -5.0926   26.8297 N   0  0  0  0  0  0  0  0  0  0  0  0
  -14.7011   -4.1096   27.5813 C   0  0  0  0  0  0  0  0  0  0  0  0
  -14.1338   -4.1374   28.8279 N   0  0  0  0  0  0  0  0  0  0  0  0
  2  1  1  6  0  0  0
  2  3  1  0  0  0  0
  2  5  1  0  0  0  0
  3  4  1  0  0  0  0
  3 17  1  0  0  0  0
  5  6  1  0  0  0  0
  7  6  1  1  0  0  0
  7  8  1  0  0  0  0
  7  9  1  0  0  0  0
 10  9  1  1  0  0  0
 10 11  1  0  0  0  0
 10 12  1  0  0  0  0
 11 16  1  0  0  0  0
 12 13  1  1  0  0  0
 12 14  1  0  0  0  0
 14 15  1  1  0  0  0
 14 16  1  0  0  0  0
 16 27  1  6  0  0  0
 18 19  2  0  0  0  0
 18 23  1  0  0  0  0
 19 20  1  0  0  0  0
 20 21  2  0  0  0  0
 21 22  1  0  0  0  0
 21 27  1  0  0  0  0
 22 23  2  0  0  0  0
 22 25  1  0  0  0  0
 23 24  1  0  0  0  0
 25 26  2  0  0  0  0
 26 27  1  0  0  0  0
M  END
>  <CHROM.1>
-25.27351347,-159.93590211,174.72394623,-51.99103381,-94.28072539,-65.51840677
1.75356870,-14.61694087,-5.79809362,31.25279077,-2.37569978,0.91593155,-0.48699548

>  <Name>
ligand

>  <RI>
0

>  <Rbt.Current_Directory>
/home/itssahil/PROJECTS/Mol_Feturizer/New_Systems/rnas/3GX6

>  <Rbt.Executable>
rbdock ($Id: //depot/dev/client3/rdock/2013.1/src/exe/rbdock.cxx#4 $)

>  <Rbt.Library>
libRbt.so (2013.1, Build901 2013/11/27)

>  <Rbt.Parameter_File>
/export/apps/rDock/src/rDock_2013.1_src/data/scripts/dock_solv.prm

>  <Rbt.Receptor>
prm/pocket_docking_6.prm

>  <SCORE>
-21.7577

>  <SCORE.INTER>
-12.6445

>  <SCORE.INTER.CONST>
1

>  <SCORE.INTER.POLAR>
0

>  <SCORE.INTER.ROT>
7

>  <SCORE.INTER.SOLV>
12.8111

>  <SCORE.INTER.VDW>
-20.9667

>  <SCORE.INTER.norm>
-0.468315

>  <SCORE.INTRA>
-9.11318

>  <SCORE.INTRA.DIHEDRAL>
-7.80312

>  <SCORE.INTRA.DIHEDRAL.0>
15.0182

>  <SCORE.INTRA.POLAR>
0

>  <SCORE.INTRA.POLAR.0>
0

>  <SCORE.INTRA.REPUL>
0

>  <SCORE.INTRA.REPUL.0>
0

>  <SCORE.INTRA.SOLV>
-1.45216

>  <SCORE.INTRA.SOLV.lig_0>
-47.9129

>  <SCORE.INTRA.VDW>
-4.48554

>  <SCORE.INTRA.VDW.0>
2.00851

>  <SCORE.INTRA.norm>
-0.337525

>  <SCORE.RESTR>
0

>  <SCORE.RESTR.CAVITY>
0

>  <SCORE.RESTR.norm>
0

>  <SCORE.SYSTEM>
0

>  <SCORE.SYSTEM.CONST>
0

>  <SCORE.SYSTEM.DIHEDRAL>
0

>  <SCORE.SYSTEM.SOLV>
0

>  <SCORE.SYSTEM.norm>
0

>  <SCORE.heavy>
27

>  <SCORE.norm>
-0.805841

>  <RMSD>
6.343

$$$$
ligand
 OpenBabel11021811483D
libRbt.so/2013.1/901 2013/11/27
 27 29  0  0  0  0  0  0  0  0999 V2000
  -13.7346   -9.4443   33.7621 N   0  0  0  0  0  0  0  0  0  0  0  0
  -13.2848   -8.1164   34.1710 C   0  0  2  0  0  0  0  0  0  0  0  0
  -13.6567   -7.8103   35.6194 C   0  0  0  0  0  0  0  0  0  0  0  0
  -12.9453   -7.0872   36.3205 O   0  0  0  0  0  0  0  0  0  0  0  0
  -13.8160   -7.0456   33.2227 C   0  0  0  0  0  0  0  0  0  0  0  0
  -13.1910   -5.6775   33.4482 C   0  0  0  0  0  0  0  0  0  0  0  0
  -13.5733   -4.4754   32.1501 S   0  0  2  0  0  0  0  0  0  0  0  0
  -12.1901   -3.3251   32.3504 C   0  0  0  0  0  0  0  0  0  0  0  0
  -14.9229   -3.5463   32.9272 C   0  0  0  0  0  0  0  0  0  0  0  0
  -16.2550   -4.1702   32.5367 C   0  0  1  0  0  0  0  0  0  0  0  0
  -16.2929   -4.2921   31.1348 O   0  0  0  0  0  0  0  0  0  0  0  0
  -16.4977   -5.5778   33.0483 C   0  0  1  0  0  0  0  0  0  0  0  0
  -17.2541   -5.5581   34.2382 O   0  0  0  0  0  0  0  0  0  0  0  0
  -17.3012   -6.2135   31.9319 C   0  0  1  0  0  0  0  0  0  0  0  0
  -18.6404   -6.3140   32.3492 O   0  0  0  0  0  0  0  0  0  0  0  0
  -17.2110   -5.2770   30.7347 C   0  0  2  0  0  0  0  0  0  0  0  0
  -14.6764   -8.2865   36.1184 O   0  0  0  0  0  0  0  0  0  0  0  0
  -14.9549   -9.7319   29.0497 N   0  0  0  0  0  0  0  0  0  0  0  0
  -15.3719   -9.4188   30.3284 C   0  0  0  0  0  0  0  0  0  0  0  0
  -15.9475   -8.1920   30.6000 N   0  0  0  0  0  0  0  0  0  0  0  0
  -16.1056   -7.2778   29.6135 C   0  0  0  0  0  0  0  0  0  0  0  0
  -15.6999   -7.5783   28.3190 C   0  0  0  0  0  0  0  0  0  0  0  0
  -15.1180   -8.8089   28.0395 C   0  0  0  0  0  0  0  0  0  0  0  0
  -14.7208   -9.0928   26.8015 N   0  0  0  0  0  0  0  0  0  0  0  0
  -15.9757   -6.5103   27.5400 N   0  0  0  0  0  0  0  0  0  0  0  0
  -16.5579   -5.5560   28.3035 C   0  0  0  0  0  0  0  0  0  0  0  0
  -16.6471   -6.0142   29.5914 N   0  0  0  0  0  0  0  0  0  0  0  0
  2  1  1  6  0  0  0
  2  3  1  0  0  0  0
  2  5  1  0  0  0  0
  3  4  1  0  0  0  0
  3 17  1  0  0  0  0
  5  6  1  0  0  0  0
  7  6  1  1  0  0  0
  7  8  1  0  0  0  0
  7  9  1  0  0  0  0
 10  9  1  6  0  0  0
 10 11  1  0  0  0  0
 10 12  1  0  0  0  0
 11 16  1  0  0  0  0
 12 13  1  1  0  0  0
 12 14  1  0  0  0  0
 14 15  1  1  0  0  0
 14 16  1  0  0  0  0
 16 27  1  6  0  0  0
 18 19  2  0  0  0  0
 18 23  1  0  0  0  0
 19 20  1  0  0  0  0
 20 21  2  0  0  0  0
 21 22  1  0  0  0  0
 21 27  1  0  0  0  0
 22 23  2  0  0  0  0
 22 25  1  0  0  0  0
 23 24  1  0  0  0  0
 25 26  2  0  0  0  0
 26 27  1  0  0  0  0
M  END
>  <CHROM.1>
148.50121409,-169.96494464,169.29445507,-157.12803012,-92.07897607,-51.67157122
104.48561655,-15.19477698,-6.53856236,31.76416894,-0.85047530,1.11515279
-2.42214740

>  <Name>
ligand

>  <RI>
0

>  <Rbt.Current_Directory>
/home/itssahil/PROJECTS/Mol_Feturizer/New_Systems/rnas/3GX6

>  <Rbt.Executable>
rbdock ($Id: //depot/dev/client3/rdock/2013.1/src/exe/rbdock.cxx#4 $)

>  <Rbt.Library>
libRbt.so (2013.1, Build901 2013/11/27)

>  <Rbt.Parameter_File>
/export/apps/rDock/src/rDock_2013.1_src/data/scripts/dock_solv.prm

>  <Rbt.Receptor>
prm/pocket_docking_6.prm

>  <SCORE>
-19.8339

>  <SCORE.INTER>
-10.8006

>  <SCORE.INTER.CONST>
1

>  <SCORE.INTER.POLAR>
0

>  <SCORE.INTER.ROT>
7

>  <SCORE.INTER.SOLV>
11.7015

>  <SCORE.INTER.VDW>
-19.3676

>  <SCORE.INTER.norm>
-0.400024

>  <SCORE.INTRA>
-9.03329

>  <SCORE.INTRA.DIHEDRAL>
-7.03645

>  <SCORE.INTRA.DIHEDRAL.0>
15.0182

>  <SCORE.INTRA.POLAR>
0

>  <SCORE.INTRA.POLAR.0>
0

>  <SCORE.INTRA.REPUL>
0

>  <SCORE.INTRA.REPUL.0>
0

>  <SCORE.INTRA.SOLV>
-1.24262

>  <SCORE.INTRA.SOLV.lig_0>
-47.9129

>  <SCORE.INTRA.VDW>
-4.89375

>  <SCORE.INTRA.VDW.0>
2.00851

>  <SCORE.INTRA.norm>
-0.334566

>  <SCORE.RESTR>
0

>  <SCORE.RESTR.CAVITY>
0

>  <SCORE.RESTR.norm>
0

>  <SCORE.SYSTEM>
0

>  <SCORE.SYSTEM.CONST>
0

>  <SCORE.SYSTEM.DIHEDRAL>
0

>  <SCORE.SYSTEM.SOLV>
0

>  <SCORE.SYSTEM.norm>
0

>  <SCORE.heavy>
27

>  <SCORE.norm>
-0.73459

>  <RMSD>
6.356

$$$$
ligand
 OpenBabel11021811483D
libRbt.so/2013.1/901 2013/11/27
 27 29  0  0  0  0  0  0  0  0999 V2000
  -13.2156   -8.3201   35.5459 N   0  0  0  0  0  0  0  0  0  0  0  0
  -14.2015   -7.5433   34.7992 C   0  0  2  0  0  0  0  0  0  0  0  0
  -15.1091   -8.4353   33.9562 C   0  0  0  0  0  0  0  0  0  0  0  0
  -14.6568   -9.1057   33.0254 O   0  0  0  0  0  0  0  0  0  0  0  0
  -13.5216   -6.4772   33.9454 C   0  0  0  0  0  0  0  0  0  0  0  0
  -14.4884   -5.4423   33.3911 C   0  0  0  0  0  0  0  0  0  0  0  0
  -13.7095   -4.2191   32.3080 S   0  0  2  0  0  0  0  0  0  0  0  0
  -12.5700   -3.4290   33.4715 C   0  0  0  0  0  0  0  0  0  0  0  0
  -15.0220   -2.9730   32.1952 C   0  0  0  0  0  0  0  0  0  0  0  0
  -15.9668   -3.3369   31.0588 C   0  0  1  0  0  0  0  0  0  0  0  0
  -15.2376   -3.3220   29.8548 O   0  0  0  0  0  0  0  0  0  0  0  0
  -16.5681   -4.7284   31.1229 C   0  0  1  0  0  0  0  0  0  0  0  0
  -17.8494   -4.6970   31.7111 O   0  0  0  0  0  0  0  0  0  0  0  0
  -16.6754   -5.1220   29.6637 C   0  0  1  0  0  0  0  0  0  0  0  0
  -18.0262   -5.0445   29.2801 O   0  0  0  0  0  0  0  0  0  0  0  0
  -15.8634   -4.1061   28.8717 C   0  0  2  0  0  0  0  0  0  0  0  0
  -16.3165   -8.4981   34.1883 O   0  0  0  0  0  0  0  0  0  0  0  0
  -11.3773   -6.8675   29.0299 N   0  0  0  0  0  0  0  0  0  0  0  0
  -12.0878   -6.3353   30.0876 C   0  0  0  0  0  0  0  0  0  0  0  0
  -13.2553   -5.6294   29.8665 N   0  0  0  0  0  0  0  0  0  0  0  0
  -13.7152   -5.4467   28.6059 C   0  0  0  0  0  0  0  0  0  0  0  0
  -13.0182   -5.9822   27.5298 C   0  0  0  0  0  0  0  0  0  0  0  0
  -11.8424   -6.6907   27.7448 C   0  0  0  0  0  0  0  0  0  0  0  0
  -11.1699   -7.1955   26.7132 N   0  0  0  0  0  0  0  0  0  0  0  0
  -13.6894   -5.6641   26.4020 N   0  0  0  0  0  0  0  0  0  0  0  0
  -14.7952   -4.9602   26.7399 C   0  0  0  0  0  0  0  0  0  0  0  0
  -14.8281   -4.8161   28.1018 N   0  0  0  0  0  0  0  0  0  0  0  0
  2  1  1  6  0  0  0
  2  3  1  0  0  0  0
  2  5  1  0  0  0  0
  3  4  1  0  0  0  0
  3 17  1  0  0  0  0
  5  6  1  0  0  0  0
  7  6  1  1  0  0  0
  7  8  1  0  0  0  0
  7  9  1  0  0  0  0
 10  9  1  1  0  0  0
 10 11  1  0  0  0  0
 10 12  1  0  0  0  0
 11 16  1  0  0  0  0
 12 13  1  6  0  0  0
 12 14  1  0  0  0  0
 14 15  1  6  0  0  0
 14 16  1  0  0  0  0
 16 27  1  1  0  0  0
 18 19  2  0  0  0  0
 18 23  1  0  0  0  0
 19 20  1  0  0  0  0
 20 21  2  0  0  0  0
 21 22  1  0  0  0  0
 21 27  1  0  0  0  0
 22 23  2  0  0  0  0
 22 25  1  0  0  0  0
 23 24  1  0  0  0  0
 25 26  2  0  0  0  0
 26 27  1  0  0  0  0
M  END
>  <CHROM.1>
-64.39176176,-167.08305158,-177.07838370,-62.82949517,-87.21653722,-62.12541492
43.09508430,-14.42529142,-5.64459512,30.86012200,-1.73628081,0.63210151,-1.23498414

>  <Name>
ligand

>  <RI>
0

>  <Rbt.Current_Directory>
/home/itssahil/PROJECTS/Mol_Feturizer/New_Systems/rnas/3GX6

>  <Rbt.Executable>
rbdock ($Id: //depot/dev/client3/rdock/2013.1/src/exe/rbdock.cxx#4 $)

>  <Rbt.Library>
libRbt.so (2013.1, Build901 2013/11/27)

>  <Rbt.Parameter_File>
/export/apps/rDock/src/rDock_2013.1_src/data/scripts/dock_solv.prm

>  <Rbt.Receptor>
prm/pocket_docking_4.prm

>  <SCORE>
-23.4993

>  <SCORE.INTER>
-12.4505

>  <SCORE.INTER.CONST>
1

>  <SCORE.INTER.POLAR>
0

>  <SCORE.INTER.ROT>
7

>  <SCORE.INTER.SOLV>
13.7053

>  <SCORE.INTER.VDW>
-21.1354

>  <SCORE.INTER.norm>
-0.461129

>  <SCORE.INTRA>
-11.0488

>  <SCORE.INTRA.DIHEDRAL>
-10.1223

>  <SCORE.INTRA.DIHEDRAL.0>
15.0182

>  <SCORE.INTRA.POLAR>
0

>  <SCORE.INTRA.POLAR.0>
0

>  <SCORE.INTRA.REPUL>
0

>  <SCORE.INTRA.REPUL.0>
0

>  <SCORE.INTRA.SOLV>
-1.44561

>  <SCORE.INTRA.SOLV.lig_0>
-47.9129

>  <SCORE.INTRA.VDW>
-5.26488

>  <SCORE.INTRA.VDW.0>
2.00851

>  <SCORE.INTRA.norm>
-0.409216

>  <SCORE.RESTR>
0

>  <SCORE.RESTR.CAVITY>
0

>  <SCORE.RESTR.norm>
0

>  <SCORE.SYSTEM>
0

>  <SCORE.SYSTEM.CONST>
0

>  <SCORE.SYSTEM.DIHEDRAL>
0

>  <SCORE.SYSTEM.SOLV>
0

>  <SCORE.SYSTEM.norm>
0

>  <SCORE.heavy>
27

>  <SCORE.norm>
-0.870346

>  <RMSD>
6.369

$$$$
ligand
 OpenBabel11021811483D
libRbt.so/2013.1/901 2013/11/27
 27 29  0  0  0  0  0  0  0  0999 V2000
  -12.7564   -7.8324   35.0540 N   0  0  0  0  0  0  0  0  0  0  0  0
  -14.1618   -7.5678   34.7579 C   0  0  2  0  0  0  0  0  0  0  0  0
  -14.9608   -8.8576   34.5904 C   0  0  0  0  0  0  0  0  0  0  0  0
  -16.1606   -8.8312   34.3072 O   0  0  0  0  0  0  0  0  0  0  0  0
  -14.3003   -6.6656   33.5353 C   0  0  0  0  0  0  0  0  0  0  0  0
  -13.5212   -5.3649   33.6551 C   0  0  0  0  0  0  0  0  0  0  0  0
  -13.5903   -4.3311   32.1709 S   0  0  2  0  0  0  0  0  0  0  0  0
  -12.1991   -3.2158   32.4829 C   0  0  0  0  0  0  0  0  0  0  0  0
  -14.9994   -3.2590   32.5628 C   0  0  0  0  0  0  0  0  0  0  0  0
  -16.1995   -3.6770   31.7254 C   0  0  1  0  0  0  0  0  0  0  0  0
  -15.8446   -3.5855   30.3663 O   0  0  0  0  0  0  0  0  0  0  0  0
  -16.6585   -5.1121   31.9035 C   0  0  1  0  0  0  0  0  0  0  0  0
  -17.7194   -5.1906   32.8293 O   0  0  0  0  0  0  0  0  0  0  0  0
  -17.1472   -5.4890   30.5197 C   0  0  1  0  0  0  0  0  0  0  0  0
  -18.5533   -5.5111   30.5351 O   0  0  0  0  0  0  0  0  0  0  0  0
  -16.6666   -4.4000   29.5701 C   0  0  2  0  0  0  0  0  0  0  0  0
  -14.4203   -9.9534   34.7410 O   0  0  0  0  0  0  0  0  0  0  0  0
  -14.8653   -8.8675   27.4320 N   0  0  0  0  0  0  0  0  0  0  0  0
  -15.6972   -8.7208   28.5245 C   0  0  0  0  0  0  0  0  0  0  0  0
  -16.0737   -7.4636   28.9580 N   0  0  0  0  0  0  0  0  0  0  0  0
  -15.6263   -6.3574   28.3176 C   0  0  0  0  0  0  0  0  0  0  0  0
  -14.7955   -6.4857   27.2114 C   0  0  0  0  0  0  0  0  0  0  0  0
  -14.4109   -7.7465   26.7718 C   0  0  0  0  0  0  0  0  0  0  0  0
  -13.6074   -7.8689   25.7179 N   0  0  0  0  0  0  0  0  0  0  0  0
  -14.5069   -5.2447   26.7639 N   0  0  0  0  0  0  0  0  0  0  0  0
  -15.1457   -4.3428   27.5457 C   0  0  0  0  0  0  0  0  0  0  0  0
  -15.8449   -5.0142   28.5137 N   0  0  0  0  0  0  0  0  0  0  0  0
  2  1  1  6  0  0  0
  2  3  1  0  0  0  0
  2  5  1  0  0  0  0
  3  4  1  0  0  0  0
  3 17  1  0  0  0  0
  5  6  1  0  0  0  0
  7  6  1  1  0  0  0
  7  8  1  0  0  0  0
  7  9  1  0  0  0  0
 10  9  1  1  0  0  0
 10 11  1  0  0  0  0
 10 12  1  0  0  0  0
 11 16  1  0  0  0  0
 12 13  1  1  0  0  0
 12 14  1  0  0  0  0
 14 15  1  1  0  0  0
 14 16  1  0  0  0  0
 16 27  1  6  0  0  0
 18 19  2  0  0  0  0
 18 23  1  0  0  0  0
 19 20  1  0  0  0  0
 20 21  2  0  0  0  0
 21 22  1  0  0  0  0
 21 27  1  0  0  0  0
 22 23  2  0  0  0  0
 22 25  1  0  0  0  0
 23 24  1  0  0  0  0
 25 26  2  0  0  0  0
 26 27  1  0  0  0  0
M  END
>  <CHROM.1>
-178.37354326,-54.72355020,176.33181282,-163.16095838,-106.38892199,-58.31414385
118.47531922,-15.14354184,-6.08507230,30.94297034,-0.73432556,1.42413467
-2.31236818

>  <Name>
ligand

>  <RI>
0

>  <Rbt.Current_Directory>
/home/itssahil/PROJECTS/Mol_Feturizer/New_Systems/rnas/3GX6

>  <Rbt.Executable>
rbdock ($Id: //depot/dev/client3/rdock/2013.1/src/exe/rbdock.cxx#4 $)

>  <Rbt.Library>
libRbt.so (2013.1, Build901 2013/11/27)

>  <Rbt.Parameter_File>
/export/apps/rDock/src/rDock_2013.1_src/data/scripts/dock_solv.prm

>  <Rbt.Receptor>
prm/pocket_docking_3.prm

>  <SCORE>
-18.4411

>  <SCORE.INTER>
-10.5369

>  <SCORE.INTER.CONST>
1

>  <SCORE.INTER.POLAR>
0

>  <SCORE.INTER.ROT>
7

>  <SCORE.INTER.SOLV>
9.99291

>  <SCORE.INTER.VDW>
-18.6222

>  <SCORE.INTER.norm>
-0.390256

>  <SCORE.INTRA>
-7.90641

>  <SCORE.INTRA.DIHEDRAL>
-7.01389

>  <SCORE.INTRA.DIHEDRAL.0>
15.0182

>  <SCORE.INTRA.POLAR>
0

>  <SCORE.INTRA.POLAR.0>
0

>  <SCORE.INTRA.REPUL>
0

>  <SCORE.INTRA.REPUL.0>
0

>  <SCORE.INTRA.SOLV>
-0.675942

>  <SCORE.INTRA.SOLV.lig_0>
-47.9129

>  <SCORE.INTRA.VDW>
-4.06149

>  <SCORE.INTRA.VDW.0>
2.00851

>  <SCORE.INTRA.norm>
-0.29283

>  <SCORE.RESTR>
0.00216295

>  <SCORE.RESTR.CAVITY>
0.00216295

>  <SCORE.RESTR.norm>
8.01092e-05

>  <SCORE.SYSTEM>
0

>  <SCORE.SYSTEM.CONST>
0

>  <SCORE.SYSTEM.DIHEDRAL>
0

>  <SCORE.SYSTEM.SOLV>
0

>  <SCORE.SYSTEM.norm>
0

>  <SCORE.heavy>
27

>  <SCORE.norm>
-0.683005

>  <RMSD>
6.395

$$$$
ligand
 OpenBabel11021811483D
libRbt.so/2013.1/901 2013/11/27
 27 29  0  0  0  0  0  0  0  0999 V2000
  -13.5750   -8.5950   35.0926 N   0  0  0  0  0  0  0  0  0  0  0  0
  -14.4183   -7.4674   34.7048 C   0  0  2  0  0  0  0  0  0  0  0  0
  -15.7559   -7.9277   34.1312 C   0  0  0  0  0  0  0  0  0  0  0  0
  -15.8287   -8.9192   33.4018 O   0  0  0  0  0  0  0  0  0  0  0  0
  -13.6844   -6.5472   33.7340 C   0  0  0  0  0  0  0  0  0  0  0  0
  -14.4898   -5.3173   33.3442 C   0  0  0  0  0  0  0  0  0  0  0  0
  -13.6201   -4.2002   32.2164 S   0  0  2  0  0  0  0  0  0  0  0  0
  -12.4199   -3.4582   33.3503 C   0  0  0  0  0  0  0  0  0  0  0  0
  -14.8317   -2.8605   32.0557 C   0  0  0  0  0  0  0  0  0  0  0  0
  -15.8333   -3.2143   30.9658 C   0  0  1  0  0  0  0  0  0  0  0  0
  -15.1552   -3.2388   29.7324 O   0  0  0  0  0  0  0  0  0  0  0  0
  -16.4703   -4.5867   31.0777 C   0  0  1  0  0  0  0  0  0  0  0  0
  -17.7244   -4.5095   31.7180 O   0  0  0  0  0  0  0  0  0  0  0  0
  -16.6499   -4.9993   29.6308 C   0  0  1  0  0  0  0  0  0  0  0  0
  -18.0129   -4.8887   29.3025 O   0  0  0  0  0  0  0  0  0  0  0  0
  -15.8436   -4.0194   28.7891 C   0  0  2  0  0  0  0  0  0  0  0  0
  -16.7911   -7.3110   34.3835 O   0  0  0  0  0  0  0  0  0  0  0  0
  -11.3835   -6.8270   28.7940 N   0  0  0  0  0  0  0  0  0  0  0  0
  -12.0259   -6.2464   29.8698 C   0  0  0  0  0  0  0  0  0  0  0  0
  -13.1972   -5.5353   29.6894 N   0  0  0  0  0  0  0  0  0  0  0  0
  -13.7279   -5.3951   28.4515 C   0  0  0  0  0  0  0  0  0  0  0  0
  -13.1002   -5.9795   27.3584 C   0  0  0  0  0  0  0  0  0  0  0  0
  -11.9209   -6.6936   27.5321 C   0  0  0  0  0  0  0  0  0  0  0  0
  -11.3147   -7.2452   26.4836 N   0  0  0  0  0  0  0  0  0  0  0  0
  -13.8328   -5.6964   26.2598 N   0  0  0  0  0  0  0  0  0  0  0  0
  -14.9101   -4.9668   26.6337 C   0  0  0  0  0  0  0  0  0  0  0  0
  -14.8621   -4.7706   27.9886 N   0  0  0  0  0  0  0  0  0  0  0  0
  2  1  1  6  0  0  0
  2  3  1  0  0  0  0
  2  5  1  0  0  0  0
  3  4  1  0  0  0  0
  3 17  1  0  0  0  0
  5  6  1  0  0  0  0
  7  6  1  1  0  0  0
  7  8  1  0  0  0  0
  7  9  1  0  0  0  0
 10  9  1  1  0  0  0
 10 11  1  0  0  0  0
 10 12  1  0  0  0  0
 11 16  1  0  0  0  0
 12 13  1  6  0  0  0
 12 14  1  0  0  0  0
 14 15  1  6  0  0  0
 14 16  1  0  0  0  0
 16 27  1  6  0  0  0
 18 19  2  0  0  0  0
 18 23  1  0  0  0  0
 19 20  1  0  0  0  0
 20 21  2  0  0  0  0
 21 22  1  0  0  0  0
 21 27  1  0  0  0  0
 22 23  2  0  0  0  0
 22 25  1  0  0  0  0
 23 24  1  0  0  0  0
 25 26  2  0  0  0  0
 26 27  1  0  0  0  0
M  END
>  <CHROM.1>
-38.44110767,-177.28681995,178.93207393,-73.63343141,-85.26425882,-66.20713276
41.21315895,-14.51713738,-5.53265356,30.77199393,-1.85828587,0.59541197,-1.22861946

>  <Name>
ligand

>  <RI>
0

>  <Rbt.Current_Directory>
/home/itssahil/PROJECTS/Mol_Feturizer/New_Systems/rnas/3GX6

>  <Rbt.Executable>
rbdock ($Id: //depot/dev/client3/rdock/2013.1/src/exe/rbdock.cxx#4 $)

>  <Rbt.Library>
libRbt.so (2013.1, Build901 2013/11/27)

>  <Rbt.Parameter_File>
/export/apps/rDock/src/rDock_2013.1_src/data/scripts/dock_solv.prm

>  <Rbt.Receptor>
prm/pocket_docking_4.prm

>  <SCORE>
-23.8892

>  <SCORE.INTER>
-12.3965

>  <SCORE.INTER.CONST>
1

>  <SCORE.INTER.POLAR>
0

>  <SCORE.INTER.ROT>
7

>  <SCORE.INTER.SOLV>
12.085

>  <SCORE.INTER.VDW>
-20.5593

>  <SCORE.INTER.norm>
-0.459129

>  <SCORE.INTRA>
-11.4927

>  <SCORE.INTRA.DIHEDRAL>
-10.791

>  <SCORE.INTRA.DIHEDRAL.0>
15.0182

>  <SCORE.INTRA.POLAR>
0

>  <SCORE.INTRA.POLAR.0>
0

>  <SCORE.INTRA.REPUL>
0

>  <SCORE.INTRA.REPUL.0>
0

>  <SCORE.INTRA.SOLV>
-1.42211

>  <SCORE.INTRA.SOLV.lig_0>
-47.9129

>  <SCORE.INTRA.VDW>
-5.38618

>  <SCORE.INTRA.VDW.0>
2.00851

>  <SCORE.INTRA.norm>
-0.425656

>  <SCORE.RESTR>
0

>  <SCORE.RESTR.CAVITY>
0

>  <SCORE.RESTR.norm>
0

>  <SCORE.SYSTEM>
0

>  <SCORE.SYSTEM.CONST>
0

>  <SCORE.SYSTEM.DIHEDRAL>
0

>  <SCORE.SYSTEM.SOLV>
0

>  <SCORE.SYSTEM.norm>
0

>  <SCORE.heavy>
27

>  <SCORE.norm>
-0.884785

>  <RMSD>
6.400

$$$$
ligand
 OpenBabel11021811483D
libRbt.so/2013.1/901 2013/11/27
 27 29  0  0  0  0  0  0  0  0999 V2000
  -13.5060   -7.8006   35.0415 N   0  0  0  0  0  0  0  0  0  0  0  0
  -14.9125   -8.1396   35.2407 C   0  0  2  0  0  0  0  0  0  0  0  0
  -15.0837   -9.3290   36.1820 C   0  0  0  0  0  0  0  0  0  0  0  0
  -15.4201   -9.1678   37.3572 O   0  0  0  0  0  0  0  0  0  0  0  0
  -15.6084   -8.3834   33.9049 C   0  0  0  0  0  0  0  0  0  0  0  0
  -15.7397   -7.1283   33.0561 C   0  0  0  0  0  0  0  0  0  0  0  0
  -16.8365   -5.8758   33.7666 S   0  0  2  0  0  0  0  0  0  0  0  0
  -18.4480   -6.6460   33.4724 C   0  0  0  0  0  0  0  0  0  0  0  0
  -16.8045   -4.6121   32.4665 C   0  0  0  0  0  0  0  0  0  0  0  0
  -15.4121   -4.0026   32.3896 C   0  0  1  0  0  0  0  0  0  0  0  0
  -14.5220   -4.9892   31.9249 O   0  0  0  0  0  0  0  0  0  0  0  0
  -15.2500   -2.8528   31.4131 C   0  0  1  0  0  0  0  0  0  0  0  0
  -15.3757   -1.6116   32.0707 O   0  0  0  0  0  0  0  0  0  0  0  0
  -13.8331   -3.0316   30.9066 C   0  0  1  0  0  0  0  0  0  0  0  0
  -13.0208   -2.0497   31.5015 O   0  0  0  0  0  0  0  0  0  0  0  0
  -13.3742   -4.4118   31.3572 C   0  0  2  0  0  0  0  0  0  0  0  0
  -14.8828  -10.4766   35.7842 O   0  0  0  0  0  0  0  0  0  0  0  0
  -14.1820   -5.3482   26.2342 N   0  0  0  0  0  0  0  0  0  0  0  0
  -14.8260   -4.4347   27.0451 C   0  0  0  0  0  0  0  0  0  0  0  0
  -14.4892   -4.3195   28.3806 N   0  0  0  0  0  0  0  0  0  0  0  0
  -13.5240   -5.1066   28.9124 C   0  0  0  0  0  0  0  0  0  0  0  0
  -12.8592   -6.0255   28.1098 C   0  0  0  0  0  0  0  0  0  0  0  0
  -13.1946   -6.1484   26.7670 C   0  0  0  0  0  0  0  0  0  0  0  0
  -12.5643   -7.0352   26.0006 N   0  0  0  0  0  0  0  0  0  0  0  0
  -11.9521   -6.6664   28.8779 N   0  0  0  0  0  0  0  0  0  0  0  0
  -12.0162   -6.1649   30.1337 C   0  0  0  0  0  0  0  0  0  0  0  0
  -12.9846   -5.1968   30.1739 N   0  0  0  0  0  0  0  0  0  0  0  0
  2  1  1  6  0  0  0
  2  3  1  0  0  0  0
  2  5  1  0  0  0  0
  3  4  1  0  0  0  0
  3 17  1  0  0  0  0
  5  6  1  0  0  0  0
  7  6  1  6  0  0  0
  7  8  1  0  0  0  0
  7  9  1  0  0  0  0
 10  9  1  6  0  0  0
 10 11  1  0  0  0  0
 10 12  1  0  0  0  0
 11 16  1  0  0  0  0
 12 13  1  1  0  0  0
 12 14  1  0  0  0  0
 14 15  1  1  0  0  0
 14 16  1  0  0  0  0
 16 27  1  6  0  0  0
 18 19  2  0  0  0  0
 18 23  1  0  0  0  0
 19 20  1  0  0  0  0
 20 21  2  0  0  0  0
 21 22  1  0  0  0  0
 21 27  1  0  0  0  0
 22 23  2  0  0  0  0
 22 25  1  0  0  0  0
 23 24  1  0  0  0  0
 25 26  2  0  0  0  0
 26 27  1  0  0  0  0
M  END
>  <CHROM.1>
102.34257078,-67.67411686,-66.26451489,-73.41131729,-67.12022734,67.35252254
81.24172928,-14.61825616,-5.81928578,31.64528760,-2.16185054,1.07864811,-0.60408921

>  <Name>
ligand

>  <RI>
0

>  <Rbt.Current_Directory>
/home/itssahil/PROJECTS/Mol_Feturizer/New_Systems/rnas/3GX6

>  <Rbt.Executable>
rbdock ($Id: //depot/dev/client3/rdock/2013.1/src/exe/rbdock.cxx#4 $)

>  <Rbt.Library>
libRbt.so (2013.1, Build901 2013/11/27)

>  <Rbt.Parameter_File>
/export/apps/rDock/src/rDock_2013.1_src/data/scripts/dock_solv.prm

>  <Rbt.Receptor>
prm/pocket_docking_5.prm

>  <SCORE>
-25.4965

>  <SCORE.INTER>
-16.0689

>  <SCORE.INTER.CONST>
1

>  <SCORE.INTER.POLAR>
0

>  <SCORE.INTER.ROT>
7

>  <SCORE.INTER.SOLV>
14.8

>  <SCORE.INTER.VDW>
-23.9126

>  <SCORE.INTER.norm>
-0.595145

>  <SCORE.INTRA>
-9.42757

>  <SCORE.INTRA.DIHEDRAL>
-11.1712

>  <SCORE.INTRA.DIHEDRAL.0>
15.0182

>  <SCORE.INTRA.POLAR>
0

>  <SCORE.INTRA.POLAR.0>
0

>  <SCORE.INTRA.REPUL>
0

>  <SCORE.INTRA.REPUL.0>
0

>  <SCORE.INTRA.SOLV>
-0.619773

>  <SCORE.INTRA.SOLV.lig_0>
-47.9129

>  <SCORE.INTRA.VDW>
-3.5321

>  <SCORE.INTRA.VDW.0>
2.00851

>  <SCORE.INTRA.norm>
-0.349169

>  <SCORE.RESTR>
0

>  <SCORE.RESTR.CAVITY>
0

>  <SCORE.RESTR.norm>
0

>  <SCORE.SYSTEM>
0

>  <SCORE.SYSTEM.CONST>
0

>  <SCORE.SYSTEM.DIHEDRAL>
0

>  <SCORE.SYSTEM.SOLV>
0

>  <SCORE.SYSTEM.norm>
0

>  <SCORE.heavy>
27

>  <SCORE.norm>
-0.944314

>  <RMSD>
6.419

$$$$
ligand
 OpenBabel11021811483D
libRbt.so/2013.1/901 2013/11/27
 27 29  0  0  0  0  0  0  0  0999 V2000
  -15.7256   -7.7165   34.8401 N   0  0  0  0  0  0  0  0  0  0  0  0
  -14.7966   -7.4578   33.7433 C   0  0  2  0  0  0  0  0  0  0  0  0
  -13.4674   -8.1820   33.9403 C   0  0  0  0  0  0  0  0  0  0  0  0
  -12.6480   -7.7931   34.7756 O   0  0  0  0  0  0  0  0  0  0  0  0
  -14.5892   -5.9590   33.5474 C   0  0  0  0  0  0  0  0  0  0  0  0
  -13.8687   -5.6146   32.2530 C   0  0  0  0  0  0  0  0  0  0  0  0
  -13.5149   -3.8501   32.0595 S   0  0  2  0  0  0  0  0  0  0  0  0
  -12.6067   -3.5276   33.5917 C   0  0  0  0  0  0  0  0  0  0  0  0
  -15.1331   -3.1294   32.4477 C   0  0  0  0  0  0  0  0  0  0  0  0
  -16.1052   -3.4336   31.3169 C   0  0  1  0  0  0  0  0  0  0  0  0
  -15.4043   -3.3588   30.0984 O   0  0  0  0  0  0  0  0  0  0  0  0
  -16.7088   -4.8255   31.3244 C   0  0  1  0  0  0  0  0  0  0  0  0
  -17.9759   -4.8219   31.9433 O   0  0  0  0  0  0  0  0  0  0  0  0
  -16.8513   -5.1443   29.8499 C   0  0  1  0  0  0  0  0  0  0  0  0
  -18.2105   -5.0452   29.5027 O   0  0  0  0  0  0  0  0  0  0  0  0
  -16.0551   -4.0909   29.0917 C   0  0  2  0  0  0  0  0  0  0  0  0
  -13.1855   -9.1696   33.2616 O   0  0  0  0  0  0  0  0  0  0  0  0
  -15.0286   -7.9585   25.6619 N   0  0  0  0  0  0  0  0  0  0  0  0
  -16.2359   -7.6420   26.2527 C   0  0  0  0  0  0  0  0  0  0  0  0
  -16.3294   -6.5868   27.1404 N   0  0  0  0  0  0  0  0  0  0  0  0
  -15.2340   -5.8514   27.4458 C   0  0  0  0  0  0  0  0  0  0  0  0
  -14.0125   -6.1497   26.8546 C   0  0  0  0  0  0  0  0  0  0  0  0
  -13.9109   -7.2109   25.9634 C   0  0  0  0  0  0  0  0  0  0  0  0
  -12.7388   -7.5025   25.4045 N   0  0  0  0  0  0  0  0  0  0  0  0
  -13.1007   -5.2695   27.3209 N   0  0  0  0  0  0  0  0  0  0  0  0
  -13.7175   -4.4175   28.1732 C   0  0  0  0  0  0  0  0  0  0  0  0
  -15.0402   -4.7626   28.2627 N   0  0  0  0  0  0  0  0  0  0  0  0
  2  1  1  1  0  0  0
  2  3  1  0  0  0  0
  2  5  1  0  0  0  0
  3  4  1  0  0  0  0
  3 17  1  0  0  0  0
  5  6  1  0  0  0  0
  7  6  1  1  0  0  0
  7  8  1  0  0  0  0
  7  9  1  0  0  0  0
 10  9  1  1  0  0  0
 10 11  1  0  0  0  0
 10 12  1  0  0  0  0
 11 16  1  0  0  0  0
 12 13  1  1  0  0  0
 12 14  1  0  0  0  0
 14 15  1  6  0  0  0
 14 16  1  0  0  0  0
 16 27  1  6  0  0  0
 18 19  2  0  0  0  0
 18 23  1  0  0  0  0
 19 20  1  0  0  0  0
 20 21  2  0  0  0  0
 21 22  1  0  0  0  0
 21 27  1  0  0  0  0
 22 23  2  0  0  0  0
 22 25  1  0  0  0  0
 23 24  1  0  0  0  0
 25 26  2  0  0  0  0
 26 27  1  0  0  0  0
M  END
>  <CHROM.1>
-73.71265329,-168.07912635,-176.05428963,55.02305444,-70.89198480,-37.26399379
159.67265708,-14.84023318,-5.69161413,30.41640543,-1.39448524,0.98200507
-1.75212495

>  <Name>
ligand

>  <RI>
0

>  <Rbt.Current_Directory>
/home/itssahil/PROJECTS/Mol_Feturizer/New_Systems/rnas/3GX6

>  <Rbt.Executable>
rbdock ($Id: //depot/dev/client3/rdock/2013.1/src/exe/rbdock.cxx#4 $)

>  <Rbt.Library>
libRbt.so (2013.1, Build901 2013/11/27)

>  <Rbt.Parameter_File>
/export/apps/rDock/src/rDock_2013.1_src/data/scripts/dock_solv.prm

>  <Rbt.Receptor>
prm/pocket_docking_3.prm

>  <SCORE>
-18.9285

>  <SCORE.INTER>
-10.2759

>  <SCORE.INTER.CONST>
1

>  <SCORE.INTER.POLAR>
0

>  <SCORE.INTER.ROT>
7

>  <SCORE.INTER.SOLV>
11.0255

>  <SCORE.INTER.VDW>
-18.7924

>  <SCORE.INTER.norm>
-0.380589

>  <SCORE.INTRA>
-8.65257

>  <SCORE.INTRA.DIHEDRAL>
-9.53107

>  <SCORE.INTRA.DIHEDRAL.0>
15.0182

>  <SCORE.INTRA.POLAR>
0

>  <SCORE.INTRA.POLAR.0>
0

>  <SCORE.INTRA.REPUL>
0

>  <SCORE.INTRA.REPUL.0>
0

>  <SCORE.INTRA.SOLV>
-1.31739

>  <SCORE.INTRA.SOLV.lig_0>
-47.9129

>  <SCORE.INTRA.VDW>
-3.22833

>  <SCORE.INTRA.VDW.0>
2.00851

>  <SCORE.INTRA.norm>
-0.320465

>  <SCORE.RESTR>
0

>  <SCORE.RESTR.CAVITY>
0

>  <SCORE.RESTR.norm>
0

>  <SCORE.SYSTEM>
0

>  <SCORE.SYSTEM.CONST>
0

>  <SCORE.SYSTEM.DIHEDRAL>
0

>  <SCORE.SYSTEM.SOLV>
0

>  <SCORE.SYSTEM.norm>
0

>  <SCORE.heavy>
27

>  <SCORE.norm>
-0.701055

>  <RMSD>
6.423

$$$$
ligand
 OpenBabel11021811483D
libRbt.so/2013.1/901 2013/11/27
 27 29  0  0  0  0  0  0  0  0999 V2000
  -18.9523   -8.7829   32.3149 N   0  0  0  0  0  0  0  0  0  0  0  0
  -17.9003   -8.1746   33.1250 C   0  0  2  0  0  0  0  0  0  0  0  0
  -17.8763   -8.7384   34.5433 C   0  0  0  0  0  0  0  0  0  0  0  0
  -18.9052   -8.8055   35.2195 O   0  0  0  0  0  0  0  0  0  0  0  0
  -18.0296   -6.6544   33.1333 C   0  0  0  0  0  0  0  0  0  0  0  0
  -16.8783   -5.9557   33.8399 C   0  0  0  0  0  0  0  0  0  0  0  0
  -15.2731   -6.1980   33.0394 S   0  0  2  0  0  0  0  0  0  0  0  0
  -14.4579   -7.2633   34.2546 C   0  0  0  0  0  0  0  0  0  0  0  0
  -14.4767   -4.6036   33.3742 C   0  0  0  0  0  0  0  0  0  0  0  0
  -14.8219   -3.6238   32.2619 C   0  0  1  0  0  0  0  0  0  0  0  0
  -14.1402   -4.0199   31.0957 O   0  0  0  0  0  0  0  0  0  0  0  0
  -16.2824   -3.5800   31.8532 C   0  0  1  0  0  0  0  0  0  0  0  0
  -16.9581   -2.5308   32.5099 O   0  0  0  0  0  0  0  0  0  0  0  0
  -16.2128   -3.3026   30.3652 C   0  0  1  0  0  0  0  0  0  0  0  0
  -16.5764   -1.9620   30.1451 O   0  0  0  0  0  0  0  0  0  0  0  0
  -14.7644   -3.5117   29.9445 C   0  0  2  0  0  0  0  0  0  0  0  0
  -16.8227   -9.1336   35.0426 O   0  0  0  0  0  0  0  0  0  0  0  0
  -15.8365   -8.4896   28.5858 N   0  0  0  0  0  0  0  0  0  0  0  0
  -16.0665   -7.8689   29.7978 C   0  0  0  0  0  0  0  0  0  0  0  0
  -15.7184   -6.5448   29.9872 N   0  0  0  0  0  0  0  0  0  0  0  0
  -15.1418   -5.8397   28.9851 C   0  0  0  0  0  0  0  0  0  0  0  0
  -14.9106   -6.4450   27.7560 C   0  0  0  0  0  0  0  0  0  0  0  0
  -15.2556   -7.7766   27.5596 C   0  0  0  0  0  0  0  0  0  0  0  0
  -15.0252   -8.3590   26.3853 N   0  0  0  0  0  0  0  0  0  0  0  0
  -14.3411   -5.5288   26.9437 N   0  0  0  0  0  0  0  0  0  0  0  0
  -14.2242   -4.3624   27.6209 C   0  0  0  0  0  0  0  0  0  0  0  0
  -14.7158   -4.5360   28.8877 N   0  0  0  0  0  0  0  0  0  0  0  0
  2  1  1  6  0  0  0
  2  3  1  0  0  0  0
  2  5  1  0  0  0  0
  3  4  1  0  0  0  0
  3 17  1  0  0  0  0
  5  6  1  0  0  0  0
  7  6  1  1  0  0  0
  7  8  1  0  0  0  0
  7  9  1  0  0  0  0
 10  9  1  1  0  0  0
 10 11  1  0  0  0  0
 10 12  1  0  0  0  0
 11 16  1  0  0  0  0
 12 13  1  1  0  0  0
 12 14  1  0  0  0  0
 14 15  1  1  0  0  0
 14 16  1  0  0  0  0
 16 27  1  6  0  0  0
 18 19  2  0  0  0  0
 18 23  1  0  0  0  0
 19 20  1  0  0  0  0
 20 21  2  0  0  0  0
 21 22  1  0  0  0  0
 21 27  1  0  0  0  0
 22 23  2  0  0  0  0
 22 25  1  0  0  0  0
 23 24  1  0  0  0  0
 25 26  2  0  0  0  0
 26 27  1  0  0  0  0
M  END
>  <CHROM.1>
-49.85726355,-173.96354120,63.77509194,-110.10666335,-88.32653655,-70.97601444
53.04236113,-15.94121820,-6.00959163,31.24898044,2.88992652,1.19570679,0.69889498

>  <Name>
ligand

>  <RI>
0

>  <Rbt.Current_Directory>
/home/itssahil/PROJECTS/Mol_Feturizer/New_Systems/rnas/3GX6

>  <Rbt.Executable>
rbdock ($Id: //depot/dev/client3/rdock/2013.1/src/exe/rbdock.cxx#4 $)

>  <Rbt.Library>
libRbt.so (2013.1, Build901 2013/11/27)

>  <Rbt.Parameter_File>
/export/apps/rDock/src/rDock_2013.1_src/data/scripts/dock_solv.prm

>  <Rbt.Receptor>
prm/pocket_docking_5.prm

>  <SCORE>
-18.7369

>  <SCORE.INTER>
-8.2764

>  <SCORE.INTER.CONST>
1

>  <SCORE.INTER.POLAR>
0

>  <SCORE.INTER.ROT>
7

>  <SCORE.INTER.SOLV>
7.95539

>  <SCORE.INTER.VDW>
-16.4361

>  <SCORE.INTER.norm>
-0.306533

>  <SCORE.INTRA>
-10.4605

>  <SCORE.INTRA.DIHEDRAL>
-6.69432

>  <SCORE.INTRA.DIHEDRAL.0>
15.0182

>  <SCORE.INTRA.POLAR>
0

>  <SCORE.INTRA.POLAR.0>
0

>  <SCORE.INTRA.REPUL>
0

>  <SCORE.INTRA.REPUL.0>
0

>  <SCORE.INTRA.SOLV>
-1.22566

>  <SCORE.INTRA.SOLV.lig_0>
-47.9129

>  <SCORE.INTRA.VDW>
-6.50055

>  <SCORE.INTRA.VDW.0>
2.00851

>  <SCORE.INTRA.norm>
-0.387427

>  <SCORE.RESTR>
0

>  <SCORE.RESTR.CAVITY>
0

>  <SCORE.RESTR.norm>
0

>  <SCORE.SYSTEM>
0

>  <SCORE.SYSTEM.CONST>
0

>  <SCORE.SYSTEM.DIHEDRAL>
0

>  <SCORE.SYSTEM.SOLV>
0

>  <SCORE.SYSTEM.norm>
0

>  <SCORE.heavy>
27

>  <SCORE.norm>
-0.693961

>  <RMSD>
6.429

$$$$
ligand
 OpenBabel11021811483D
libRbt.so/2013.1/901 2013/11/27
 27 29  0  0  0  0  0  0  0  0999 V2000
  -13.8328   -5.2020   28.8746 N   0  0  0  0  0  0  0  0  0  0  0  0
  -15.1732   -5.6227   28.4755 C   0  0  2  0  0  0  0  0  0  0  0  0
  -15.4655   -5.2835   27.0162 C   0  0  0  0  0  0  0  0  0  0  0  0
  -15.7753   -6.1616   26.2079 O   0  0  0  0  0  0  0  0  0  0  0  0
  -16.2288   -5.0321   29.4054 C   0  0  0  0  0  0  0  0  0  0  0  0
  -16.0978   -5.5072   30.8442 C   0  0  0  0  0  0  0  0  0  0  0  0
  -17.3618   -4.8383   31.9538 S   0  0  2  0  0  0  0  0  0  0  0  0
  -16.7352   -3.1564   32.1889 C   0  0  0  0  0  0  0  0  0  0  0  0
  -16.8896   -5.6155   33.5227 C   0  0  0  0  0  0  0  0  0  0  0  0
  -17.1545   -7.1121   33.4441 C   0  0  1  0  0  0  0  0  0  0  0  0
  -16.4068   -7.7477   34.4534 O   0  0  0  0  0  0  0  0  0  0  0  0
  -18.5864   -7.5415   33.7031 C   0  0  1  0  0  0  0  0  0  0  0  0
  -19.2895   -7.7082   32.4921 O   0  0  0  0  0  0  0  0  0  0  0  0
  -18.4222   -8.8784   34.3971 C   0  0  1  0  0  0  0  0  0  0  0  0
  -18.7564   -9.8965   33.4863 O   0  0  0  0  0  0  0  0  0  0  0  0
  -16.9531   -9.0002   34.7785 C   0  0  2  0  0  0  0  0  0  0  0  0
  -15.3917   -4.1215   26.6163 O   0  0  0  0  0  0  0  0  0  0  0  0
  -13.8920   -8.7027   39.0583 N   0  0  0  0  0  0  0  0  0  0  0  0
  -13.5652   -8.3893   37.7537 C   0  0  0  0  0  0  0  0  0  0  0  0
  -14.4967   -8.5291   36.7423 N   0  0  0  0  0  0  0  0  0  0  0  0
  -15.7431   -8.9808   37.0186 C   0  0  0  0  0  0  0  0  0  0  0  0
  -16.0926   -9.2929   38.3266 C   0  0  0  0  0  0  0  0  0  0  0  0
  -15.1602   -9.1572   39.3480 C   0  0  0  0  0  0  0  0  0  0  0  0
  -15.4923   -9.4653   40.5993 N   0  0  0  0  0  0  0  0  0  0  0  0
  -17.3782   -9.7064   38.3245 N   0  0  0  0  0  0  0  0  0  0  0  0
  -17.8504   -9.6464   37.0572 C   0  0  0  0  0  0  0  0  0  0  0  0
  -16.8511   -9.1983   36.2341 N   0  0  0  0  0  0  0  0  0  0  0  0
  2  1  1  1  0  0  0
  2  3  1  0  0  0  0
  2  5  1  0  0  0  0
  3  4  1  0  0  0  0
  3 17  1  0  0  0  0
  5  6  1  0  0  0  0
  7  6  1  6  0  0  0
  7  8  1  0  0  0  0
  7  9  1  0  0  0  0
 10  9  1  1  0  0  0
 10 11  1  0  0  0  0
 10 12  1  0  0  0  0
 11 16  1  0  0  0  0
 12 13  1  6  0  0  0
 12 14  1  0  0  0  0
 14 15  1  6  0  0  0
 14 16  1  0  0  0  0
 16 27  1  1  0  0  0
 18 19  2  0  0  0  0
 18 23  1  0  0  0  0
 19 20  1  0  0  0  0
 20 21  2  0  0  0  0
 21 22  1  0  0  0  0
 21 27  1  0  0  0  0
 22 23  2  0  0  0  0
 22 25  1  0  0  0  0
 23 24  1  0  0  0  0
 25 26  2  0  0  0  0
 26 27  1  0  0  0  0
M  END
>  <CHROM.1>
122.10523356,-63.03319192,-178.95229368,-76.44007846,-68.69479381,161.20817590
-47.22856863,-16.41305653,-7.21670916,33.56014188,-1.56682273,0.40175430
1.97536770

>  <Name>
ligand

>  <RI>
0

>  <Rbt.Current_Directory>
/home/itssahil/PROJECTS/Mol_Feturizer/New_Systems/rnas/3GX6

>  <Rbt.Executable>
rbdock ($Id: //depot/dev/client3/rdock/2013.1/src/exe/rbdock.cxx#4 $)

>  <Rbt.Library>
libRbt.so (2013.1, Build901 2013/11/27)

>  <Rbt.Parameter_File>
/export/apps/rDock/src/rDock_2013.1_src/data/scripts/dock_solv.prm

>  <Rbt.Receptor>
prm/pocket_docking_8.prm

>  <SCORE>
-26.3366

>  <SCORE.INTER>
-16.6419

>  <SCORE.INTER.CONST>
1

>  <SCORE.INTER.POLAR>
0

>  <SCORE.INTER.ROT>
7

>  <SCORE.INTER.SOLV>
8.60997

>  <SCORE.INTER.VDW>
-22.2312

>  <SCORE.INTER.norm>
-0.616365

>  <SCORE.INTRA>
-9.69477

>  <SCORE.INTRA.DIHEDRAL>
-10.4345

>  <SCORE.INTRA.DIHEDRAL.0>
15.0182

>  <SCORE.INTRA.POLAR>
0

>  <SCORE.INTRA.POLAR.0>
0

>  <SCORE.INTRA.REPUL>
0

>  <SCORE.INTRA.REPUL.0>
0

>  <SCORE.INTRA.SOLV>
-1.02735

>  <SCORE.INTRA.SOLV.lig_0>
-47.9129

>  <SCORE.INTRA.VDW>
-3.96382

>  <SCORE.INTRA.VDW.0>
2.00851

>  <SCORE.INTRA.norm>
-0.359066

>  <SCORE.RESTR>
0

>  <SCORE.RESTR.CAVITY>
0

>  <SCORE.RESTR.norm>
0

>  <SCORE.SYSTEM>
0

>  <SCORE.SYSTEM.CONST>
0

>  <SCORE.SYSTEM.DIHEDRAL>
0

>  <SCORE.SYSTEM.SOLV>
0

>  <SCORE.SYSTEM.norm>
0

>  <SCORE.heavy>
27

>  <SCORE.norm>
-0.975431

>  <RMSD>
6.434

$$$$
ligand
 OpenBabel11021811483D
libRbt.so/2013.1/901 2013/11/27
 27 29  0  0  0  0  0  0  0  0999 V2000
  -16.5807   -6.2311   27.6484 N   0  0  0  0  0  0  0  0  0  0  0  0
  -16.2588   -4.8073   27.6001 C   0  0  2  0  0  0  0  0  0  0  0  0
  -14.7607   -4.5678   27.4318 C   0  0  0  0  0  0  0  0  0  0  0  0
  -14.1374   -3.8535   28.2202 O   0  0  0  0  0  0  0  0  0  0  0  0
  -16.8026   -4.0841   28.8285 C   0  0  0  0  0  0  0  0  0  0  0  0
  -16.4046   -4.7423   30.1405 C   0  0  0  0  0  0  0  0  0  0  0  0
  -17.2852   -4.0923   31.5822 S   0  0  2  0  0  0  0  0  0  0  0  0
  -16.3806   -2.5474   31.8501 C   0  0  0  0  0  0  0  0  0  0  0  0
  -16.6049   -5.1350   32.9007 C   0  0  0  0  0  0  0  0  0  0  0  0
  -17.0564   -6.5731   32.6900 C   0  0  1  0  0  0  0  0  0  0  0  0
  -16.3322   -7.3981   33.5713 O   0  0  0  0  0  0  0  0  0  0  0  0
  -18.5117   -6.8595   33.0092 C   0  0  1  0  0  0  0  0  0  0  0  0
  -19.3027   -6.8095   31.8428 O   0  0  0  0  0  0  0  0  0  0  0  0
  -18.4711   -8.2746   33.5495 C   0  0  1  0  0  0  0  0  0  0  0  0
  -18.9832   -9.1408   32.5671 O   0  0  0  0  0  0  0  0  0  0  0  0
  -17.0076   -8.6070   33.8069 C   0  0  2  0  0  0  0  0  0  0  0  0
  -14.1451   -5.0821   26.4978 O   0  0  0  0  0  0  0  0  0  0  0  0
  -19.3660   -9.4183   38.4496 N   0  0  0  0  0  0  0  0  0  0  0  0
  -19.9466   -9.0506   37.2518 C   0  0  0  0  0  0  0  0  0  0  0  0
  -19.1734   -8.8764   36.1195 N   0  0  0  0  0  0  0  0  0  0  0  0
  -17.8328   -9.0603   36.1724 C   0  0  0  0  0  0  0  0  0  0  0  0
  -17.2321   -9.4388   37.3667 C   0  0  0  0  0  0  0  0  0  0  0  0
  -18.0031   -9.6131   38.5096 C   0  0  0  0  0  0  0  0  0  0  0  0
  -17.4263   -9.9663   39.6557 N   0  0  0  0  0  0  0  0  0  0  0  0
  -15.9058   -9.5599   37.1432 N   0  0  0  0  0  0  0  0  0  0  0  0
  -15.6592   -9.2856   35.8407 C   0  0  0  0  0  0  0  0  0  0  0  0
  -16.8418   -8.9743   35.2232 N   0  0  0  0  0  0  0  0  0  0  0  0
  2  1  1  1  0  0  0
  2  3  1  0  0  0  0
  2  5  1  0  0  0  0
  3  4  1  0  0  0  0
  3 17  1  0  0  0  0
  5  6  1  0  0  0  0
  7  6  1  6  0  0  0
  7  8  1  0  0  0  0
  7  9  1  0  0  0  0
 10  9  1  1  0  0  0
 10 11  1  0  0  0  0
 10 12  1  0  0  0  0
 11 16  1  0  0  0  0
 12 13  1  6  0  0  0
 12 14  1  0  0  0  0
 14 15  1  6  0  0  0
 14 16  1  0  0  0  0
 16 27  1  1  0  0  0
 18 19  2  0  0  0  0
 18 23  1  0  0  0  0
 19 20  1  0  0  0  0
 20 21  2  0  0  0  0
 21 22  1  0  0  0  0
 21 27  1  0  0  0  0
 22 23  2  0  0  0  0
 22 25  1  0  0  0  0
 23 24  1  0  0  0  0
 25 26  2  0  0  0  0
 26 27  1  0  0  0  0
M  END
>  <CHROM.1>
-125.59442821,51.48706608,-169.13465195,-78.18448882,-66.57192393,169.60042401
115.24525187,-17.11005107,-6.90256998,32.96509147,-1.33899405,-0.31702563
2.15705001

>  <Name>
ligand

>  <RI>
0

>  <Rbt.Current_Directory>
/home/itssahil/PROJECTS/Mol_Feturizer/New_Systems/rnas/3GX6

>  <Rbt.Executable>
rbdock ($Id: //depot/dev/client3/rdock/2013.1/src/exe/rbdock.cxx#4 $)

>  <Rbt.Library>
libRbt.so (2013.1, Build901 2013/11/27)

>  <Rbt.Parameter_File>
/export/apps/rDock/src/rDock_2013.1_src/data/scripts/dock_solv.prm

>  <Rbt.Receptor>
prm/pocket_docking_8.prm

>  <SCORE>
-21.4218

>  <SCORE.INTER>
-13.0416

>  <SCORE.INTER.CONST>
1

>  <SCORE.INTER.POLAR>
0

>  <SCORE.INTER.ROT>
7

>  <SCORE.INTER.SOLV>
10.3162

>  <SCORE.INTER.VDW>
-20.3998

>  <SCORE.INTER.norm>
-0.483021

>  <SCORE.INTRA>
-8.38027

>  <SCORE.INTRA.DIHEDRAL>
-10.4257

>  <SCORE.INTRA.DIHEDRAL.0>
15.0182

>  <SCORE.INTRA.POLAR>
0

>  <SCORE.INTRA.POLAR.0>
0

>  <SCORE.INTRA.REPUL>
0

>  <SCORE.INTRA.REPUL.0>
0

>  <SCORE.INTRA.SOLV>
-0.825726

>  <SCORE.INTRA.SOLV.lig_0>
-47.9129

>  <SCORE.INTRA.VDW>
-2.75455

>  <SCORE.INTRA.VDW.0>
2.00851

>  <SCORE.INTRA.norm>
-0.31038

>  <SCORE.RESTR>
0

>  <SCORE.RESTR.CAVITY>
0

>  <SCORE.RESTR.norm>
0

>  <SCORE.SYSTEM>
0

>  <SCORE.SYSTEM.CONST>
0

>  <SCORE.SYSTEM.DIHEDRAL>
0

>  <SCORE.SYSTEM.SOLV>
0

>  <SCORE.SYSTEM.norm>
0

>  <SCORE.heavy>
27

>  <SCORE.norm>
-0.793401

>  <RMSD>
6.441

$$$$
ligand
 OpenBabel11021811483D
libRbt.so/2013.1/901 2013/11/27
 27 29  0  0  0  0  0  0  0  0999 V2000
  -14.6354   -8.5060   33.4098 N   0  0  0  0  0  0  0  0  0  0  0  0
  -13.4362   -7.9735   34.0513 C   0  0  2  0  0  0  0  0  0  0  0  0
  -13.6359   -7.7688   35.5507 C   0  0  0  0  0  0  0  0  0  0  0  0
  -14.5443   -8.3418   36.1563 O   0  0  0  0  0  0  0  0  0  0  0  0
  -12.9803   -6.6864   33.3705 C   0  0  0  0  0  0  0  0  0  0  0  0
  -14.0838   -5.6472   33.2462 C   0  0  0  0  0  0  0  0  0  0  0  0
  -13.6098   -4.1878   32.2861 S   0  0  2  0  0  0  0  0  0  0  0  0
  -12.4717   -3.3884   33.4446 C   0  0  0  0  0  0  0  0  0  0  0  0
  -15.0895   -3.1564   32.4735 C   0  0  0  0  0  0  0  0  0  0  0  0
  -16.0883   -3.5035   31.3790 C   0  0  1  0  0  0  0  0  0  0  0  0
  -15.4400   -3.3875   30.1349 O   0  0  0  0  0  0  0  0  0  0  0  0
  -16.6206   -4.9241   31.4002 C   0  0  1  0  0  0  0  0  0  0  0  0
  -17.8613   -4.9875   32.0676 O   0  0  0  0  0  0  0  0  0  0  0  0
  -16.8042   -5.2425   29.9302 C   0  0  1  0  0  0  0  0  0  0  0  0
  -18.1791   -5.2102   29.6363 O   0  0  0  0  0  0  0  0  0  0  0  0
  -16.0919   -4.1465   29.1490 C   0  0  2  0  0  0  0  0  0  0  0  0
  -12.8927   -7.0199   36.1851 O   0  0  0  0  0  0  0  0  0  0  0  0
  -11.6050   -6.8976   28.8760 N   0  0  0  0  0  0  0  0  0  0  0  0
  -12.2874   -6.4906   30.0055 C   0  0  0  0  0  0  0  0  0  0  0  0
  -13.4598   -5.7668   29.8963 N   0  0  0  0  0  0  0  0  0  0  0  0
  -13.9523   -5.4433   28.6770 C   0  0  0  0  0  0  0  0  0  0  0  0
  -13.2840   -5.8516   27.5293 C   0  0  0  0  0  0  0  0  0  0  0  0
  -12.1034   -6.5772   27.6318 C   0  0  0  0  0  0  0  0  0  0  0  0
  -11.4583   -6.9600   26.5325 N   0  0  0  0  0  0  0  0  0  0  0  0
  -13.9841   -5.4091   26.4627 N   0  0  0  0  0  0  0  0  0  0  0  0
  -15.0803   -4.7507   26.9070 C   0  0  0  0  0  0  0  0  0  0  0  0
  -15.0776   -4.7621   28.2769 N   0  0  0  0  0  0  0  0  0  0  0  0
  2  1  1  6  0  0  0
  2  3  1  0  0  0  0
  2  5  1  0  0  0  0
  3  4  1  0  0  0  0
  3 17  1  0  0  0  0
  5  6  1  0  0  0  0
  7  6  1  1  0  0  0
  7  8  1  0  0  0  0
  7  9  1  0  0  0  0
 10  9  1  1  0  0  0
 10 11  1  0  0  0  0
 10 12  1  0  0  0  0
 11 16  1  0  0  0  0
 12 13  1  1  0  0  0
 12 14  1  0  0  0  0
 14 15  1  6  0  0  0
 14 16  1  0  0  0  0
 16 27  1  6  0  0  0
 18 19  2  0  0  0  0
 18 23  1  0  0  0  0
 19 20  1  0  0  0  0
 20 21  2  0  0  0  0
 21 22  1  0  0  0  0
 21 27  1  0  0  0  0
 22 23  2  0  0  0  0
 22 25  1  0  0  0  0
 23 24  1  0  0  0  0
 25 26  2  0  0  0  0
 26 27  1  0  0  0  0
M  END
>  <CHROM.1>
18.99024186,52.35218075,-173.81698329,-71.86246596,-87.68999419,-54.14913295
47.84323418,-14.33348270,-5.58656881,31.07664392,-1.52452430,0.54871873,-1.38619044

>  <Name>
ligand

>  <RI>
0

>  <Rbt.Current_Directory>
/home/itssahil/PROJECTS/Mol_Feturizer/New_Systems/rnas/3GX6

>  <Rbt.Executable>
rbdock ($Id: //depot/dev/client3/rdock/2013.1/src/exe/rbdock.cxx#4 $)

>  <Rbt.Library>
libRbt.so (2013.1, Build901 2013/11/27)

>  <Rbt.Parameter_File>
/export/apps/rDock/src/rDock_2013.1_src/data/scripts/dock_solv.prm

>  <Rbt.Receptor>
prm/pocket_docking_3.prm

>  <SCORE>
-24.8878

>  <SCORE.INTER>
-14.0619

>  <SCORE.INTER.CONST>
1

>  <SCORE.INTER.POLAR>
0

>  <SCORE.INTER.ROT>
7

>  <SCORE.INTER.SOLV>
10.6688

>  <SCORE.INTER.VDW>
-21.1976

>  <SCORE.INTER.norm>
-0.520812

>  <SCORE.INTRA>
-10.8259

>  <SCORE.INTRA.DIHEDRAL>
-10.2431

>  <SCORE.INTRA.DIHEDRAL.0>
15.0182

>  <SCORE.INTRA.POLAR>
0

>  <SCORE.INTRA.POLAR.0>
0

>  <SCORE.INTRA.REPUL>
0

>  <SCORE.INTRA.REPUL.0>
0

>  <SCORE.INTRA.SOLV>
-0.688047

>  <SCORE.INTRA.SOLV.lig_0>
-47.9129

>  <SCORE.INTRA.VDW>
-5.36033

>  <SCORE.INTRA.VDW.0>
2.00851

>  <SCORE.INTRA.norm>
-0.400959

>  <SCORE.RESTR>
0

>  <SCORE.RESTR.CAVITY>
0

>  <SCORE.RESTR.norm>
0

>  <SCORE.SYSTEM>
0

>  <SCORE.SYSTEM.CONST>
0

>  <SCORE.SYSTEM.DIHEDRAL>
0

>  <SCORE.SYSTEM.SOLV>
0

>  <SCORE.SYSTEM.norm>
0

>  <SCORE.heavy>
27

>  <SCORE.norm>
-0.921771

>  <RMSD>
6.445

$$$$
ligand
 OpenBabel11021811483D
libRbt.so/2013.1/901 2013/11/27
 27 29  0  0  0  0  0  0  0  0999 V2000
  -16.3186  -10.1831   28.5543 N   0  0  0  0  0  0  0  0  0  0  0  0
  -15.1942   -9.3976   28.0529 C   0  0  2  0  0  0  0  0  0  0  0  0
  -13.9628  -10.2634   27.7998 C   0  0  0  0  0  0  0  0  0  0  0  0
  -13.4721  -10.3588   26.6726 O   0  0  0  0  0  0  0  0  0  0  0  0
  -14.8756   -8.2401   28.9945 C   0  0  0  0  0  0  0  0  0  0  0  0
  -14.5221   -8.6897   30.4037 C   0  0  0  0  0  0  0  0  0  0  0  0
  -14.0167   -7.3390   31.4977 S   0  0  2  0  0  0  0  0  0  0  0  0
  -12.4304   -6.8884   30.7513 C   0  0  0  0  0  0  0  0  0  0  0  0
  -13.4713   -8.2645   32.9587 C   0  0  0  0  0  0  0  0  0  0  0  0
  -14.6811   -8.8817   33.6455 C   0  0  1  0  0  0  0  0  0  0  0  0
  -14.2697   -9.3948   34.8902 O   0  0  0  0  0  0  0  0  0  0  0  0
  -15.8072   -7.9224   33.9822 C   0  0  1  0  0  0  0  0  0  0  0  0
  -16.8025   -7.9431   32.9834 O   0  0  0  0  0  0  0  0  0  0  0  0
  -16.3586   -8.4835   35.2772 C   0  0  1  0  0  0  0  0  0  0  0  0
  -17.5839   -9.1166   35.0018 O   0  0  0  0  0  0  0  0  0  0  0  0
  -15.3546   -9.5148   35.7743 C   0  0  2  0  0  0  0  0  0  0  0  0
  -13.4375  -10.8898   28.7203 O   0  0  0  0  0  0  0  0  0  0  0  0
  -16.6676   -8.9539   40.8475 N   0  0  0  0  0  0  0  0  0  0  0  0
  -17.4647   -9.3793   39.8032 C   0  0  0  0  0  0  0  0  0  0  0  0
  -16.9565   -9.4671   38.5209 N   0  0  0  0  0  0  0  0  0  0  0  0
  -15.6684   -9.1316   38.2718 C   0  0  0  0  0  0  0  0  0  0  0  0
  -14.8489   -8.7097   39.3114 C   0  0  0  0  0  0  0  0  0  0  0  0
  -15.3541   -8.6165   40.6026 C   0  0  0  0  0  0  0  0  0  0  0  0
  -14.5716   -8.2032   41.5966 N   0  0  0  0  0  0  0  0  0  0  0  0
  -13.6278   -8.4492   38.7969 N   0  0  0  0  0  0  0  0  0  0  0  0
  -13.6523   -8.7117   37.4690 C   0  0  0  0  0  0  0  0  0  0  0  0
  -14.9087   -9.1362   37.1257 N   0  0  0  0  0  0  0  0  0  0  0  0
  2  1  1  1  0  0  0
  2  3  1  0  0  0  0
  2  5  1  0  0  0  0
  3  4  1  0  0  0  0
  3 17  1  0  0  0  0
  5  6  1  0  0  0  0
  7  6  1  6  0  0  0
  7  8  1  0  0  0  0
  7  9  1  0  0  0  0
 10  9  1  1  0  0  0
 10 11  1  0  0  0  0
 10 12  1  0  0  0  0
 11 16  1  0  0  0  0
 12 13  1  6  0  0  0
 12 14  1  0  0  0  0
 14 15  1  6  0  0  0
 14 16  1  0  0  0  0
 16 27  1  1  0  0  0
 18 19  2  0  0  0  0
 18 23  1  0  0  0  0
 19 20  1  0  0  0  0
 20 21  2  0  0  0  0
 21 22  1  0  0  0  0
 21 27  1  0  0  0  0
 22 23  2  0  0  0  0
 22 25  1  0  0  0  0
 23 24  1  0  0  0  0
 25 26  2  0  0  0  0
 26 27  1  0  0  0  0
M  END
>  <CHROM.1>
119.07330443,59.17245540,175.49318237,-68.80075502,-70.13035893,-170.00473375
-179.38038153,-14.98551961,-8.84056307,34.09492618,1.43679745,-0.35344276
-1.65763847

>  <Name>
ligand

>  <RI>
0

>  <Rbt.Current_Directory>
/home/itssahil/PROJECTS/Mol_Feturizer/New_Systems/rnas/3GX6

>  <Rbt.Executable>
rbdock ($Id: //depot/dev/client3/rdock/2013.1/src/exe/rbdock.cxx#4 $)

>  <Rbt.Library>
libRbt.so (2013.1, Build901 2013/11/27)

>  <Rbt.Parameter_File>
/export/apps/rDock/src/rDock_2013.1_src/data/scripts/dock_solv.prm

>  <Rbt.Receptor>
prm/pocket_docking_7.prm

>  <SCORE>
-23.0091

>  <SCORE.INTER>
-12.9718

>  <SCORE.INTER.CONST>
1

>  <SCORE.INTER.POLAR>
0

>  <SCORE.INTER.ROT>
7

>  <SCORE.INTER.SOLV>
14.5108

>  <SCORE.INTER.VDW>
-21.7515

>  <SCORE.INTER.norm>
-0.480438

>  <SCORE.INTRA>
-10.0373

>  <SCORE.INTRA.DIHEDRAL>
-11.3813

>  <SCORE.INTRA.DIHEDRAL.0>
15.0182

>  <SCORE.INTRA.POLAR>
0

>  <SCORE.INTRA.POLAR.0>
0

>  <SCORE.INTRA.REPUL>
0

>  <SCORE.INTRA.REPUL.0>
0

>  <SCORE.INTRA.SOLV>
-0.839684

>  <SCORE.INTRA.SOLV.lig_0>
-47.9129

>  <SCORE.INTRA.VDW>
-3.92685

>  <SCORE.INTRA.VDW.0>
2.00851

>  <SCORE.INTRA.norm>
-0.371752

>  <SCORE.RESTR>
0

>  <SCORE.RESTR.CAVITY>
0

>  <SCORE.RESTR.norm>
0

>  <SCORE.SYSTEM>
0

>  <SCORE.SYSTEM.CONST>
0

>  <SCORE.SYSTEM.DIHEDRAL>
0

>  <SCORE.SYSTEM.SOLV>
0

>  <SCORE.SYSTEM.norm>
0

>  <SCORE.heavy>
27

>  <SCORE.norm>
-0.85219

>  <RMSD>
6.445

$$$$
ligand
 OpenBabel11021811483D
libRbt.so/2013.1/901 2013/11/27
 27 29  0  0  0  0  0  0  0  0999 V2000
  -12.5029   -7.8520   35.2221 N   0  0  0  0  0  0  0  0  0  0  0  0
  -13.9006   -7.4417   35.1179 C   0  0  2  0  0  0  0  0  0  0  0  0
  -14.8505   -8.6348   35.1828 C   0  0  0  0  0  0  0  0  0  0  0  0
  -14.5165   -9.7392   34.7480 O   0  0  0  0  0  0  0  0  0  0  0  0
  -14.1328   -6.6145   33.8570 C   0  0  0  0  0  0  0  0  0  0  0  0
  -13.3152   -5.3327   33.8184 C   0  0  0  0  0  0  0  0  0  0  0  0
  -13.4294   -4.4388   32.2486 S   0  0  2  0  0  0  0  0  0  0  0  0
  -12.1103   -3.2189   32.4691 C   0  0  0  0  0  0  0  0  0  0  0  0
  -14.9038   -3.4231   32.5367 C   0  0  0  0  0  0  0  0  0  0  0  0
  -15.9112   -3.6691   31.4227 C   0  0  1  0  0  0  0  0  0  0  0  0
  -15.2530   -3.5134   30.1881 O   0  0  0  0  0  0  0  0  0  0  0  0
  -16.5021   -5.0653   31.3660 C   0  0  1  0  0  0  0  0  0  0  0  0
  -17.7473   -5.1127   32.0261 O   0  0  0  0  0  0  0  0  0  0  0  0
  -16.6919   -5.2962   29.8806 C   0  0  1  0  0  0  0  0  0  0  0  0
  -18.0630   -5.1910   29.5857 O   0  0  0  0  0  0  0  0  0  0  0  0
  -15.9313   -4.1905   29.1613 C   0  0  2  0  0  0  0  0  0  0  0  0
  -15.9754   -8.5143   35.6683 O   0  0  0  0  0  0  0  0  0  0  0  0
  -11.4772   -6.9784   28.7558 N   0  0  0  0  0  0  0  0  0  0  0  0
  -12.1345   -6.5850   29.9049 C   0  0  0  0  0  0  0  0  0  0  0  0
  -13.3016   -5.8484   29.8305 N   0  0  0  0  0  0  0  0  0  0  0  0
  -13.8135   -5.4987   28.6265 C   0  0  0  0  0  0  0  0  0  0  0  0
  -13.1707   -5.8929   27.4595 C   0  0  0  0  0  0  0  0  0  0  0  0
  -11.9955   -6.6313   27.5270 C   0  0  0  0  0  0  0  0  0  0  0  0
  -11.3748   -7.0006   26.4092 N   0  0  0  0  0  0  0  0  0  0  0  0
  -13.8862   -5.4250   26.4142 N   0  0  0  0  0  0  0  0  0  0  0  0
  -14.9675   -4.7643   26.8904 C   0  0  0  0  0  0  0  0  0  0  0  0
  -14.9394   -4.8000   28.2596 N   0  0  0  0  0  0  0  0  0  0  0  0
  2  1  1  6  0  0  0
  2  3  1  0  0  0  0
  2  5  1  0  0  0  0
  3  4  1  0  0  0  0
  3 17  1  0  0  0  0
  5  6  1  0  0  0  0
  7  6  1  1  0  0  0
  7  8  1  0  0  0  0
  7  9  1  0  0  0  0
 10  9  1  1  0  0  0
 10 11  1  0  0  0  0
 10 12  1  0  0  0  0
 11 16  1  0  0  0  0
 12 13  1  1  0  0  0
 12 14  1  0  0  0  0
 14 15  1  1  0  0  0
 14 16  1  0  0  0  0
 16 27  1  6  0  0  0
 18 19  2  0  0  0  0
 18 23  1  0  0  0  0
 19 20  1  0  0  0  0
 20 21  2  0  0  0  0
 21 22  1  0  0  0  0
 21 27  1  0  0  0  0
 22 23  2  0  0  0  0
 22 25  1  0  0  0  0
 23 24  1  0  0  0  0
 25 26  2  0  0  0  0
 26 27  1  0  0  0  0
M  END
>  <CHROM.1>
-31.36913847,-60.89211362,173.18762010,-169.13903333,-125.18456192,-51.14680734
44.79495492,-14.33639165,-5.74049099,31.06017517,-1.68320910,0.52446839,-1.23193101

>  <Name>
ligand

>  <RI>
0

>  <Rbt.Current_Directory>
/home/itssahil/PROJECTS/Mol_Feturizer/New_Systems/rnas/3GX6

>  <Rbt.Executable>
rbdock ($Id: //depot/dev/client3/rdock/2013.1/src/exe/rbdock.cxx#4 $)

>  <Rbt.Library>
libRbt.so (2013.1, Build901 2013/11/27)

>  <Rbt.Parameter_File>
/export/apps/rDock/src/rDock_2013.1_src/data/scripts/dock_solv.prm

>  <Rbt.Receptor>
prm/pocket_docking_4.prm

>  <SCORE>
-21.6266

>  <SCORE.INTER>
-12.3125

>  <SCORE.INTER.CONST>
1

>  <SCORE.INTER.POLAR>
0

>  <SCORE.INTER.ROT>
7

>  <SCORE.INTER.SOLV>
15.3271

>  <SCORE.INTER.VDW>
-21.584

>  <SCORE.INTER.norm>
-0.456017

>  <SCORE.INTRA>
-9.31416

>  <SCORE.INTRA.DIHEDRAL>
-6.06674

>  <SCORE.INTRA.DIHEDRAL.0>
15.0182

>  <SCORE.INTRA.POLAR>
0

>  <SCORE.INTRA.POLAR.0>
0

>  <SCORE.INTRA.REPUL>
0

>  <SCORE.INTRA.REPUL.0>
0

>  <SCORE.INTRA.SOLV>
-0.834975

>  <SCORE.INTRA.SOLV.lig_0>
-47.9129

>  <SCORE.INTRA.VDW>
-5.8633

>  <SCORE.INTRA.VDW.0>
2.00851

>  <SCORE.INTRA.norm>
-0.344969

>  <SCORE.RESTR>
0

>  <SCORE.RESTR.CAVITY>
0

>  <SCORE.RESTR.norm>
0

>  <SCORE.SYSTEM>
0

>  <SCORE.SYSTEM.CONST>
0

>  <SCORE.SYSTEM.DIHEDRAL>
0

>  <SCORE.SYSTEM.SOLV>
0

>  <SCORE.SYSTEM.norm>
0

>  <SCORE.heavy>
27

>  <SCORE.norm>
-0.800986

>  <RMSD>
6.454

$$$$
ligand
 OpenBabel11021811483D
libRbt.so/2013.1/901 2013/11/27
 27 29  0  0  0  0  0  0  0  0999 V2000
  -14.6914   -8.4943   33.4749 N   0  0  0  0  0  0  0  0  0  0  0  0
  -13.4815   -8.0005   34.1268 C   0  0  2  0  0  0  0  0  0  0  0  0
  -13.6765   -7.8245   35.6305 C   0  0  0  0  0  0  0  0  0  0  0  0
  -14.6180   -8.3620   36.2179 O   0  0  0  0  0  0  0  0  0  0  0  0
  -12.9997   -6.7084   33.4739 C   0  0  0  0  0  0  0  0  0  0  0  0
  -14.0887   -5.6541   33.3490 C   0  0  0  0  0  0  0  0  0  0  0  0
  -13.6080   -4.2197   32.3551 S   0  0  2  0  0  0  0  0  0  0  0  0
  -12.4314   -3.4230   33.4765 C   0  0  0  0  0  0  0  0  0  0  0  0
  -15.0642   -3.1577   32.5558 C   0  0  0  0  0  0  0  0  0  0  0  0
  -16.0645   -3.4589   31.4490 C   0  0  1  0  0  0  0  0  0  0  0  0
  -15.4058   -3.3355   30.2111 O   0  0  0  0  0  0  0  0  0  0  0  0
  -16.6321   -4.8659   31.4399 C   0  0  1  0  0  0  0  0  0  0  0  0
  -17.8780   -4.9110   32.0988 O   0  0  0  0  0  0  0  0  0  0  0  0
  -16.8143   -5.1515   29.9630 C   0  0  1  0  0  0  0  0  0  0  0  0
  -18.1862   -5.0794   29.6619 O   0  0  0  0  0  0  0  0  0  0  0  0
  -16.0702   -4.0590   29.2071 C   0  0  2  0  0  0  0  0  0  0  0  0
  -12.8960   -7.1347   36.2868 O   0  0  0  0  0  0  0  0  0  0  0  0
  -11.7305   -7.0335   28.9006 N   0  0  0  0  0  0  0  0  0  0  0  0
  -12.4215   -6.6490   30.0327 C   0  0  0  0  0  0  0  0  0  0  0  0
  -13.5501   -5.8575   29.9329 N   0  0  0  0  0  0  0  0  0  0  0  0
  -13.9903   -5.4446   28.7206 C   0  0  0  0  0  0  0  0  0  0  0  0
  -13.3129   -5.8286   27.5699 C   0  0  0  0  0  0  0  0  0  0  0  0
  -12.1759   -6.6221   27.6632 C   0  0  0  0  0  0  0  0  0  0  0  0
  -11.5217   -6.9819   26.5616 N   0  0  0  0  0  0  0  0  0  0  0  0
  -13.9582   -5.2937   26.5112 N   0  0  0  0  0  0  0  0  0  0  0  0
  -15.0298   -4.6002   26.9622 C   0  0  0  0  0  0  0  0  0  0  0  0
  -15.0661   -4.6830   28.3292 N   0  0  0  0  0  0  0  0  0  0  0  0
  2  1  1  6  0  0  0
  2  3  1  0  0  0  0
  2  5  1  0  0  0  0
  3  4  1  0  0  0  0
  3 17  1  0  0  0  0
  5  6  1  0  0  0  0
  7  6  1  1  0  0  0
  7  8  1  0  0  0  0
  7  9  1  0  0  0  0
 10  9  1  1  0  0  0
 10 11  1  0  0  0  0
 10 12  1  0  0  0  0
 11 16  1  0  0  0  0
 12 13  1  1  0  0  0
 12 14  1  0  0  0  0
 14 15  1  6  0  0  0
 14 16  1  0  0  0  0
 16 27  1  6  0  0  0
 18 19  2  0  0  0  0
 18 23  1  0  0  0  0
 19 20  1  0  0  0  0
 20 21  2  0  0  0  0
 21 22  1  0  0  0  0
 21 27  1  0  0  0  0
 22 23  2  0  0  0  0
 22 25  1  0  0  0  0
 23 24  1  0  0  0  0
 25 26  2  0  0  0  0
 26 27  1  0  0  0  0
M  END
>  <CHROM.1>
16.95370767,51.25288088,-171.13239655,-71.56176914,-90.30256344,-54.03794725
50.65320212,-14.35398868,-5.58222962,31.13300316,-1.51837186,0.58523247,-1.37676668

>  <Name>
ligand

>  <RI>
0

>  <Rbt.Current_Directory>
/home/itssahil/PROJECTS/Mol_Feturizer/New_Systems/rnas/3GX6

>  <Rbt.Executable>
rbdock ($Id: //depot/dev/client3/rdock/2013.1/src/exe/rbdock.cxx#4 $)

>  <Rbt.Library>
libRbt.so (2013.1, Build901 2013/11/27)

>  <Rbt.Parameter_File>
/export/apps/rDock/src/rDock_2013.1_src/data/scripts/dock_solv.prm

>  <Rbt.Receptor>
prm/pocket_docking_3.prm

>  <SCORE>
-24.6861

>  <SCORE.INTER>
-13.9581

>  <SCORE.INTER.CONST>
1

>  <SCORE.INTER.POLAR>
0

>  <SCORE.INTER.ROT>
7

>  <SCORE.INTER.SOLV>
10.5309

>  <SCORE.INTER.VDW>
-21.0823

>  <SCORE.INTER.norm>
-0.516965

>  <SCORE.INTRA>
-10.728

>  <SCORE.INTRA.DIHEDRAL>
-9.76655

>  <SCORE.INTRA.DIHEDRAL.0>
15.0182

>  <SCORE.INTRA.POLAR>
0

>  <SCORE.INTRA.POLAR.0>
0

>  <SCORE.INTRA.REPUL>
0

>  <SCORE.INTRA.REPUL.0>
0

>  <SCORE.INTRA.SOLV>
-0.694335

>  <SCORE.INTRA.SOLV.lig_0>
-47.9129

>  <SCORE.INTRA.VDW>
-5.49759

>  <SCORE.INTRA.VDW.0>
2.00851

>  <SCORE.INTRA.norm>
-0.397335

>  <SCORE.RESTR>
0

>  <SCORE.RESTR.CAVITY>
0

>  <SCORE.RESTR.norm>
0

>  <SCORE.SYSTEM>
0

>  <SCORE.SYSTEM.CONST>
0

>  <SCORE.SYSTEM.DIHEDRAL>
0

>  <SCORE.SYSTEM.SOLV>
0

>  <SCORE.SYSTEM.norm>
0

>  <SCORE.heavy>
27

>  <SCORE.norm>
-0.9143

>  <RMSD>
6.458

$$$$
ligand
 OpenBabel11021811483D
libRbt.so/2013.1/901 2013/11/27
 27 29  0  0  0  0  0  0  0  0999 V2000
  -15.0654   -8.3784   33.1058 N   0  0  0  0  0  0  0  0  0  0  0  0
  -14.1711   -7.2252   33.1638 C   0  0  2  0  0  0  0  0  0  0  0  0
  -13.0018   -7.4590   34.1166 C   0  0  0  0  0  0  0  0  0  0  0  0
  -13.1375   -8.1379   35.1369 O   0  0  0  0  0  0  0  0  0  0  0  0
  -14.9394   -5.9581   33.5273 C   0  0  0  0  0  0  0  0  0  0  0  0
  -14.0704   -4.7100   33.5419 C   0  0  0  0  0  0  0  0  0  0  0  0
  -13.6925   -4.0621   31.8946 S   0  0  2  0  0  0  0  0  0  0  0  0
  -12.2925   -2.9814   32.2803 C   0  0  0  0  0  0  0  0  0  0  0  0
  -15.0273   -2.8526   31.6852 C   0  0  0  0  0  0  0  0  0  0  0  0
  -15.9881   -3.3425   30.6114 C   0  0  1  0  0  0  0  0  0  0  0  0
  -15.2872   -3.4226   29.3932 O   0  0  0  0  0  0  0  0  0  0  0  0
  -16.5520   -4.7356   30.8187 C   0  0  1  0  0  0  0  0  0  0  0  0
  -17.8200   -4.6797   31.4334 O   0  0  0  0  0  0  0  0  0  0  0  0
  -16.6824   -5.2656   29.4052 C   0  0  1  0  0  0  0  0  0  0  0  0
  -18.0432   -5.2556   29.0501 O   0  0  0  0  0  0  0  0  0  0  0  0
  -15.9150   -4.3090   28.5027 C   0  0  2  0  0  0  0  0  0  0  0  0
  -11.8972   -6.9670   33.8852 O   0  0  0  0  0  0  0  0  0  0  0  0
  -11.3220   -6.8776   28.7900 N   0  0  0  0  0  0  0  0  0  0  0  0
  -12.0163   -6.2570   29.8097 C   0  0  0  0  0  0  0  0  0  0  0  0
  -13.2172   -5.6210   29.5575 N   0  0  0  0  0  0  0  0  0  0  0  0
  -13.7265   -5.5949   28.3030 C   0  0  0  0  0  0  0  0  0  0  0  0
  -13.0464   -6.2214   27.2660 C   0  0  0  0  0  0  0  0  0  0  0  0
  -11.8372   -6.8603   27.5120 C   0  0  0  0  0  0  0  0  0  0  0  0
  -11.1811   -7.4521   26.5167 N   0  0  0  0  0  0  0  0  0  0  0  0
  -13.7674   -6.0535   26.1366 N   0  0  0  0  0  0  0  0  0  0  0  0
  -14.8877   -5.3556   26.4376 C   0  0  0  0  0  0  0  0  0  0  0  0
  -14.8797   -5.0631   27.7759 N   0  0  0  0  0  0  0  0  0  0  0  0
  2  1  1  1  0  0  0
  2  3  1  0  0  0  0
  2  5  1  0  0  0  0
  3  4  1  0  0  0  0
  3 17  1  0  0  0  0
  5  6  1  0  0  0  0
  7  6  1  1  0  0  0
  7  8  1  0  0  0  0
  7  9  1  0  0  0  0
 10  9  1  1  0  0  0
 10 11  1  0  0  0  0
 10 12  1  0  0  0  0
 11 16  1  0  0  0  0
 12 13  1  6  0  0  0
 12 14  1  0  0  0  0
 14 15  1  6  0  0  0
 14 16  1  0  0  0  0
 16 27  1  1  0  0  0
 18 19  2  0  0  0  0
 18 23  1  0  0  0  0
 19 20  1  0  0  0  0
 20 21  2  0  0  0  0
 21 22  1  0  0  0  0
 21 27  1  0  0  0  0
 22 23  2  0  0  0  0
 22 25  1  0  0  0  0
 23 24  1  0  0  0  0
 25 26  2  0  0  0  0
 26 27  1  0  0  0  0
M  END
>  <CHROM.1>
-33.57613514,-177.40610345,77.28367000,-163.09224269,-111.00898680,-62.84175095
41.68473517,-14.21351661,-5.50723658,30.51319225,-1.52269353,0.56090131,-1.49193183

>  <Name>
ligand

>  <RI>
0

>  <Rbt.Current_Directory>
/home/itssahil/PROJECTS/Mol_Feturizer/New_Systems/rnas/3GX6

>  <Rbt.Executable>
rbdock ($Id: //depot/dev/client3/rdock/2013.1/src/exe/rbdock.cxx#4 $)

>  <Rbt.Library>
libRbt.so (2013.1, Build901 2013/11/27)

>  <Rbt.Parameter_File>
/export/apps/rDock/src/rDock_2013.1_src/data/scripts/dock_solv.prm

>  <Rbt.Receptor>
prm/pocket_docking_5.prm

>  <SCORE>
-22.6091

>  <SCORE.INTER>
-12.5651

>  <SCORE.INTER.CONST>
1

>  <SCORE.INTER.POLAR>
0

>  <SCORE.INTER.ROT>
7

>  <SCORE.INTER.SOLV>
9.73323

>  <SCORE.INTER.VDW>
-19.8878

>  <SCORE.INTER.norm>
-0.465373

>  <SCORE.INTRA>
-10.0468

>  <SCORE.INTRA.DIHEDRAL>
-5.60942

>  <SCORE.INTRA.DIHEDRAL.0>
15.0182

>  <SCORE.INTRA.POLAR>
0

>  <SCORE.INTRA.POLAR.0>
0

>  <SCORE.INTRA.REPUL>
0

>  <SCORE.INTRA.REPUL.0>
0

>  <SCORE.INTRA.SOLV>
-1.25469

>  <SCORE.INTRA.SOLV.lig_0>
-47.9129

>  <SCORE.INTRA.VDW>
-6.61479

>  <SCORE.INTRA.VDW.0>
2.00851

>  <SCORE.INTRA.norm>
-0.372106

>  <SCORE.RESTR>
0.00280173

>  <SCORE.RESTR.CAVITY>
0.00280173

>  <SCORE.RESTR.norm>
0.000103768

>  <SCORE.SYSTEM>
0

>  <SCORE.SYSTEM.CONST>
0

>  <SCORE.SYSTEM.DIHEDRAL>
0

>  <SCORE.SYSTEM.SOLV>
0

>  <SCORE.SYSTEM.norm>
0

>  <SCORE.heavy>
27

>  <SCORE.norm>
-0.837375

>  <RMSD>
6.462

$$$$
ligand
 OpenBabel11021811483D
libRbt.so/2013.1/901 2013/11/27
 27 29  0  0  0  0  0  0  0  0999 V2000
  -14.4205   -5.2297   33.4764 N   0  0  0  0  0  0  0  0  0  0  0  0
  -15.6640   -5.8943   33.0957 C   0  0  2  0  0  0  0  0  0  0  0  0
  -16.8750   -4.9827   33.2760 C   0  0  0  0  0  0  0  0  0  0  0  0
  -17.5395   -5.0044   34.3144 O   0  0  0  0  0  0  0  0  0  0  0  0
  -15.8365   -7.2048   33.8577 C   0  0  0  0  0  0  0  0  0  0  0  0
  -16.9335   -8.0920   33.2898 C   0  0  0  0  0  0  0  0  0  0  0  0
  -18.6016   -7.6137   33.8048 S   0  0  2  0  0  0  0  0  0  0  0  0
  -19.0573   -9.0466   34.8126 C   0  0  0  0  0  0  0  0  0  0  0  0
  -19.5373   -7.9365   32.2854 C   0  0  0  0  0  0  0  0  0  0  0  0
  -19.3725   -6.7614   31.3322 C   0  0  1  0  0  0  0  0  0  0  0  0
  -17.9994   -6.5905   31.0734 O   0  0  0  0  0  0  0  0  0  0  0  0
  -20.0001   -6.9328   29.9616 C   0  0  1  0  0  0  0  0  0  0  0  0
  -21.2786   -6.3395   29.9151 O   0  0  0  0  0  0  0  0  0  0  0  0
  -19.0463   -6.1843   29.0528 C   0  0  1  0  0  0  0  0  0  0  0  0
  -19.6480   -4.9689   28.6805 O   0  0  0  0  0  0  0  0  0  0  0  0
  -17.7913   -5.9011   29.8674 C   0  0  2  0  0  0  0  0  0  0  0  0
  -17.2152   -4.2088   32.3810 O   0  0  0  0  0  0  0  0  0  0  0  0
  -14.1952   -5.3621   26.0526 N   0  0  0  0  0  0  0  0  0  0  0  0
  -15.2065   -4.4882   26.3997 C   0  0  0  0  0  0  0  0  0  0  0  0
  -16.0717   -4.7890   27.4346 N   0  0  0  0  0  0  0  0  0  0  0  0
  -15.9406   -5.9499   28.1195 C   0  0  0  0  0  0  0  0  0  0  0  0
  -14.9237   -6.8375   27.7901 C   0  0  0  0  0  0  0  0  0  0  0  0
  -14.0519   -6.5426   26.7490 C   0  0  0  0  0  0  0  0  0  0  0  0
  -13.0838   -7.3973   26.4274 N   0  0  0  0  0  0  0  0  0  0  0  0
  -15.0127   -7.8970   28.6227 N   0  0  0  0  0  0  0  0  0  0  0  0
  -16.0440   -7.6923   29.4754 C   0  0  0  0  0  0  0  0  0  0  0  0
  -16.6306   -6.4904   29.1789 N   0  0  0  0  0  0  0  0  0  0  0  0
  2  1  1  1  0  0  0
  2  3  1  0  0  0  0
  2  5  1  0  0  0  0
  3  4  1  0  0  0  0
  3 17  1  0  0  0  0
  5  6  1  0  0  0  0
  7  6  1  6  0  0  0
  7  8  1  0  0  0  0
  7  9  1  0  0  0  0
 10  9  1  1  0  0  0
 10 11  1  0  0  0  0
 10 12  1  0  0  0  0
 11 16  1  0  0  0  0
 12 13  1  1  0  0  0
 12 14  1  0  0  0  0
 14 15  1  1  0  0  0
 14 16  1  0  0  0  0
 16 27  1  6  0  0  0
 18 19  2  0  0  0  0
 18 23  1  0  0  0  0
 19 20  1  0  0  0  0
 20 21  2  0  0  0  0
 21 22  1  0  0  0  0
 21 27  1  0  0  0  0
 22 23  2  0  0  0  0
 22 25  1  0  0  0  0
 23 24  1  0  0  0  0
 25 26  2  0  0  0  0
 26 27  1  0  0  0  0
M  END
>  <CHROM.1>
-93.94584714,-166.94897000,-80.34693871,-113.74727814,-81.49790388,57.95936797
-166.06638146,-17.11557650,-6.43236088,30.63998091,-2.04191300,-0.04108641
-1.44362666

>  <Name>
ligand

>  <RI>
0

>  <Rbt.Current_Directory>
/home/itssahil/PROJECTS/Mol_Feturizer/New_Systems/rnas/3GX6

>  <Rbt.Executable>
rbdock ($Id: //depot/dev/client3/rdock/2013.1/src/exe/rbdock.cxx#4 $)

>  <Rbt.Library>
libRbt.so (2013.1, Build901 2013/11/27)

>  <Rbt.Parameter_File>
/export/apps/rDock/src/rDock_2013.1_src/data/scripts/dock_solv.prm

>  <Rbt.Receptor>
prm/pocket_docking_6.prm

>  <SCORE>
-19.0829

>  <SCORE.INTER>
-9.7081

>  <SCORE.INTER.CONST>
1

>  <SCORE.INTER.POLAR>
0

>  <SCORE.INTER.ROT>
7

>  <SCORE.INTER.SOLV>
12.9295

>  <SCORE.INTER.VDW>
-19.0486

>  <SCORE.INTER.norm>
-0.359559

>  <SCORE.INTRA>
-9.37483

>  <SCORE.INTRA.DIHEDRAL>
-5.51148

>  <SCORE.INTRA.DIHEDRAL.0>
15.0182

>  <SCORE.INTRA.POLAR>
0

>  <SCORE.INTRA.POLAR.0>
0

>  <SCORE.INTRA.REPUL>
0

>  <SCORE.INTRA.REPUL.0>
0

>  <SCORE.INTRA.SOLV>
-1.24048

>  <SCORE.INTRA.SOLV.lig_0>
-47.9129

>  <SCORE.INTRA.VDW>
-5.99885

>  <SCORE.INTRA.VDW.0>
2.00851

>  <SCORE.INTRA.norm>
-0.347216

>  <SCORE.RESTR>
0

>  <SCORE.RESTR.CAVITY>
0

>  <SCORE.RESTR.norm>
0

>  <SCORE.SYSTEM>
0

>  <SCORE.SYSTEM.CONST>
0

>  <SCORE.SYSTEM.DIHEDRAL>
0

>  <SCORE.SYSTEM.SOLV>
0

>  <SCORE.SYSTEM.norm>
0

>  <SCORE.heavy>
27

>  <SCORE.norm>
-0.706775

>  <RMSD>
6.462

$$$$
ligand
 OpenBabel11021811483D
libRbt.so/2013.1/901 2013/11/27
 27 29  0  0  0  0  0  0  0  0999 V2000
  -12.9087   -8.9500   29.3576 N   0  0  0  0  0  0  0  0  0  0  0  0
  -14.0254   -9.7623   28.8821 C   0  0  2  0  0  0  0  0  0  0  0  0
  -14.4058   -9.4208   27.4439 C   0  0  0  0  0  0  0  0  0  0  0  0
  -14.7411  -10.3007   26.6477 O   0  0  0  0  0  0  0  0  0  0  0  0
  -15.2243   -9.6409   29.8179 C   0  0  0  0  0  0  0  0  0  0  0  0
  -15.6855   -8.2063   30.0232 C   0  0  0  0  0  0  0  0  0  0  0  0
  -17.1712   -8.0544   31.0459 S   0  0  2  0  0  0  0  0  0  0  0  0
  -17.2631   -6.2555   31.2259 C   0  0  0  0  0  0  0  0  0  0  0  0
  -16.5241   -8.5408   32.6685 C   0  0  0  0  0  0  0  0  0  0  0  0
  -17.6642   -9.0648   33.5299 C   0  0  1  0  0  0  0  0  0  0  0  0
  -17.1110   -9.7064   34.6541 O   0  0  0  0  0  0  0  0  0  0  0  0
  -18.5891   -8.0109   34.1094 C   0  0  1  0  0  0  0  0  0  0  0  0
  -19.7362   -7.8500   33.3052 O   0  0  0  0  0  0  0  0  0  0  0  0
  -18.9741   -8.5957   35.4532 C   0  0  1  0  0  0  0  0  0  0  0  0
  -20.2968   -9.0664   35.3711 O   0  0  0  0  0  0  0  0  0  0  0  0
  -18.0339   -9.7653   35.7113 C   0  0  2  0  0  0  0  0  0  0  0  0
  -14.3798   -8.2551   27.0489 O   0  0  0  0  0  0  0  0  0  0  0  0
  -13.4909   -8.4234   38.0213 N   0  0  0  0  0  0  0  0  0  0  0  0
  -13.7620   -8.5274   36.6712 C   0  0  0  0  0  0  0  0  0  0  0  0
  -15.0194   -8.8976   36.2328 N   0  0  0  0  0  0  0  0  0  0  0  0
  -16.0020   -9.1680   37.1246 C   0  0  0  0  0  0  0  0  0  0  0  0
  -15.7502   -9.0603   38.4867 C   0  0  0  0  0  0  0  0  0  0  0  0
  -14.4875   -8.6913   38.9345 C   0  0  0  0  0  0  0  0  0  0  0  0
  -14.2438   -8.5975   40.2395 N   0  0  0  0  0  0  0  0  0  0  0  0
  -16.8874   -9.3733   39.1443 N   0  0  0  0  0  0  0  0  0  0  0  0
  -17.8494   -9.6571   38.2350 C   0  0  0  0  0  0  0  0  0  0  0  0
  -17.3190   -9.5345   36.9779 N   0  0  0  0  0  0  0  0  0  0  0  0
  2  1  1  1  0  0  0
  2  3  1  0  0  0  0
  2  5  1  0  0  0  0
  3  4  1  0  0  0  0
  3 17  1  0  0  0  0
  5  6  1  0  0  0  0
  7  6  1  6  0  0  0
  7  8  1  0  0  0  0
  7  9  1  0  0  0  0
 10  9  1  1  0  0  0
 10 11  1  0  0  0  0
 10 12  1  0  0  0  0
 11 16  1  0  0  0  0
 12 13  1  6  0  0  0
 12 14  1  0  0  0  0
 14 15  1  6  0  0  0
 14 16  1  0  0  0  0
 16 27  1  1  0  0  0
 18 19  2  0  0  0  0
 18 23  1  0  0  0  0
 19 20  1  0  0  0  0
 20 21  2  0  0  0  0
 21 22  1  0  0  0  0
 21 27  1  0  0  0  0
 22 23  2  0  0  0  0
 22 25  1  0  0  0  0
 23 24  1  0  0  0  0
 25 26  2  0  0  0  0
 26 27  1  0  0  0  0
M  END
>  <CHROM.1>
141.56685279,56.12108217,176.30138791,173.09184680,-155.48306797,167.07072717
6.94625582,-16.28912930,-8.81673032,33.67057549,-1.44507751,-0.09686285,1.59132039

>  <Name>
ligand

>  <RI>
0

>  <Rbt.Current_Directory>
/home/itssahil/PROJECTS/Mol_Feturizer/New_Systems/rnas/3GX6

>  <Rbt.Executable>
rbdock ($Id: //depot/dev/client3/rdock/2013.1/src/exe/rbdock.cxx#4 $)

>  <Rbt.Library>
libRbt.so (2013.1, Build901 2013/11/27)

>  <Rbt.Parameter_File>
/export/apps/rDock/src/rDock_2013.1_src/data/scripts/dock_solv.prm

>  <Rbt.Receptor>
prm/pocket_docking_8.prm

>  <SCORE>
-20.8009

>  <SCORE.INTER>
-11.368

>  <SCORE.INTER.CONST>
1

>  <SCORE.INTER.POLAR>
0

>  <SCORE.INTER.ROT>
7

>  <SCORE.INTER.SOLV>
11.5588

>  <SCORE.INTER.VDW>
-19.6982

>  <SCORE.INTER.norm>
-0.421036

>  <SCORE.INTRA>
-9.43296

>  <SCORE.INTRA.DIHEDRAL>
-8.62188

>  <SCORE.INTRA.DIHEDRAL.0>
15.0182

>  <SCORE.INTRA.POLAR>
0

>  <SCORE.INTRA.POLAR.0>
0

>  <SCORE.INTRA.REPUL>
0

>  <SCORE.INTRA.REPUL.0>
0

>  <SCORE.INTRA.SOLV>
-0.874701

>  <SCORE.INTRA.SOLV.lig_0>
-47.9129

>  <SCORE.INTRA.VDW>
-4.68467

>  <SCORE.INTRA.VDW.0>
2.00851

>  <SCORE.INTRA.norm>
-0.349369

>  <SCORE.RESTR>
0

>  <SCORE.RESTR.CAVITY>
0

>  <SCORE.RESTR.norm>
0

>  <SCORE.SYSTEM>
0

>  <SCORE.SYSTEM.CONST>
0

>  <SCORE.SYSTEM.DIHEDRAL>
0

>  <SCORE.SYSTEM.SOLV>
0

>  <SCORE.SYSTEM.norm>
0

>  <SCORE.heavy>
27

>  <SCORE.norm>
-0.770405

>  <RMSD>
6.467

$$$$
ligand
 OpenBabel11021811483D
libRbt.so/2013.1/901 2013/11/27
 27 29  0  0  0  0  0  0  0  0999 V2000
  -16.5897   -5.1822   33.5749 N   0  0  0  0  0  0  0  0  0  0  0  0
  -17.2191   -4.4497   32.4794 C   0  0  2  0  0  0  0  0  0  0  0  0
  -17.6290   -5.3754   31.3370 C   0  0  0  0  0  0  0  0  0  0  0  0
  -16.8992   -6.3005   30.9738 O   0  0  0  0  0  0  0  0  0  0  0  0
  -16.3142   -3.3248   31.9857 C   0  0  0  0  0  0  0  0  0  0  0  0
  -15.0274   -3.8234   31.3464 C   0  0  0  0  0  0  0  0  0  0  0  0
  -13.8999   -4.6344   32.5072 S   0  0  2  0  0  0  0  0  0  0  0  0
  -12.7577   -3.2749   32.8591 C   0  0  0  0  0  0  0  0  0  0  0  0
  -12.9088   -5.6465   31.3750 C   0  0  0  0  0  0  0  0  0  0  0  0
  -13.7657   -6.7804   30.8307 C   0  0  1  0  0  0  0  0  0  0  0  0
  -14.2152   -6.4187   29.5467 O   0  0  0  0  0  0  0  0  0  0  0  0
  -13.0529   -8.1041   30.6260 C   0  0  1  0  0  0  0  0  0  0  0  0
  -13.2464   -8.9570   31.7322 O   0  0  0  0  0  0  0  0  0  0  0  0
  -13.7391   -8.6762   29.4021 C   0  0  1  0  0  0  0  0  0  0  0  0
  -14.5936   -9.7138   29.8155 O   0  0  0  0  0  0  0  0  0  0  0  0
  -14.5644   -7.5510   28.7924 C   0  0  2  0  0  0  0  0  0  0  0  0
  -18.6991   -5.2112   30.7509 O   0  0  0  0  0  0  0  0  0  0  0  0
  -14.9648   -9.1308   23.7805 N   0  0  0  0  0  0  0  0  0  0  0  0
  -15.6034   -9.6479   24.8904 C   0  0  0  0  0  0  0  0  0  0  0  0
  -15.3806   -9.1106   26.1441 N   0  0  0  0  0  0  0  0  0  0  0  0
  -14.5273   -8.0706   26.3002 C   0  0  0  0  0  0  0  0  0  0  0  0
  -13.8823   -7.5317   25.1939 C   0  0  0  0  0  0  0  0  0  0  0  0
  -14.0997   -8.0687   23.9309 C   0  0  0  0  0  0  0  0  0  0  0  0
  -13.4744   -7.5585   22.8727 N   0  0  0  0  0  0  0  0  0  0  0  0
  -13.1054   -6.5137   25.6225 N   0  0  0  0  0  0  0  0  0  0  0  0
  -13.2573   -6.3870   26.9618 C   0  0  0  0  0  0  0  0  0  0  0  0
  -14.1353   -7.3433   27.3992 N   0  0  0  0  0  0  0  0  0  0  0  0
  2  1  1  1  0  0  0
  2  3  1  0  0  0  0
  2  5  1  0  0  0  0
  3  4  1  0  0  0  0
  3 17  1  0  0  0  0
  5  6  1  0  0  0  0
  7  6  1  6  0  0  0
  7  8  1  0  0  0  0
  7  9  1  0  0  0  0
 10  9  1  6  0  0  0
 10 11  1  0  0  0  0
 10 12  1  0  0  0  0
 11 16  1  0  0  0  0
 12 13  1  1  0  0  0
 12 14  1  0  0  0  0
 14 15  1  1  0  0  0
 14 16  1  0  0  0  0
 16 27  1  6  0  0  0
 18 19  2  0  0  0  0
 18 23  1  0  0  0  0
 19 20  1  0  0  0  0
 20 21  2  0  0  0  0
 21 22  1  0  0  0  0
 21 27  1  0  0  0  0
 22 23  2  0  0  0  0
 22 25  1  0  0  0  0
 23 24  1  0  0  0  0
 25 26  2  0  0  0  0
 26 27  1  0  0  0  0
M  END
>  <CHROM.1>
-40.62306544,65.54362551,-66.97107165,-98.48066864,-70.49647968,99.46540006
-165.36851785,-14.70134186,-6.64843882,29.27439848,1.70848889,-0.29910366
1.16030977

>  <Name>
ligand

>  <RI>
0

>  <Rbt.Current_Directory>
/home/itssahil/PROJECTS/Mol_Feturizer/New_Systems/rnas/3GX6

>  <Rbt.Executable>
rbdock ($Id: //depot/dev/client3/rdock/2013.1/src/exe/rbdock.cxx#4 $)

>  <Rbt.Library>
libRbt.so (2013.1, Build901 2013/11/27)

>  <Rbt.Parameter_File>
/export/apps/rDock/src/rDock_2013.1_src/data/scripts/dock_solv.prm

>  <Rbt.Receptor>
prm/pocket_docking_7.prm

>  <SCORE>
-14.4174

>  <SCORE.INTER>
-6.74117

>  <SCORE.INTER.CONST>
1

>  <SCORE.INTER.POLAR>
0

>  <SCORE.INTER.ROT>
7

>  <SCORE.INTER.SOLV>
10.6616

>  <SCORE.INTER.VDW>
-16.3147

>  <SCORE.INTER.norm>
-0.249673

>  <SCORE.INTRA>
-7.67619

>  <SCORE.INTRA.DIHEDRAL>
-5.44187

>  <SCORE.INTRA.DIHEDRAL.0>
15.0182

>  <SCORE.INTRA.POLAR>
0

>  <SCORE.INTRA.POLAR.0>
0

>  <SCORE.INTRA.REPUL>
0

>  <SCORE.INTRA.REPUL.0>
0

>  <SCORE.INTRA.SOLV>
0.970252

>  <SCORE.INTRA.SOLV.lig_0>
-47.9129

>  <SCORE.INTRA.VDW>
-5.44038

>  <SCORE.INTRA.VDW.0>
2.00851

>  <SCORE.INTRA.norm>
-0.284303

>  <SCORE.RESTR>
0

>  <SCORE.RESTR.CAVITY>
0

>  <SCORE.RESTR.norm>
0

>  <SCORE.SYSTEM>
0

>  <SCORE.SYSTEM.CONST>
0

>  <SCORE.SYSTEM.DIHEDRAL>
0

>  <SCORE.SYSTEM.SOLV>
0

>  <SCORE.SYSTEM.norm>
0

>  <SCORE.heavy>
27

>  <SCORE.norm>
-0.533976

>  <RMSD>
6.476

$$$$
ligand
 OpenBabel11021811483D
libRbt.so/2013.1/901 2013/11/27
 27 29  0  0  0  0  0  0  0  0999 V2000
  -15.3283   -8.7686   33.5634 N   0  0  0  0  0  0  0  0  0  0  0  0
  -14.2608   -7.8019   33.8061 C   0  0  2  0  0  0  0  0  0  0  0  0
  -13.6593   -7.9562   35.2005 C   0  0  0  0  0  0  0  0  0  0  0  0
  -12.4857   -7.6517   35.4251 O   0  0  0  0  0  0  0  0  0  0  0  0
  -14.7517   -6.3772   33.5671 C   0  0  0  0  0  0  0  0  0  0  0  0
  -13.6635   -5.3285   33.7377 C   0  0  0  0  0  0  0  0  0  0  0  0
  -13.3667   -4.3338   32.2548 S   0  0  2  0  0  0  0  0  0  0  0  0
  -11.9605   -3.3358   32.8052 C   0  0  0  0  0  0  0  0  0  0  0  0
  -14.7205   -3.1327   32.3688 C   0  0  0  0  0  0  0  0  0  0  0  0
  -15.7789   -3.4651   31.3268 C   0  0  1  0  0  0  0  0  0  0  0  0
  -15.1287   -3.7562   30.1126 O   0  0  0  0  0  0  0  0  0  0  0  0
  -16.6206   -4.6946   31.6126 C   0  0  1  0  0  0  0  0  0  0  0  0
  -17.8390   -4.3394   32.2274 O   0  0  0  0  0  0  0  0  0  0  0  0
  -16.8807   -5.2596   30.2309 C   0  0  1  0  0  0  0  0  0  0  0  0
  -18.2139   -4.9813   29.8803 O   0  0  0  0  0  0  0  0  0  0  0  0
  -15.9424   -4.5362   29.2744 C   0  0  2  0  0  0  0  0  0  0  0  0
  -14.3370   -8.3946   36.1301 O   0  0  0  0  0  0  0  0  0  0  0  0
  -12.5160   -8.5084   29.7816 N   0  0  0  0  0  0  0  0  0  0  0  0
  -13.1286   -7.7789   30.7813 C   0  0  0  0  0  0  0  0  0  0  0  0
  -14.0078   -6.7589   30.4699 N   0  0  0  0  0  0  0  0  0  0  0  0
  -14.2761   -6.4589   29.1769 C   0  0  0  0  0  0  0  0  0  0  0  0
  -13.6757   -7.1877   28.1576 C   0  0  0  0  0  0  0  0  0  0  0  0
  -12.7888   -8.2127   28.4636 C   0  0  0  0  0  0  0  0  0  0  0  0
  -12.2065   -8.9044   27.4870 N   0  0  0  0  0  0  0  0  0  0  0  0
  -14.1165   -6.6942   26.9804 N   0  0  0  0  0  0  0  0  0  0  0  0
  -14.9884   -5.6894   27.2312 C   0  0  0  0  0  0  0  0  0  0  0  0
  -15.1002   -5.5296   28.5871 N   0  0  0  0  0  0  0  0  0  0  0  0
  2  1  1  1  0  0  0
  2  3  1  0  0  0  0
  2  5  1  0  0  0  0
  3  4  1  0  0  0  0
  3 17  1  0  0  0  0
  5  6  1  0  0  0  0
  7  6  1  1  0  0  0
  7  8  1  0  0  0  0
  7  9  1  0  0  0  0
 10  9  1  1  0  0  0
 10 11  1  0  0  0  0
 10 12  1  0  0  0  0
 11 16  1  0  0  0  0
 12 13  1  6  0  0  0
 12 14  1  0  0  0  0
 14 15  1  6  0  0  0
 14 16  1  0  0  0  0
 16 27  1  1  0  0  0
 18 19  2  0  0  0  0
 18 23  1  0  0  0  0
 19 20  1  0  0  0  0
 20 21  2  0  0  0  0
 21 22  1  0  0  0  0
 21 27  1  0  0  0  0
 22 23  2  0  0  0  0
 22 25  1  0  0  0  0
 23 24  1  0  0  0  0
 25 26  2  0  0  0  0
 26 27  1  0  0  0  0
M  END
>  <CHROM.1>
151.27507886,-177.14709655,120.68278945,-175.64710522,-106.55072666,-44.36769032
56.33195913,-14.48295792,-6.02243287,31.27110724,-1.35495250,0.92128323,-1.62494473

>  <Name>
ligand

>  <RI>
0

>  <Rbt.Current_Directory>
/home/itssahil/PROJECTS/Mol_Feturizer/New_Systems/rnas/3GX6

>  <Rbt.Executable>
rbdock ($Id: //depot/dev/client3/rdock/2013.1/src/exe/rbdock.cxx#4 $)

>  <Rbt.Library>
libRbt.so (2013.1, Build901 2013/11/27)

>  <Rbt.Parameter_File>
/export/apps/rDock/src/rDock_2013.1_src/data/scripts/dock_solv.prm

>  <Rbt.Receptor>
prm/pocket_docking_2.prm

>  <SCORE>
-14.4779

>  <SCORE.INTER>
-7.95696

>  <SCORE.INTER.CONST>
1

>  <SCORE.INTER.POLAR>
0

>  <SCORE.INTER.ROT>
7

>  <SCORE.INTER.SOLV>
7.2128

>  <SCORE.INTER.VDW>
-15.9756

>  <SCORE.INTER.norm>
-0.294702

>  <SCORE.INTRA>
-8.20688

>  <SCORE.INTRA.DIHEDRAL>
-1.92028

>  <SCORE.INTRA.DIHEDRAL.0>
15.0182

>  <SCORE.INTRA.POLAR>
0

>  <SCORE.INTRA.POLAR.0>
0

>  <SCORE.INTRA.REPUL>
0

>  <SCORE.INTRA.REPUL.0>
0

>  <SCORE.INTRA.SOLV>
-1.12001

>  <SCORE.INTRA.SOLV.lig_0>
-47.9129

>  <SCORE.INTRA.VDW>
-6.68673

>  <SCORE.INTRA.VDW.0>
2.00851

>  <SCORE.INTRA.norm>
-0.303958

>  <SCORE.RESTR>
1.68597

>  <SCORE.RESTR.CAVITY>
1.68597

>  <SCORE.RESTR.norm>
0.0624433

>  <SCORE.SYSTEM>
0

>  <SCORE.SYSTEM.CONST>
0

>  <SCORE.SYSTEM.DIHEDRAL>
0

>  <SCORE.SYSTEM.SOLV>
0

>  <SCORE.SYSTEM.norm>
0

>  <SCORE.heavy>
27

>  <SCORE.norm>
-0.536217

>  <RMSD>
6.480

$$$$
ligand
 OpenBabel11021811483D
libRbt.so/2013.1/901 2013/11/27
 27 29  0  0  0  0  0  0  0  0999 V2000
  -16.3676   -7.2076   31.5120 N   0  0  0  0  0  0  0  0  0  0  0  0
  -15.3783   -7.3139   32.5811 C   0  0  2  0  0  0  0  0  0  0  0  0
  -15.4263   -8.6764   33.2676 C   0  0  0  0  0  0  0  0  0  0  0  0
  -16.5016   -9.2210   33.5278 O   0  0  0  0  0  0  0  0  0  0  0  0
  -15.5399   -6.1786   33.5875 C   0  0  0  0  0  0  0  0  0  0  0  0
  -15.3386   -4.7999   32.9777 C   0  0  0  0  0  0  0  0  0  0  0  0
  -13.6616   -4.5101   32.3612 S   0  0  2  0  0  0  0  0  0  0  0  0
  -12.7991   -4.1529   33.9121 C   0  0  0  0  0  0  0  0  0  0  0  0
  -13.8347   -2.8466   31.6602 C   0  0  0  0  0  0  0  0  0  0  0  0
  -14.4502   -2.9458   30.2718 C   0  0  1  0  0  0  0  0  0  0  0  0
  -13.5146   -3.5564   29.4154 O   0  0  0  0  0  0  0  0  0  0  0  0
  -15.6901   -3.8133   30.1620 C   0  0  1  0  0  0  0  0  0  0  0  0
  -16.8609   -3.0314   30.2429 O   0  0  0  0  0  0  0  0  0  0  0  0
  -15.5631   -4.4177   28.7784 C   0  0  1  0  0  0  0  0  0  0  0  0
  -16.4829   -3.7789   27.9277 O   0  0  0  0  0  0  0  0  0  0  0  0
  -14.1459   -4.1319   28.3003 C   0  0  2  0  0  0  0  0  0  0  0  0
  -14.3868   -9.2572   33.5803 O   0  0  0  0  0  0  0  0  0  0  0  0
  -11.8447   -8.4817   30.1870 N   0  0  0  0  0  0  0  0  0  0  0  0
  -12.3908   -7.4305   30.8968 C   0  0  0  0  0  0  0  0  0  0  0  0
  -12.9579   -6.3561   30.2378 N   0  0  0  0  0  0  0  0  0  0  0  0
  -12.9807   -6.3191   28.8843 C   0  0  0  0  0  0  0  0  0  0  0  0
  -12.4438   -7.3717   28.1533 C   0  0  0  0  0  0  0  0  0  0  0  0
  -11.8696   -8.4537   28.8094 C   0  0  0  0  0  0  0  0  0  0  0  0
  -11.3468   -9.4573   28.1091 N   0  0  0  0  0  0  0  0  0  0  0  0
  -12.6020   -7.0889   26.8424 N   0  0  0  0  0  0  0  0  0  0  0  0
  -13.2375   -5.8989   26.7296 C   0  0  0  0  0  0  0  0  0  0  0  0
  -13.4807   -5.4072   27.9849 N   0  0  0  0  0  0  0  0  0  0  0  0
  2  1  1  6  0  0  0
  2  3  1  0  0  0  0
  2  5  1  0  0  0  0
  3  4  1  0  0  0  0
  3 17  1  0  0  0  0
  5  6  1  0  0  0  0
  7  6  1  1  0  0  0
  7  8  1  0  0  0  0
  7  9  1  0  0  0  0
 10  9  1  1  0  0  0
 10 11  1  0  0  0  0
 10 12  1  0  0  0  0
 11 16  1  0  0  0  0
 12 13  1  6  0  0  0
 12 14  1  0  0  0  0
 14 15  1  6  0  0  0
 14 16  1  0  0  0  0
 16 27  1  1  0  0  0
 18 19  2  0  0  0  0
 18 23  1  0  0  0  0
 19 20  1  0  0  0  0
 20 21  2  0  0  0  0
 21 22  1  0  0  0  0
 21 27  1  0  0  0  0
 22 23  2  0  0  0  0
 22 25  1  0  0  0  0
 23 24  1  0  0  0  0
 25 26  2  0  0  0  0
 26 27  1  0  0  0  0
M  END
>  <CHROM.1>
-41.32359981,-61.35197855,-64.33170651,-78.79176777,-81.46919041,-68.35200169
37.26815334,-14.14765631,-5.90086964,30.55142505,-2.23954275,1.04375372,-0.74814375

>  <Name>
ligand

>  <RI>
0

>  <Rbt.Current_Directory>
/home/itssahil/PROJECTS/Mol_Feturizer/New_Systems/rnas/3GX6

>  <Rbt.Executable>
rbdock ($Id: //depot/dev/client3/rdock/2013.1/src/exe/rbdock.cxx#4 $)

>  <Rbt.Library>
libRbt.so (2013.1, Build901 2013/11/27)

>  <Rbt.Parameter_File>
/export/apps/rDock/src/rDock_2013.1_src/data/scripts/dock_solv.prm

>  <Rbt.Receptor>
prm/pocket_docking_4.prm

>  <SCORE>
-20.512

>  <SCORE.INTER>
-9.44627

>  <SCORE.INTER.CONST>
1

>  <SCORE.INTER.POLAR>
0

>  <SCORE.INTER.ROT>
7

>  <SCORE.INTER.SOLV>
10.8335

>  <SCORE.INTER.VDW>
-18.1754

>  <SCORE.INTER.norm>
-0.349862

>  <SCORE.INTRA>
-11.0657

>  <SCORE.INTRA.DIHEDRAL>
-10.6866

>  <SCORE.INTRA.DIHEDRAL.0>
15.0182

>  <SCORE.INTRA.POLAR>
0

>  <SCORE.INTRA.POLAR.0>
0

>  <SCORE.INTRA.REPUL>
0

>  <SCORE.INTRA.REPUL.0>
0

>  <SCORE.INTRA.SOLV>
1.04685

>  <SCORE.INTRA.SOLV.lig_0>
-47.9129

>  <SCORE.INTRA.VDW>
-6.24583

>  <SCORE.INTRA.VDW.0>
2.00851

>  <SCORE.INTRA.norm>
-0.409841

>  <SCORE.RESTR>
0

>  <SCORE.RESTR.CAVITY>
0

>  <SCORE.RESTR.norm>
0

>  <SCORE.SYSTEM>
0

>  <SCORE.SYSTEM.CONST>
0

>  <SCORE.SYSTEM.DIHEDRAL>
0

>  <SCORE.SYSTEM.SOLV>
0

>  <SCORE.SYSTEM.norm>
0

>  <SCORE.heavy>
27

>  <SCORE.norm>
-0.759703

>  <RMSD>
6.510

$$$$
ligand
 OpenBabel11021811483D
libRbt.so/2013.1/901 2013/11/27
 27 29  0  0  0  0  0  0  0  0999 V2000
  -13.3017   -6.9155   30.8097 N   0  0  0  0  0  0  0  0  0  0  0  0
  -12.7419   -7.6828   31.9191 C   0  0  2  0  0  0  0  0  0  0  0  0
  -13.6853   -8.7917   32.3776 C   0  0  0  0  0  0  0  0  0  0  0  0
  -13.4108   -9.5004   33.3486 O   0  0  0  0  0  0  0  0  0  0  0  0
  -12.3581   -6.7657   33.0766 C   0  0  0  0  0  0  0  0  0  0  0  0
  -13.4953   -5.8658   33.5347 C   0  0  0  0  0  0  0  0  0  0  0  0
  -13.9051   -4.5496   32.3617 S   0  0  2  0  0  0  0  0  0  0  0  0
  -13.2608   -3.1085   33.2475 C   0  0  0  0  0  0  0  0  0  0  0  0
  -15.6872   -4.3748   32.6485 C   0  0  0  0  0  0  0  0  0  0  0  0
  -16.4191   -5.5421   32.0019 C   0  0  1  0  0  0  0  0  0  0  0  0
  -16.2633   -6.6731   32.8255 O   0  0  0  0  0  0  0  0  0  0  0  0
  -17.9206   -5.3792   31.8583 C   0  0  1  0  0  0  0  0  0  0  0  0
  -18.2559   -4.9108   30.5712 O   0  0  0  0  0  0  0  0  0  0  0  0
  -18.4374   -6.7908   32.0488 C   0  0  1  0  0  0  0  0  0  0  0  0
  -18.8250   -7.2957   30.7948 O   0  0  0  0  0  0  0  0  0  0  0  0
  -17.2785   -7.6155   32.5923 C   0  0  2  0  0  0  0  0  0  0  0  0
  -14.7406   -9.0032   31.7799 O   0  0  0  0  0  0  0  0  0  0  0  0
  -15.7104   -9.3330   37.3217 N   0  0  0  0  0  0  0  0  0  0  0  0
  -14.9382   -8.7915   36.3129 C   0  0  0  0  0  0  0  0  0  0  0  0
  -15.5158   -8.3911   35.1228 N   0  0  0  0  0  0  0  0  0  0  0  0
  -16.8490   -8.5297   34.9294 C   0  0  0  0  0  0  0  0  0  0  0  0
  -17.6431   -9.0645   35.9363 C   0  0  0  0  0  0  0  0  0  0  0  0
  -17.0686   -9.4716   37.1343 C   0  0  0  0  0  0  0  0  0  0  0  0
  -17.8280   -9.9927   38.0950 N   0  0  0  0  0  0  0  0  0  0  0  0
  -18.9183   -9.0834   35.4923 N   0  0  0  0  0  0  0  0  0  0  0  0
  -18.9500   -8.5604   34.2440 C   0  0  0  0  0  0  0  0  0  0  0  0
  -17.6767   -8.2113   33.8788 N   0  0  0  0  0  0  0  0  0  0  0  0
  2  1  1  6  0  0  0
  2  3  1  0  0  0  0
  2  5  1  0  0  0  0
  3  4  1  0  0  0  0
  3 17  1  0  0  0  0
  5  6  1  0  0  0  0
  7  6  1  1  0  0  0
  7  8  1  0  0  0  0
  7  9  1  0  0  0  0
 10  9  1  1  0  0  0
 10 11  1  0  0  0  0
 10 12  1  0  0  0  0
 11 16  1  0  0  0  0
 12 13  1  6  0  0  0
 12 14  1  0  0  0  0
 14 15  1  6  0  0  0
 14 16  1  0  0  0  0
 16 27  1  1  0  0  0
 18 19  2  0  0  0  0
 18 23  1  0  0  0  0
 19 20  1  0  0  0  0
 20 21  2  0  0  0  0
 21 22  1  0  0  0  0
 21 27  1  0  0  0  0
 22 23  2  0  0  0  0
 22 25  1  0  0  0  0
 23 24  1  0  0  0  0
 25 26  2  0  0  0  0
 26 27  1  0  0  0  0
M  END
>  <CHROM.1>
-176.30172809,53.51648596,-71.12748387,-108.07243836,-75.20218002,77.23388171
-37.81847972,-15.84727135,-7.23778134,33.43529360,-1.09490900,0.07866727
2.28689818

>  <Name>
ligand

>  <RI>
0

>  <Rbt.Current_Directory>
/home/itssahil/PROJECTS/Mol_Feturizer/New_Systems/rnas/3GX6

>  <Rbt.Executable>
rbdock ($Id: //depot/dev/client3/rdock/2013.1/src/exe/rbdock.cxx#4 $)

>  <Rbt.Library>
libRbt.so (2013.1, Build901 2013/11/27)

>  <Rbt.Parameter_File>
/export/apps/rDock/src/rDock_2013.1_src/data/scripts/dock_solv.prm

>  <Rbt.Receptor>
prm/pocket_docking_5.prm

>  <SCORE>
-21.0255

>  <SCORE.INTER>
-12.6535

>  <SCORE.INTER.CONST>
1

>  <SCORE.INTER.POLAR>
0

>  <SCORE.INTER.ROT>
7

>  <SCORE.INTER.SOLV>
8.12368

>  <SCORE.INTER.VDW>
-19.4103

>  <SCORE.INTER.norm>
-0.46865

>  <SCORE.INTRA>
-8.37193

>  <SCORE.INTRA.DIHEDRAL>
-6.78952

>  <SCORE.INTRA.DIHEDRAL.0>
15.0182

>  <SCORE.INTRA.POLAR>
0

>  <SCORE.INTRA.POLAR.0>
0

>  <SCORE.INTRA.REPUL>
0

>  <SCORE.INTRA.REPUL.0>
0

>  <SCORE.INTRA.SOLV>
2.35664

>  <SCORE.INTRA.SOLV.lig_0>
-47.9129

>  <SCORE.INTRA.VDW>
-6.15549

>  <SCORE.INTRA.VDW.0>
2.00851

>  <SCORE.INTRA.norm>
-0.310072

>  <SCORE.RESTR>
0

>  <SCORE.RESTR.CAVITY>
0

>  <SCORE.RESTR.norm>
0

>  <SCORE.SYSTEM>
0

>  <SCORE.SYSTEM.CONST>
0

>  <SCORE.SYSTEM.DIHEDRAL>
0

>  <SCORE.SYSTEM.SOLV>
0

>  <SCORE.SYSTEM.norm>
0

>  <SCORE.heavy>
27

>  <SCORE.norm>
-0.778721

>  <RMSD>
6.525

$$$$
ligand
 OpenBabel11021811483D
libRbt.so/2013.1/901 2013/11/27
 27 29  0  0  0  0  0  0  0  0999 V2000
  -17.5880   -5.7000   31.0578 N   0  0  0  0  0  0  0  0  0  0  0  0
  -17.0333   -5.6409   32.4075 C   0  0  2  0  0  0  0  0  0  0  0  0
  -17.8133   -6.5189   33.3825 C   0  0  0  0  0  0  0  0  0  0  0  0
  -17.2486   -7.0863   34.3203 O   0  0  0  0  0  0  0  0  0  0  0  0
  -16.9524   -4.1992   32.9003 C   0  0  0  0  0  0  0  0  0  0  0  0
  -15.9025   -3.3723   32.1744 C   0  0  0  0  0  0  0  0  0  0  0  0
  -14.2041   -3.9250   32.4681 S   0  0  2  0  0  0  0  0  0  0  0  0
  -13.2872   -2.4450   31.9725 C   0  0  0  0  0  0  0  0  0  0  0  0
  -13.9396   -5.0031   31.0342 C   0  0  0  0  0  0  0  0  0  0  0  0
  -14.1885   -6.4493   31.4377 C   0  0  1  0  0  0  0  0  0  0  0  0
  -14.2874   -7.2249   30.2671 O   0  0  0  0  0  0  0  0  0  0  0  0
  -13.0819   -7.1087   32.2393 C   0  0  1  0  0  0  0  0  0  0  0  0
  -13.3533   -7.0433   33.6216 O   0  0  0  0  0  0  0  0  0  0  0  0
  -13.1292   -8.5479   31.7677 C   0  0  1  0  0  0  0  0  0  0  0  0
  -13.7139   -9.3290   32.7805 O   0  0  0  0  0  0  0  0  0  0  0  0
  -14.0139   -8.5776   30.5287 C   0  0  2  0  0  0  0  0  0  0  0  0
  -19.0260   -6.6815   33.2466 O   0  0  0  0  0  0  0  0  0  0  0  0
  -10.0675   -7.8474   27.1129 N   0  0  0  0  0  0  0  0  0  0  0  0
  -10.5022   -6.9938   28.1076 C   0  0  0  0  0  0  0  0  0  0  0  0
  -11.5637   -7.3438   28.9206 N   0  0  0  0  0  0  0  0  0  0  0  0
  -12.1949   -8.5294   28.7479 C   0  0  0  0  0  0  0  0  0  0  0  0
  -11.7660   -9.4048   27.7579 C   0  0  0  0  0  0  0  0  0  0  0  0
  -10.7011   -9.0581   26.9352 C   0  0  0  0  0  0  0  0  0  0  0  0
  -10.2966   -9.8927   25.9808 N   0  0  0  0  0  0  0  0  0  0  0  0
  -12.5520  -10.5018   27.8060 N   0  0  0  0  0  0  0  0  0  0  0  0
  -13.4496  -10.3480   28.8077 C   0  0  0  0  0  0  0  0  0  0  0  0
  -13.2430   -9.1316   29.4030 N   0  0  0  0  0  0  0  0  0  0  0  0
  2  1  1  6  0  0  0
  2  3  1  0  0  0  0
  2  5  1  0  0  0  0
  3  4  1  0  0  0  0
  3 17  1  0  0  0  0
  5  6  1  0  0  0  0
  7  6  1  6  0  0  0
  7  8  1  0  0  0  0
  7  9  1  0  0  0  0
 10  9  1  6  0  0  0
 10 11  1  0  0  0  0
 10 12  1  0  0  0  0
 11 16  1  0  0  0  0
 12 13  1  1  0  0  0
 12 14  1  0  0  0  0
 14 15  1  1  0  0  0
 14 16  1  0  0  0  0
 16 27  1  6  0  0  0
 18 19  2  0  0  0  0
 18 23  1  0  0  0  0
 19 20  1  0  0  0  0
 20 21  2  0  0  0  0
 21 22  1  0  0  0  0
 21 27  1  0  0  0  0
 22 23  2  0  0  0  0
 22 25  1  0  0  0  0
 23 24  1  0  0  0  0
 25 26  2  0  0  0  0
 26 27  1  0  0  0  0
M  END
>  <CHROM.1>
146.90059087,-69.65188408,-65.62774737,-161.22478202,-97.23583312,166.43566448
42.99659141,-13.97774190,-6.98479322,30.81977277,2.45768605,0.64117504,0.29757539

>  <Name>
ligand

>  <RI>
0

>  <Rbt.Current_Directory>
/home/itssahil/PROJECTS/Mol_Feturizer/New_Systems/rnas/3GX6

>  <Rbt.Executable>
rbdock ($Id: //depot/dev/client3/rdock/2013.1/src/exe/rbdock.cxx#4 $)

>  <Rbt.Library>
libRbt.so (2013.1, Build901 2013/11/27)

>  <Rbt.Parameter_File>
/export/apps/rDock/src/rDock_2013.1_src/data/scripts/dock_solv.prm

>  <Rbt.Receptor>
prm/pocket_docking_7.prm

>  <SCORE>
-22.2984

>  <SCORE.INTER>
-13.1587

>  <SCORE.INTER.CONST>
1

>  <SCORE.INTER.POLAR>
0

>  <SCORE.INTER.ROT>
7

>  <SCORE.INTER.SOLV>
8.9244

>  <SCORE.INTER.VDW>
-20.014

>  <SCORE.INTER.norm>
-0.487361

>  <SCORE.INTRA>
-9.13962

>  <SCORE.INTRA.DIHEDRAL>
-6.82435

>  <SCORE.INTRA.DIHEDRAL.0>
15.0182

>  <SCORE.INTRA.POLAR>
0

>  <SCORE.INTRA.POLAR.0>
0

>  <SCORE.INTRA.REPUL>
0

>  <SCORE.INTRA.REPUL.0>
0

>  <SCORE.INTRA.SOLV>
1.38193

>  <SCORE.INTRA.SOLV.lig_0>
-47.9129

>  <SCORE.INTRA.VDW>
-6.41841

>  <SCORE.INTRA.VDW.0>
2.00851

>  <SCORE.INTRA.norm>
-0.338504

>  <SCORE.RESTR>
0

>  <SCORE.RESTR.CAVITY>
0

>  <SCORE.RESTR.norm>
0

>  <SCORE.SYSTEM>
0

>  <SCORE.SYSTEM.CONST>
0

>  <SCORE.SYSTEM.DIHEDRAL>
0

>  <SCORE.SYSTEM.SOLV>
0

>  <SCORE.SYSTEM.norm>
0

>  <SCORE.heavy>
27

>  <SCORE.norm>
-0.825865

>  <RMSD>
6.525

$$$$
ligand
 OpenBabel11021811483D
libRbt.so/2013.1/901 2013/11/27
 27 29  0  0  0  0  0  0  0  0999 V2000
  -14.0283   -1.3539   31.4560 N   0  0  0  0  0  0  0  0  0  0  0  0
  -13.2478   -2.5768   31.2883 C   0  0  2  0  0  0  0  0  0  0  0  0
  -13.7507   -3.4171   30.1174 C   0  0  0  0  0  0  0  0  0  0  0  0
  -14.9426   -3.4206   29.8016 O   0  0  0  0  0  0  0  0  0  0  0  0
  -13.2192   -3.3862   32.5814 C   0  0  0  0  0  0  0  0  0  0  0  0
  -14.6018   -3.7870   33.0719 C   0  0  0  0  0  0  0  0  0  0  0  0
  -14.7984   -5.5675   33.3320 S   0  0  2  0  0  0  0  0  0  0  0  0
  -14.5539   -6.1745   31.6443 C   0  0  0  0  0  0  0  0  0  0  0  0
  -16.5998   -5.6949   33.4974 C   0  0  0  0  0  0  0  0  0  0  0  0
  -17.0058   -7.1615   33.4762 C   0  0  1  0  0  0  0  0  0  0  0  0
  -16.2491   -7.8445   34.4471 O   0  0  0  0  0  0  0  0  0  0  0  0
  -18.4488   -7.4503   33.8454 C   0  0  1  0  0  0  0  0  0  0  0  0
  -19.2492   -7.5739   32.6909 O   0  0  0  0  0  0  0  0  0  0  0  0
  -18.3586   -8.7830   34.5606 C   0  0  1  0  0  0  0  0  0  0  0  0
  -18.8493   -9.7829   33.7020 O   0  0  0  0  0  0  0  0  0  0  0  0
  -16.8833   -9.0340   34.8418 C   0  0  2  0  0  0  0  0  0  0  0  0
  -12.9722   -4.1144   29.4668 O   0  0  0  0  0  0  0  0  0  0  0  0
  -13.6312   -8.5185   38.9568 N   0  0  0  0  0  0  0  0  0  0  0  0
  -13.3903   -8.1983   37.6353 C   0  0  0  0  0  0  0  0  0  0  0  0
  -14.3622   -8.4017   36.6739 N   0  0  0  0  0  0  0  0  0  0  0  0
  -15.5641   -8.9233   37.0167 C   0  0  0  0  0  0  0  0  0  0  0  0
  -15.8275   -9.2435   38.3428 C   0  0  0  0  0  0  0  0  0  0  0  0
  -14.8539   -9.0441   39.3140 C   0  0  0  0  0  0  0  0  0  0  0  0
  -15.1031   -9.3598   40.5826 N   0  0  0  0  0  0  0  0  0  0  0  0
  -17.0848   -9.7318   38.4091 N   0  0  0  0  0  0  0  0  0  0  0  0
  -17.6236   -9.7111   37.1674 C   0  0  0  0  0  0  0  0  0  0  0  0
  -16.6958   -9.2126   36.2915 N   0  0  0  0  0  0  0  0  0  0  0  0
  2  1  1  1  0  0  0
  2  3  1  0  0  0  0
  2  5  1  0  0  0  0
  3  4  1  0  0  0  0
  3 17  1  0  0  0  0
  5  6  1  0  0  0  0
  7  6  1  6  0  0  0
  7  8  1  0  0  0  0
  7  9  1  0  0  0  0
 10  9  1  1  0  0  0
 10 11  1  0  0  0  0
 10 12  1  0  0  0  0
 11 16  1  0  0  0  0
 12 13  1  6  0  0  0
 12 14  1  0  0  0  0
 14 15  1  6  0  0  0
 14 16  1  0  0  0  0
 16 27  1  1  0  0  0
 18 19  2  0  0  0  0
 18 23  1  0  0  0  0
 19 20  1  0  0  0  0
 20 21  2  0  0  0  0
 21 22  1  0  0  0  0
 21 27  1  0  0  0  0
 22 23  2  0  0  0  0
 22 25  1  0  0  0  0
 23 24  1  0  0  0  0
 25 26  2  0  0  0  0
 26 27  1  0  0  0  0
M  END
>  <CHROM.1>
-31.49081247,58.85440656,124.97294353,-62.99126210,169.88276734,52.82034055
-38.42049330,-15.60496054,-6.83119918,34.41923632,-1.31214986,0.56939128
2.13035700

>  <Name>
ligand

>  <RI>
0

>  <Rbt.Current_Directory>
/home/itssahil/PROJECTS/Mol_Feturizer/New_Systems/rnas/3GX6

>  <Rbt.Executable>
rbdock ($Id: //depot/dev/client3/rdock/2013.1/src/exe/rbdock.cxx#4 $)

>  <Rbt.Library>
libRbt.so (2013.1, Build901 2013/11/27)

>  <Rbt.Parameter_File>
/export/apps/rDock/src/rDock_2013.1_src/data/scripts/dock_solv.prm

>  <Rbt.Receptor>
prm/pocket_docking_6.prm

>  <SCORE>
-24.1496

>  <SCORE.INTER>
-16.7153

>  <SCORE.INTER.CONST>
1

>  <SCORE.INTER.POLAR>
0

>  <SCORE.INTER.ROT>
7

>  <SCORE.INTER.SOLV>
15.8556

>  <SCORE.INTER.VDW>
-24.6954

>  <SCORE.INTER.norm>
-0.619086

>  <SCORE.INTRA>
-7.44848

>  <SCORE.INTRA.DIHEDRAL>
-6.15809

>  <SCORE.INTRA.DIHEDRAL.0>
15.0182

>  <SCORE.INTRA.POLAR>
0

>  <SCORE.INTRA.POLAR.0>
0

>  <SCORE.INTRA.REPUL>
0

>  <SCORE.INTRA.REPUL.0>
0

>  <SCORE.INTRA.SOLV>
-1.06132

>  <SCORE.INTRA.SOLV.lig_0>
-47.9129

>  <SCORE.INTRA.VDW>
-3.83877

>  <SCORE.INTRA.VDW.0>
2.00851

>  <SCORE.INTRA.norm>
-0.27587

>  <SCORE.RESTR>
0.0142117

>  <SCORE.RESTR.CAVITY>
0.0142117

>  <SCORE.RESTR.norm>
0.000526358

>  <SCORE.SYSTEM>
0

>  <SCORE.SYSTEM.CONST>
0

>  <SCORE.SYSTEM.DIHEDRAL>
0

>  <SCORE.SYSTEM.SOLV>
0

>  <SCORE.SYSTEM.norm>
0

>  <SCORE.heavy>
27

>  <SCORE.norm>
-0.89443

>  <RMSD>
6.526

$$$$
ligand
 OpenBabel11021811483D
libRbt.so/2013.1/901 2013/11/27
 27 29  0  0  0  0  0  0  0  0999 V2000
  -15.0421   -8.8985   33.9011 N   0  0  0  0  0  0  0  0  0  0  0  0
  -14.0923   -7.8399   34.2330 C   0  0  2  0  0  0  0  0  0  0  0  0
  -13.8068   -7.7805   35.7313 C   0  0  0  0  0  0  0  0  0  0  0  0
  -14.5301   -8.3648   36.5411 O   0  0  0  0  0  0  0  0  0  0  0  0
  -14.5730   -6.4916   33.7049 C   0  0  0  0  0  0  0  0  0  0  0  0
  -13.5043   -5.4106   33.7513 C   0  0  0  0  0  0  0  0  0  0  0  0
  -13.4236   -4.3965   32.2542 S   0  0  2  0  0  0  0  0  0  0  0  0
  -12.0521   -3.2940   32.6782 C   0  0  0  0  0  0  0  0  0  0  0  0
  -14.8482   -3.3022   32.5019 C   0  0  0  0  0  0  0  0  0  0  0  0
  -15.8802   -3.5635   31.4141 C   0  0  1  0  0  0  0  0  0  0  0  0
  -15.2491   -3.4273   30.1632 O   0  0  0  0  0  0  0  0  0  0  0  0
  -16.4735   -4.9597   31.3915 C   0  0  1  0  0  0  0  0  0  0  0  0
  -17.7040   -4.9955   32.0795 O   0  0  0  0  0  0  0  0  0  0  0  0
  -16.6963   -5.2126   29.9142 C   0  0  1  0  0  0  0  0  0  0  0  0
  -18.0734   -5.1100   29.6480 O   0  0  0  0  0  0  0  0  0  0  0  0
  -15.9505   -4.1188   29.1618 C   0  0  2  0  0  0  0  0  0  0  0  0
  -12.8471   -7.1404   36.1612 O   0  0  0  0  0  0  0  0  0  0  0  0
  -11.5971   -7.0529   28.6990 N   0  0  0  0  0  0  0  0  0  0  0  0
  -12.2419   -6.6618   29.8559 C   0  0  0  0  0  0  0  0  0  0  0  0
  -13.3822   -5.8830   29.7967 N   0  0  0  0  0  0  0  0  0  0  0  0
  -13.8794   -5.4891   28.6003 C   0  0  0  0  0  0  0  0  0  0  0  0
  -13.2491   -5.8800   27.4254 C   0  0  0  0  0  0  0  0  0  0  0  0
  -12.1008   -6.6608   27.4777 C   0  0  0  0  0  0  0  0  0  0  0  0
  -11.4917   -7.0272   26.3526 N   0  0  0  0  0  0  0  0  0  0  0  0
  -13.9459   -5.3643   26.3900 N   0  0  0  0  0  0  0  0  0  0  0  0
  -15.0040   -4.6764   26.8797 C   0  0  0  0  0  0  0  0  0  0  0  0
  -14.9793   -4.7431   28.2478 N   0  0  0  0  0  0  0  0  0  0  0  0
  2  1  1  1  0  0  0
  2  3  1  0  0  0  0
  2  5  1  0  0  0  0
  3  4  1  0  0  0  0
  3 17  1  0  0  0  0
  5  6  1  0  0  0  0
  7  6  1  1  0  0  0
  7  8  1  0  0  0  0
  7  9  1  0  0  0  0
 10  9  1  1  0  0  0
 10 11  1  0  0  0  0
 10 12  1  0  0  0  0
 11 16  1  0  0  0  0
 12 13  1  1  0  0  0
 12 14  1  0  0  0  0
 14 15  1  1  0  0  0
 14 16  1  0  0  0  0
 16 27  1  6  0  0  0
 18 19  2  0  0  0  0
 18 23  1  0  0  0  0
 19 20  1  0  0  0  0
 20 21  2  0  0  0  0
 21 22  1  0  0  0  0
 21 27  1  0  0  0  0
 22 23  2  0  0  0  0
 22 25  1  0  0  0  0
 23 24  1  0  0  0  0
 25 26  2  0  0  0  0
 26 27  1  0  0  0  0
M  END
>  <CHROM.1>
-14.74086884,-167.62381495,136.30323555,-178.80915723,-115.70353133,-54.54886710
47.97382075,-14.31637621,-5.62249326,31.08685687,-1.60432095,0.54084166,-1.34470018

>  <Name>
ligand

>  <RI>
0

>  <Rbt.Current_Directory>
/home/itssahil/PROJECTS/Mol_Feturizer/New_Systems/rnas/3GX6

>  <Rbt.Executable>
rbdock ($Id: //depot/dev/client3/rdock/2013.1/src/exe/rbdock.cxx#4 $)

>  <Rbt.Library>
libRbt.so (2013.1, Build901 2013/11/27)

>  <Rbt.Parameter_File>
/export/apps/rDock/src/rDock_2013.1_src/data/scripts/dock_solv.prm

>  <Rbt.Receptor>
prm/pocket_docking_6.prm

>  <SCORE>
-21.4437

>  <SCORE.INTER>
-13.483

>  <SCORE.INTER.CONST>
1

>  <SCORE.INTER.POLAR>
0

>  <SCORE.INTER.ROT>
7

>  <SCORE.INTER.SOLV>
11.327

>  <SCORE.INTER.VDW>
-21.031

>  <SCORE.INTER.norm>
-0.49937

>  <SCORE.INTRA>
-7.96067

>  <SCORE.INTRA.DIHEDRAL>
-2.46684

>  <SCORE.INTRA.DIHEDRAL.0>
15.0182

>  <SCORE.INTRA.POLAR>
0

>  <SCORE.INTRA.POLAR.0>
0

>  <SCORE.INTRA.REPUL>
0

>  <SCORE.INTRA.REPUL.0>
0

>  <SCORE.INTRA.SOLV>
-1.39724

>  <SCORE.INTRA.SOLV.lig_0>
-47.9129

>  <SCORE.INTRA.VDW>
-6.02862

>  <SCORE.INTRA.VDW.0>
2.00851

>  <SCORE.INTRA.norm>
-0.294839

>  <SCORE.RESTR>
0

>  <SCORE.RESTR.CAVITY>
0

>  <SCORE.RESTR.norm>
0

>  <SCORE.SYSTEM>
0

>  <SCORE.SYSTEM.CONST>
0

>  <SCORE.SYSTEM.DIHEDRAL>
0

>  <SCORE.SYSTEM.SOLV>
0

>  <SCORE.SYSTEM.norm>
0

>  <SCORE.heavy>
27

>  <SCORE.norm>
-0.79421

>  <RMSD>
6.527

$$$$
ligand
 OpenBabel11021811483D
libRbt.so/2013.1/901 2013/11/27
 27 29  0  0  0  0  0  0  0  0999 V2000
  -13.6859   -8.7326   33.4325 N   0  0  0  0  0  0  0  0  0  0  0  0
  -12.8223   -7.9475   34.3104 C   0  0  2  0  0  0  0  0  0  0  0  0
  -13.3696   -7.8780   35.7337 C   0  0  0  0  0  0  0  0  0  0  0  0
  -14.3407   -8.5562   36.0764 O   0  0  0  0  0  0  0  0  0  0  0  0
  -12.5859   -6.5534   33.7372 C   0  0  0  0  0  0  0  0  0  0  0  0
  -13.8458   -5.7033   33.6818 C   0  0  0  0  0  0  0  0  0  0  0  0
  -13.7654   -4.3535   32.4785 S   0  0  2  0  0  0  0  0  0  0  0  0
  -12.6799   -3.1987   33.3529 C   0  0  0  0  0  0  0  0  0  0  0  0
  -15.3844   -3.5747   32.7254 C   0  0  0  0  0  0  0  0  0  0  0  0
  -16.4800   -4.5461   32.3101 C   0  0  1  0  0  0  0  0  0  0  0  0
  -16.0777   -5.1858   31.1225 O   0  0  0  0  0  0  0  0  0  0  0  0
  -16.7559   -5.6804   33.2792 C   0  0  1  0  0  0  0  0  0  0  0  0
  -17.8390   -5.3673   34.1263 O   0  0  0  0  0  0  0  0  0  0  0  0
  -17.1269   -6.8295   32.3639 C   0  0  1  0  0  0  0  0  0  0  0  0
  -18.5174   -7.0267   32.4388 O   0  0  0  0  0  0  0  0  0  0  0  0
  -16.7491   -6.4076   30.9505 C   0  0  2  0  0  0  0  0  0  0  0  0
  -12.8519   -7.1357   36.5683 O   0  0  0  0  0  0  0  0  0  0  0  0
  -15.9412  -10.1940   27.3747 N   0  0  0  0  0  0  0  0  0  0  0  0
  -17.0833   -9.4452   27.5795 C   0  0  0  0  0  0  0  0  0  0  0  0
  -17.1263   -8.4852   28.5728 N   0  0  0  0  0  0  0  0  0  0  0  0
  -16.0475   -8.2700   29.3625 C   0  0  0  0  0  0  0  0  0  0  0  0
  -14.8867   -9.0078   29.1657 C   0  0  0  0  0  0  0  0  0  0  0  0
  -14.8374   -9.9764   28.1706 C   0  0  0  0  0  0  0  0  0  0  0  0
  -13.7287  -10.6896   27.9885 N   0  0  0  0  0  0  0  0  0  0  0  0
  -13.9741   -8.5937   30.0709 N   0  0  0  0  0  0  0  0  0  0  0  0
  -14.5220   -7.6065   30.8179 C   0  0  0  0  0  0  0  0  0  0  0  0
  -15.8065   -7.3920   30.3928 N   0  0  0  0  0  0  0  0  0  0  0  0
  2  1  1  6  0  0  0
  2  3  1  0  0  0  0
  2  5  1  0  0  0  0
  3  4  1  0  0  0  0
  3 17  1  0  0  0  0
  5  6  1  0  0  0  0
  7  6  1  1  0  0  0
  7  8  1  0  0  0  0
  7  9  1  0  0  0  0
 10  9  1  1  0  0  0
 10 11  1  0  0  0  0
 10 12  1  0  0  0  0
 11 16  1  0  0  0  0
 12 13  1  1  0  0  0
 12 14  1  0  0  0  0
 14 15  1  6  0  0  0
 14 16  1  0  0  0  0
 16 27  1  1  0  0  0
 18 19  2  0  0  0  0
 18 23  1  0  0  0  0
 19 20  1  0  0  0  0
 20 21  2  0  0  0  0
 21 22  1  0  0  0  0
 21 27  1  0  0  0  0
 22 23  2  0  0  0  0
 22 25  1  0  0  0  0
 23 24  1  0  0  0  0
 25 26  2  0  0  0  0
 26 27  1  0  0  0  0
M  END
>  <CHROM.1>
7.93697251,65.72155872,-157.85553736,-75.11315751,-65.12857008,-41.63216791
-135.21501058,-15.08142848,-7.00703036,31.91896352,-1.23608118,0.74432897
-2.33277891

>  <Name>
ligand

>  <RI>
0

>  <Rbt.Current_Directory>
/home/itssahil/PROJECTS/Mol_Feturizer/New_Systems/rnas/3GX6

>  <Rbt.Executable>
rbdock ($Id: //depot/dev/client3/rdock/2013.1/src/exe/rbdock.cxx#4 $)

>  <Rbt.Library>
libRbt.so (2013.1, Build901 2013/11/27)

>  <Rbt.Parameter_File>
/export/apps/rDock/src/rDock_2013.1_src/data/scripts/dock_solv.prm

>  <Rbt.Receptor>
prm/pocket_docking_4.prm

>  <SCORE>
-19.5364

>  <SCORE.INTER>
-11.1935

>  <SCORE.INTER.CONST>
1

>  <SCORE.INTER.POLAR>
0

>  <SCORE.INTER.ROT>
7

>  <SCORE.INTER.SOLV>
16.668

>  <SCORE.INTER.VDW>
-21.285

>  <SCORE.INTER.norm>
-0.414574

>  <SCORE.INTRA>
-8.35323

>  <SCORE.INTRA.DIHEDRAL>
-8.75473

>  <SCORE.INTRA.DIHEDRAL.0>
15.0182

>  <SCORE.INTRA.POLAR>
0

>  <SCORE.INTRA.POLAR.0>
0

>  <SCORE.INTRA.REPUL>
0

>  <SCORE.INTRA.REPUL.0>
0

>  <SCORE.INTRA.SOLV>
0.713114

>  <SCORE.INTRA.SOLV.lig_0>
-47.9129

>  <SCORE.INTRA.VDW>
-4.33242

>  <SCORE.INTRA.VDW.0>
2.00851

>  <SCORE.INTRA.norm>
-0.309379

>  <SCORE.RESTR>
0.0103314

>  <SCORE.RESTR.CAVITY>
0.0103314

>  <SCORE.RESTR.norm>
0.000382643

>  <SCORE.SYSTEM>
0

>  <SCORE.SYSTEM.CONST>
0

>  <SCORE.SYSTEM.DIHEDRAL>
0

>  <SCORE.SYSTEM.SOLV>
0

>  <SCORE.SYSTEM.norm>
0

>  <SCORE.heavy>
27

>  <SCORE.norm>
-0.72357

>  <RMSD>
6.536

$$$$
ligand
 OpenBabel11021811483D
libRbt.so/2013.1/901 2013/11/27
 27 29  0  0  0  0  0  0  0  0999 V2000
  -13.2833   -1.9415   31.3956 N   0  0  0  0  0  0  0  0  0  0  0  0
  -14.5605   -2.6497   31.4047 C   0  0  2  0  0  0  0  0  0  0  0  0
  -15.7132   -1.7503   30.9659 C   0  0  0  0  0  0  0  0  0  0  0  0
  -15.7329   -0.5524   31.2574 O   0  0  0  0  0  0  0  0  0  0  0  0
  -14.8294   -3.2702   32.7724 C   0  0  0  0  0  0  0  0  0  0  0  0
  -13.6907   -4.1467   33.2706 C   0  0  0  0  0  0  0  0  0  0  0  0
  -13.6370   -5.7842   32.5011 S   0  0  2  0  0  0  0  0  0  0  0  0
  -12.2465   -6.5214   33.3953 C   0  0  0  0  0  0  0  0  0  0  0  0
  -12.8658   -5.3911   30.9076 C   0  0  0  0  0  0  0  0  0  0  0  0
  -12.2605   -6.6553   30.3147 C   0  0  1  0  0  0  0  0  0  0  0  0
  -13.2043   -7.6936   30.4283 O   0  0  0  0  0  0  0  0  0  0  0  0
  -11.9346   -6.5971   28.8340 C   0  0  1  0  0  0  0  0  0  0  0  0
  -10.5780   -6.2713   28.6290 O   0  0  0  0  0  0  0  0  0  0  0  0
  -12.2052   -8.0135   28.3685 C   0  0  1  0  0  0  0  0  0  0  0  0
  -10.9720   -8.6550   28.1555 O   0  0  0  0  0  0  0  0  0  0  0  0
  -12.9538   -8.7129   29.4950 C   0  0  2  0  0  0  0  0  0  0  0  0
  -16.6518   -2.2082   30.3140 O   0  0  0  0  0  0  0  0  0  0  0  0
  -16.1114   -9.2344   25.3077 N   0  0  0  0  0  0  0  0  0  0  0  0
  -14.8620   -8.6488   25.3649 C   0  0  0  0  0  0  0  0  0  0  0  0
  -14.1648   -8.5942   26.5570 N   0  0  0  0  0  0  0  0  0  0  0  0
  -14.7020   -9.1115   27.6874 C   0  0  0  0  0  0  0  0  0  0  0  0
  -15.9542   -9.7122   27.6473 C   0  0  0  0  0  0  0  0  0  0  0  0
  -16.6619   -9.7682   26.4527 C   0  0  0  0  0  0  0  0  0  0  0  0
  -17.8654  -10.3351   26.4165 N   0  0  0  0  0  0  0  0  0  0  0  0
  -16.2458  -10.1456   28.8925 N   0  0  0  0  0  0  0  0  0  0  0  0
  -15.2068   -9.8502   29.7084 C   0  0  0  0  0  0  0  0  0  0  0  0
  -14.2404   -9.2095   28.9788 N   0  0  0  0  0  0  0  0  0  0  0  0
  2  1  1  1  0  0  0
  2  3  1  0  0  0  0
  2  5  1  0  0  0  0
  3  4  1  0  0  0  0
  3 17  1  0  0  0  0
  5  6  1  0  0  0  0
  7  6  1  1  0  0  0
  7  8  1  0  0  0  0
  7  9  1  0  0  0  0
 10  9  1  6  0  0  0
 10 11  1  0  0  0  0
 10 12  1  0  0  0  0
 11 16  1  0  0  0  0
 12 13  1  1  0  0  0
 12 14  1  0  0  0  0
 14 15  1  1  0  0  0
 14 16  1  0  0  0  0
 16 27  1  6  0  0  0
 18 19  2  0  0  0  0
 18 23  1  0  0  0  0
 19 20  1  0  0  0  0
 20 21  2  0  0  0  0
 21 22  1  0  0  0  0
 21 27  1  0  0  0  0
 22 23  2  0  0  0  0
 22 25  1  0  0  0  0
 23 24  1  0  0  0  0
 25 26  2  0  0  0  0
 26 27  1  0  0  0  0
M  END
>  <CHROM.1>
-35.32045910,-53.12950910,-77.72395577,-177.20311526,159.19933627,46.16971495
114.94509773,-14.12422065,-6.59218405,29.66196667,1.46320045,-0.46424960
0.58127982

>  <Name>
ligand

>  <RI>
0

>  <Rbt.Current_Directory>
/home/itssahil/PROJECTS/Mol_Feturizer/New_Systems/rnas/3GX6

>  <Rbt.Executable>
rbdock ($Id: //depot/dev/client3/rdock/2013.1/src/exe/rbdock.cxx#4 $)

>  <Rbt.Library>
libRbt.so (2013.1, Build901 2013/11/27)

>  <Rbt.Parameter_File>
/export/apps/rDock/src/rDock_2013.1_src/data/scripts/dock_solv.prm

>  <Rbt.Receptor>
prm/pocket_docking_5.prm

>  <SCORE>
-18.219

>  <SCORE.INTER>
-10.8205

>  <SCORE.INTER.CONST>
1

>  <SCORE.INTER.POLAR>
0

>  <SCORE.INTER.ROT>
7

>  <SCORE.INTER.SOLV>
21.2688

>  <SCORE.INTER.VDW>
-22.5699

>  <SCORE.INTER.norm>
-0.400758

>  <SCORE.INTRA>
-7.39851

>  <SCORE.INTRA.DIHEDRAL>
-9.14406

>  <SCORE.INTRA.DIHEDRAL.0>
15.0182

>  <SCORE.INTRA.POLAR>
0

>  <SCORE.INTRA.POLAR.0>
0

>  <SCORE.INTRA.REPUL>
0

>  <SCORE.INTRA.REPUL.0>
0

>  <SCORE.INTRA.SOLV>
0.366426

>  <SCORE.INTRA.SOLV.lig_0>
-47.9129

>  <SCORE.INTRA.VDW>
-3.00969

>  <SCORE.INTRA.VDW.0>
2.00851

>  <SCORE.INTRA.norm>
-0.274019

>  <SCORE.RESTR>
0

>  <SCORE.RESTR.CAVITY>
0

>  <SCORE.RESTR.norm>
0

>  <SCORE.SYSTEM>
0

>  <SCORE.SYSTEM.CONST>
0

>  <SCORE.SYSTEM.DIHEDRAL>
0

>  <SCORE.SYSTEM.SOLV>
0

>  <SCORE.SYSTEM.norm>
0

>  <SCORE.heavy>
27

>  <SCORE.norm>
-0.674777

>  <RMSD>
6.536

$$$$
ligand
 OpenBabel11021811483D
libRbt.so/2013.1/901 2013/11/27
 27 29  0  0  0  0  0  0  0  0999 V2000
  -14.0127   -4.2630   31.8765 N   0  0  0  0  0  0  0  0  0  0  0  0
  -13.6256   -5.4654   32.6095 C   0  0  2  0  0  0  0  0  0  0  0  0
  -13.0348   -5.1329   33.9771 C   0  0  0  0  0  0  0  0  0  0  0  0
  -12.9431   -5.9917   34.8571 O   0  0  0  0  0  0  0  0  0  0  0  0
  -12.6698   -6.3220   31.7845 C   0  0  0  0  0  0  0  0  0  0  0  0
  -13.3804   -7.2578   30.8189 C   0  0  0  0  0  0  0  0  0  0  0  0
  -14.1153   -8.7088   31.6131 S   0  0  2  0  0  0  0  0  0  0  0  0
  -15.0039   -9.4345   30.2129 C   0  0  0  0  0  0  0  0  0  0  0  0
  -15.4747   -7.9440   32.5381 C   0  0  0  0  0  0  0  0  0  0  0  0
  -16.0379   -8.9502   33.5315 C   0  0  1  0  0  0  0  0  0  0  0  0
  -15.0484   -9.2223   34.4951 O   0  0  0  0  0  0  0  0  0  0  0  0
  -17.2350   -8.4807   34.3366 C   0  0  1  0  0  0  0  0  0  0  0  0
  -18.4403   -8.9152   33.7475 O   0  0  0  0  0  0  0  0  0  0  0  0
  -17.0353   -9.1622   35.6751 C   0  0  1  0  0  0  0  0  0  0  0  0
  -17.9523  -10.2238   35.7750 O   0  0  0  0  0  0  0  0  0  0  0  0
  -15.6162   -9.7144   35.6819 C   0  0  2  0  0  0  0  0  0  0  0  0
  -12.6416   -3.9939   34.2294 O   0  0  0  0  0  0  0  0  0  0  0  0
  -15.6356   -8.7156   40.8566 N   0  0  0  0  0  0  0  0  0  0  0  0
  -16.6171   -9.3296   40.1037 C   0  0  0  0  0  0  0  0  0  0  0  0
  -16.4497   -9.5119   38.7440 N   0  0  0  0  0  0  0  0  0  0  0  0
  -15.3200   -9.0851   38.1311 C   0  0  0  0  0  0  0  0  0  0  0  0
  -14.3179   -8.4729   38.8738 C   0  0  0  0  0  0  0  0  0  0  0  0
  -14.4808   -8.2841   40.2408 C   0  0  0  0  0  0  0  0  0  0  0  0
  -13.5249   -7.6891   40.9503 N   0  0  0  0  0  0  0  0  0  0  0  0
  -13.3118   -8.1565   38.0304 N   0  0  0  0  0  0  0  0  0  0  0  0
  -13.6455   -8.5675   36.7845 C   0  0  0  0  0  0  0  0  0  0  0  0
  -14.8867   -9.1458   36.8277 N   0  0  0  0  0  0  0  0  0  0  0  0
  2  1  1  6  0  0  0
  2  3  1  0  0  0  0
  2  5  1  0  0  0  0
  3  4  1  0  0  0  0
  3 17  1  0  0  0  0
  5  6  1  0  0  0  0
  7  6  1  6  0  0  0
  7  8  1  0  0  0  0
  7  9  1  0  0  0  0
 10  9  1  6  0  0  0
 10 11  1  0  0  0  0
 10 12  1  0  0  0  0
 11 16  1  0  0  0  0
 12 13  1  6  0  0  0
 12 14  1  0  0  0  0
 14 15  1  6  0  0  0
 14 16  1  0  0  0  0
 16 27  1  1  0  0  0
 18 19  2  0  0  0  0
 18 23  1  0  0  0  0
 19 20  1  0  0  0  0
 20 21  2  0  0  0  0
 21 22  1  0  0  0  0
 21 27  1  0  0  0  0
 22 23  2  0  0  0  0
 22 25  1  0  0  0  0
 23 24  1  0  0  0  0
 25 26  2  0  0  0  0
 26 27  1  0  0  0  0
M  END
>  <CHROM.1>
162.73459502,-84.82907938,-76.10164200,173.59036847,-167.29899000,66.05554211
161.73919636,-14.87973217,-8.02409939,35.17743221,-1.34112847,0.78387007
1.64619720

>  <Name>
ligand

>  <RI>
0

>  <Rbt.Current_Directory>
/home/itssahil/PROJECTS/Mol_Feturizer/New_Systems/rnas/3GX6

>  <Rbt.Executable>
rbdock ($Id: //depot/dev/client3/rdock/2013.1/src/exe/rbdock.cxx#4 $)

>  <Rbt.Library>
libRbt.so (2013.1, Build901 2013/11/27)

>  <Rbt.Parameter_File>
/export/apps/rDock/src/rDock_2013.1_src/data/scripts/dock_solv.prm

>  <Rbt.Receptor>
prm/pocket_docking_8.prm

>  <SCORE>
-27.2864

>  <SCORE.INTER>
-18.3327

>  <SCORE.INTER.CONST>
1

>  <SCORE.INTER.POLAR>
0

>  <SCORE.INTER.ROT>
7

>  <SCORE.INTER.SOLV>
13.1375

>  <SCORE.INTER.VDW>
-24.8676

>  <SCORE.INTER.norm>
-0.67899

>  <SCORE.INTRA>
-8.95368

>  <SCORE.INTRA.DIHEDRAL>
-7.39957

>  <SCORE.INTRA.DIHEDRAL.0>
15.0182

>  <SCORE.INTRA.POLAR>
0

>  <SCORE.INTRA.POLAR.0>
0

>  <SCORE.INTRA.REPUL>
0

>  <SCORE.INTRA.REPUL.0>
0

>  <SCORE.INTRA.SOLV>
-0.596682

>  <SCORE.INTRA.SOLV.lig_0>
-47.9129

>  <SCORE.INTRA.VDW>
-4.95556

>  <SCORE.INTRA.VDW.0>
2.00851

>  <SCORE.INTRA.norm>
-0.331618

>  <SCORE.RESTR>
0

>  <SCORE.RESTR.CAVITY>
0

>  <SCORE.RESTR.norm>
0

>  <SCORE.SYSTEM>
0

>  <SCORE.SYSTEM.CONST>
0

>  <SCORE.SYSTEM.DIHEDRAL>
0

>  <SCORE.SYSTEM.SOLV>
0

>  <SCORE.SYSTEM.norm>
0

>  <SCORE.heavy>
27

>  <SCORE.norm>
-1.01061

>  <RMSD>
6.553

$$$$
ligand
 OpenBabel11021811483D
libRbt.so/2013.1/901 2013/11/27
 27 29  0  0  0  0  0  0  0  0999 V2000
  -12.4082   -3.0284   31.8334 N   0  0  0  0  0  0  0  0  0  0  0  0
  -13.7356   -3.0244   31.2243 C   0  0  2  0  0  0  0  0  0  0  0  0
  -14.5592   -1.8162   31.6622 C   0  0  0  0  0  0  0  0  0  0  0  0
  -15.3336   -1.2568   30.8825 O   0  0  0  0  0  0  0  0  0  0  0  0
  -14.4700   -4.3308   31.5104 C   0  0  0  0  0  0  0  0  0  0  0  0
  -15.8690   -4.3782   30.9158 C   0  0  0  0  0  0  0  0  0  0  0  0
  -16.6421   -6.0130   30.9931 S   0  0  2  0  0  0  0  0  0  0  0  0
  -18.3444   -5.5925   30.5440 C   0  0  0  0  0  0  0  0  0  0  0  0
  -16.7934   -6.2384   32.7860 C   0  0  0  0  0  0  0  0  0  0  0  0
  -17.4402   -7.5860   33.0722 C   0  0  1  0  0  0  0  0  0  0  0  0
  -16.6308   -8.2793   33.9919 O   0  0  0  0  0  0  0  0  0  0  0  0
  -18.8062   -7.5339   33.7306 C   0  0  1  0  0  0  0  0  0  0  0  0
  -19.8330   -7.6389   32.7698 O   0  0  0  0  0  0  0  0  0  0  0  0
  -18.8023   -8.7581   34.6234 C   0  0  1  0  0  0  0  0  0  0  0  0
  -19.6206   -9.7396   34.0361 O   0  0  0  0  0  0  0  0  0  0  0  0
  -17.3659   -9.2603   34.6776 C   0  0  2  0  0  0  0  0  0  0  0  0
  -14.4610   -1.3726   32.8064 O   0  0  0  0  0  0  0  0  0  0  0  0
  -13.4239   -8.3979   38.0676 N   0  0  0  0  0  0  0  0  0  0  0  0
  -13.4227   -8.2243   36.6977 C   0  0  0  0  0  0  0  0  0  0  0  0
  -14.5528   -8.5030   35.9524 N   0  0  0  0  0  0  0  0  0  0  0  0
  -15.6765   -8.9552   36.5579 C   0  0  0  0  0  0  0  0  0  0  0  0
  -15.6991   -9.1278   37.9364 C   0  0  0  0  0  0  0  0  0  0  0  0
  -14.5656   -8.8521   38.6914 C   0  0  0  0  0  0  0  0  0  0  0  0
  -14.5845   -9.0265   40.0107 N   0  0  0  0  0  0  0  0  0  0  0  0
  -16.9269   -9.5745   38.2779 N   0  0  0  0  0  0  0  0  0  0  0  0
  -17.6801   -9.6707   37.1571 C   0  0  0  0  0  0  0  0  0  0  0  0
  -16.9219   -9.2905   36.0813 N   0  0  0  0  0  0  0  0  0  0  0  0
  2  1  1  1  0  0  0
  2  3  1  0  0  0  0
  2  5  1  0  0  0  0
  3  4  1  0  0  0  0
  3 17  1  0  0  0  0
  5  6  1  0  0  0  0
  7  6  1  1  0  0  0
  7  8  1  0  0  0  0
  7  9  1  0  0  0  0
 10  9  1  1  0  0  0
 10 11  1  0  0  0  0
 10 12  1  0  0  0  0
 11 16  1  0  0  0  0
 12 13  1  6  0  0  0
 12 14  1  0  0  0  0
 14 15  1  6  0  0  0
 14 16  1  0  0  0  0
 16 27  1  1  0  0  0
 18 19  2  0  0  0  0
 18 23  1  0  0  0  0
 19 20  1  0  0  0  0
 20 21  2  0  0  0  0
 21 22  1  0  0  0  0
 21 27  1  0  0  0  0
 22 23  2  0  0  0  0
 22 25  1  0  0  0  0
 23 24  1  0  0  0  0
 25 26  2  0  0  0  0
 26 27  1  0  0  0  0
M  END
>  <CHROM.1>
144.04159123,179.22140484,169.89610454,168.55709933,179.85574496,128.28867963
-28.31613504,-16.16493594,-6.76271506,34.09544614,-1.43099300,0.59240257
2.27775885

>  <Name>
ligand

>  <RI>
0

>  <Rbt.Current_Directory>
/home/itssahil/PROJECTS/Mol_Feturizer/New_Systems/rnas/3GX6

>  <Rbt.Executable>
rbdock ($Id: //depot/dev/client3/rdock/2013.1/src/exe/rbdock.cxx#4 $)

>  <Rbt.Library>
libRbt.so (2013.1, Build901 2013/11/27)

>  <Rbt.Parameter_File>
/export/apps/rDock/src/rDock_2013.1_src/data/scripts/dock_solv.prm

>  <Rbt.Receptor>
prm/pocket_docking_8.prm

>  <SCORE>
-22.8256

>  <SCORE.INTER>
-14.9216

>  <SCORE.INTER.CONST>
1

>  <SCORE.INTER.POLAR>
0

>  <SCORE.INTER.ROT>
7

>  <SCORE.INTER.SOLV>
15.0709

>  <SCORE.INTER.VDW>
-23.238

>  <SCORE.INTER.norm>
-0.552652

>  <SCORE.INTRA>
-7.90399

>  <SCORE.INTRA.DIHEDRAL>
-6.23619

>  <SCORE.INTRA.DIHEDRAL.0>
15.0182

>  <SCORE.INTRA.POLAR>
0

>  <SCORE.INTRA.POLAR.0>
0

>  <SCORE.INTRA.REPUL>
0

>  <SCORE.INTRA.REPUL.0>
0

>  <SCORE.INTRA.SOLV>
-1.64795

>  <SCORE.INTRA.SOLV.lig_0>
-47.9129

>  <SCORE.INTRA.VDW>
-3.96192

>  <SCORE.INTRA.VDW.0>
2.00851

>  <SCORE.INTRA.norm>
-0.29274

>  <SCORE.RESTR>
0

>  <SCORE.RESTR.CAVITY>
0

>  <SCORE.RESTR.norm>
0

>  <SCORE.SYSTEM>
0

>  <SCORE.SYSTEM.CONST>
0

>  <SCORE.SYSTEM.DIHEDRAL>
0

>  <SCORE.SYSTEM.SOLV>
0

>  <SCORE.SYSTEM.norm>
0

>  <SCORE.heavy>
27

>  <SCORE.norm>
-0.845393

>  <RMSD>
6.556

$$$$
ligand
 OpenBabel11021811483D
libRbt.so/2013.1/901 2013/11/27
 27 29  0  0  0  0  0  0  0  0999 V2000
  -15.2234   -9.2754   34.3229 N   0  0  0  0  0  0  0  0  0  0  0  0
  -14.2112   -8.2550   34.5824 C   0  0  2  0  0  0  0  0  0  0  0  0
  -13.9925   -8.0374   36.0773 C   0  0  0  0  0  0  0  0  0  0  0  0
  -14.7963   -8.4670   36.9078 O   0  0  0  0  0  0  0  0  0  0  0  0
  -14.5612   -6.9487   33.8760 C   0  0  0  0  0  0  0  0  0  0  0  0
  -13.3997   -5.9690   33.8110 C   0  0  0  0  0  0  0  0  0  0  0  0
  -13.5256   -4.7734   32.4580 S   0  0  2  0  0  0  0  0  0  0  0  0
  -12.1630   -3.6581   32.8778 C   0  0  0  0  0  0  0  0  0  0  0  0
  -14.9589   -3.7989   32.9912 C   0  0  0  0  0  0  0  0  0  0  0  0
  -16.0904   -3.9759   31.9889 C   0  0  1  0  0  0  0  0  0  0  0  0
  -15.5876   -3.7081   30.7017 O   0  0  0  0  0  0  0  0  0  0  0  0
  -16.6680   -5.3753   31.8888 C   0  0  1  0  0  0  0  0  0  0  0  0
  -17.8240   -5.5017   32.6865 O   0  0  0  0  0  0  0  0  0  0  0  0
  -17.0329   -5.4905   30.4227 C   0  0  1  0  0  0  0  0  0  0  0  0
  -18.4306   -5.3909   30.3030 O   0  0  0  0  0  0  0  0  0  0  0  0
  -16.3771   -4.3149   29.7110 C   0  0  2  0  0  0  0  0  0  0  0  0
  -13.0069   -7.4212   36.4830 O   0  0  0  0  0  0  0  0  0  0  0  0
  -15.3177   -8.2770   26.4012 N   0  0  0  0  0  0  0  0  0  0  0  0
  -16.3436   -8.1866   27.3212 C   0  0  0  0  0  0  0  0  0  0  0  0
  -16.4757   -7.0662   28.1197 N   0  0  0  0  0  0  0  0  0  0  0  0
  -15.5954   -6.0428   28.0123 C   0  0  0  0  0  0  0  0  0  0  0  0
  -14.5619   -6.1123   27.0862 C   0  0  0  0  0  0  0  0  0  0  0  0
  -14.4216   -7.2369   26.2822 C   0  0  0  0  0  0  0  0  0  0  0  0
  -13.4260   -7.3073   25.4019 N   0  0  0  0  0  0  0  0  0  0  0  0
  -13.8448   -4.9718   27.1794 N   0  0  0  0  0  0  0  0  0  0  0  0
  -14.4079   -4.1820   28.1238 C   0  0  0  0  0  0  0  0  0  0  0  0
  -15.4943   -4.8292   28.6505 N   0  0  0  0  0  0  0  0  0  0  0  0
  2  1  1  1  0  0  0
  2  3  1  0  0  0  0
  2  5  1  0  0  0  0
  3  4  1  0  0  0  0
  3 17  1  0  0  0  0
  5  6  1  0  0  0  0
  7  6  1  1  0  0  0
  7  8  1  0  0  0  0
  7  9  1  0  0  0  0
 10  9  1  1  0  0  0
 10 11  1  0  0  0  0
 10 12  1  0  0  0  0
 11 16  1  0  0  0  0
 12 13  1  1  0  0  0
 12 14  1  0  0  0  0
 14 15  1  1  0  0  0
 14 16  1  0  0  0  0
 16 27  1  6  0  0  0
 18 19  2  0  0  0  0
 18 23  1  0  0  0  0
 19 20  1  0  0  0  0
 20 21  2  0  0  0  0
 21 22  1  0  0  0  0
 21 27  1  0  0  0  0
 22 23  2  0  0  0  0
 22 25  1  0  0  0  0
 23 24  1  0  0  0  0
 25 26  2  0  0  0  0
 26 27  1  0  0  0  0
M  END
>  <CHROM.1>
-14.79087045,-165.48841600,156.04434239,171.06560176,-115.86952857,-51.84838196
137.29410754,-15.03605554,-6.01900267,31.10863896,-0.47336696,1.43395863
-2.57205741

>  <Name>
ligand

>  <RI>
0

>  <Rbt.Current_Directory>
/home/itssahil/PROJECTS/Mol_Feturizer/New_Systems/rnas/3GX6

>  <Rbt.Executable>
rbdock ($Id: //depot/dev/client3/rdock/2013.1/src/exe/rbdock.cxx#4 $)

>  <Rbt.Library>
libRbt.so (2013.1, Build901 2013/11/27)

>  <Rbt.Parameter_File>
/export/apps/rDock/src/rDock_2013.1_src/data/scripts/dock_solv.prm

>  <Rbt.Receptor>
prm/pocket_docking_5.prm

>  <SCORE>
-18.7569

>  <SCORE.INTER>
-11.136

>  <SCORE.INTER.CONST>
1

>  <SCORE.INTER.POLAR>
0

>  <SCORE.INTER.ROT>
7

>  <SCORE.INTER.SOLV>
9.8501

>  <SCORE.INTER.VDW>
-18.974

>  <SCORE.INTER.norm>
-0.412445

>  <SCORE.INTRA>
-7.62088

>  <SCORE.INTRA.DIHEDRAL>
-5.04281

>  <SCORE.INTRA.DIHEDRAL.0>
15.0182

>  <SCORE.INTRA.POLAR>
0

>  <SCORE.INTRA.POLAR.0>
0

>  <SCORE.INTRA.REPUL>
0

>  <SCORE.INTRA.REPUL.0>
0

>  <SCORE.INTRA.SOLV>
-1.42185

>  <SCORE.INTRA.SOLV.lig_0>
-47.9129

>  <SCORE.INTRA.VDW>
-4.38855

>  <SCORE.INTRA.VDW.0>
2.00851

>  <SCORE.INTRA.norm>
-0.282255

>  <SCORE.RESTR>
0

>  <SCORE.RESTR.CAVITY>
0

>  <SCORE.RESTR.norm>
0

>  <SCORE.SYSTEM>
0

>  <SCORE.SYSTEM.CONST>
0

>  <SCORE.SYSTEM.DIHEDRAL>
0

>  <SCORE.SYSTEM.SOLV>
0

>  <SCORE.SYSTEM.norm>
0

>  <SCORE.heavy>
27

>  <SCORE.norm>
-0.6947

>  <RMSD>
6.559

$$$$
ligand
 OpenBabel11021811483D
libRbt.so/2013.1/901 2013/11/27
 27 29  0  0  0  0  0  0  0  0999 V2000
  -14.7161   -8.5086   33.4987 N   0  0  0  0  0  0  0  0  0  0  0  0
  -13.4917   -7.9982   34.1096 C   0  0  2  0  0  0  0  0  0  0  0  0
  -13.6585   -7.7634   35.6086 C   0  0  0  0  0  0  0  0  0  0  0  0
  -12.9436   -6.9593   36.2108 O   0  0  0  0  0  0  0  0  0  0  0  0
  -13.0140   -6.7353   33.3991 C   0  0  0  0  0  0  0  0  0  0  0  0
  -14.0786   -5.6524   33.3146 C   0  0  0  0  0  0  0  0  0  0  0  0
  -13.6522   -4.2926   32.1986 S   0  0  2  0  0  0  0  0  0  0  0  0
  -12.3754   -3.4570   33.1723 C   0  0  0  0  0  0  0  0  0  0  0  0
  -15.0679   -3.1866   32.4462 C   0  0  0  0  0  0  0  0  0  0  0  0
  -16.2000   -3.6006   31.5171 C   0  0  1  0  0  0  0  0  0  0  0  0
  -15.7597   -3.4508   30.1885 O   0  0  0  0  0  0  0  0  0  0  0  0
  -16.6333   -5.0514   31.6135 C   0  0  1  0  0  0  0  0  0  0  0  0
  -17.7499   -5.1884   32.4638 O   0  0  0  0  0  0  0  0  0  0  0  0
  -17.0211   -5.3879   30.1879 C   0  0  1  0  0  0  0  0  0  0  0  0
  -18.4242   -5.4426   30.1096 O   0  0  0  0  0  0  0  0  0  0  0  0
  -16.5073   -4.2537   29.3114 C   0  0  2  0  0  0  0  0  0  0  0  0
  -14.5111   -8.3798   36.2481 O   0  0  0  0  0  0  0  0  0  0  0  0
  -15.3534   -8.3633   26.2201 N   0  0  0  0  0  0  0  0  0  0  0  0
  -16.3935   -8.2397   27.1201 C   0  0  0  0  0  0  0  0  0  0  0  0
  -16.5503   -7.0824   27.8593 N   0  0  0  0  0  0  0  0  0  0  0  0
  -15.6807   -6.0547   27.7128 C   0  0  0  0  0  0  0  0  0  0  0  0
  -14.6331   -6.1576   26.8058 C   0  0  0  0  0  0  0  0  0  0  0  0
  -14.4680   -7.3193   26.0614 C   0  0  0  0  0  0  0  0  0  0  0  0
  -13.4590   -7.4213   25.1997 N   0  0  0  0  0  0  0  0  0  0  0  0
  -13.9310   -5.0050   26.8514 N   0  0  0  0  0  0  0  0  0  0  0  0
  -14.5170   -4.1760   27.7470 C   0  0  0  0  0  0  0  0  0  0  0  0
  -15.6032   -4.8095   28.2904 N   0  0  0  0  0  0  0  0  0  0  0  0
  2  1  1  6  0  0  0
  2  3  1  0  0  0  0
  2  5  1  0  0  0  0
  3  4  1  0  0  0  0
  3 17  1  0  0  0  0
  5  6  1  0  0  0  0
  7  6  1  1  0  0  0
  7  8  1  0  0  0  0
  7  9  1  0  0  0  0
 10  9  1  1  0  0  0
 10 11  1  0  0  0  0
 10 12  1  0  0  0  0
 11 16  1  0  0  0  0
 12 13  1  1  0  0  0
 12 14  1  0  0  0  0
 14 15  1  1  0  0  0
 14 16  1  0  0  0  0
 16 27  1  6  0  0  0
 18 19  2  0  0  0  0
 18 23  1  0  0  0  0
 19 20  1  0  0  0  0
 20 21  2  0  0  0  0
 21 22  1  0  0  0  0
 21 27  1  0  0  0  0
 22 23  2  0  0  0  0
 22 25  1  0  0  0  0
 23 24  1  0  0  0  0
 25 26  2  0  0  0  0
 26 27  1  0  0  0  0
M  END
>  <CHROM.1>
-155.97907769,54.12654363,-168.35945455,-72.64931692,-85.90268147,-62.58218206
144.49269125,-14.99407907,-5.82766820,30.77181952,-1.08003707,1.17877083
-2.00724885

>  <Name>
ligand

>  <RI>
0

>  <Rbt.Current_Directory>
/home/itssahil/PROJECTS/Mol_Feturizer/New_Systems/rnas/3GX6

>  <Rbt.Executable>
rbdock ($Id: //depot/dev/client3/rdock/2013.1/src/exe/rbdock.cxx#4 $)

>  <Rbt.Library>
libRbt.so (2013.1, Build901 2013/11/27)

>  <Rbt.Parameter_File>
/export/apps/rDock/src/rDock_2013.1_src/data/scripts/dock_solv.prm

>  <Rbt.Receptor>
prm/pocket_docking_4.prm

>  <SCORE>
-22.9006

>  <SCORE.INTER>
-14.0264

>  <SCORE.INTER.CONST>
1

>  <SCORE.INTER.POLAR>
0

>  <SCORE.INTER.ROT>
7

>  <SCORE.INTER.SOLV>
8.32118

>  <SCORE.INTER.VDW>
-20.3913

>  <SCORE.INTER.norm>
-0.519495

>  <SCORE.INTRA>
-8.87424

>  <SCORE.INTRA.DIHEDRAL>
-10.2517

>  <SCORE.INTRA.DIHEDRAL.0>
15.0182

>  <SCORE.INTRA.POLAR>
0

>  <SCORE.INTRA.POLAR.0>
0

>  <SCORE.INTRA.REPUL>
0

>  <SCORE.INTRA.REPUL.0>
0

>  <SCORE.INTRA.SOLV>
-0.534913

>  <SCORE.INTRA.SOLV.lig_0>
-47.9129

>  <SCORE.INTRA.VDW>
-3.48094

>  <SCORE.INTRA.VDW.0>
2.00851

>  <SCORE.INTRA.norm>
-0.328675

>  <SCORE.RESTR>
0

>  <SCORE.RESTR.CAVITY>
0

>  <SCORE.RESTR.norm>
0

>  <SCORE.SYSTEM>
0

>  <SCORE.SYSTEM.CONST>
0

>  <SCORE.SYSTEM.DIHEDRAL>
0

>  <SCORE.SYSTEM.SOLV>
0

>  <SCORE.SYSTEM.norm>
0

>  <SCORE.heavy>
27

>  <SCORE.norm>
-0.84817

>  <RMSD>
6.570

$$$$
ligand
 OpenBabel11021811483D
libRbt.so/2013.1/901 2013/11/27
 27 29  0  0  0  0  0  0  0  0999 V2000
  -12.9977   -8.2700   35.3660 N   0  0  0  0  0  0  0  0  0  0  0  0
  -14.0030   -7.3090   34.9203 C   0  0  2  0  0  0  0  0  0  0  0  0
  -15.2656   -8.0002   34.4123 C   0  0  0  0  0  0  0  0  0  0  0  0
  -16.3815   -7.5154   34.6126 O   0  0  0  0  0  0  0  0  0  0  0  0
  -13.4256   -6.3646   33.8702 C   0  0  0  0  0  0  0  0  0  0  0  0
  -14.4121   -5.3040   33.4064 C   0  0  0  0  0  0  0  0  0  0  0  0
  -13.7261   -4.1458   32.1963 S   0  0  2  0  0  0  0  0  0  0  0  0
  -12.5193   -3.2730   33.2250 C   0  0  0  0  0  0  0  0  0  0  0  0
  -15.0596   -2.9209   32.0971 C   0  0  0  0  0  0  0  0  0  0  0  0
  -16.0267   -3.3165   30.9905 C   0  0  1  0  0  0  0  0  0  0  0  0
  -15.3142   -3.3688   29.7775 O   0  0  0  0  0  0  0  0  0  0  0  0
  -16.6527   -4.6921   31.1242 C   0  0  1  0  0  0  0  0  0  0  0  0
  -17.9249   -4.6103   31.7272 O   0  0  0  0  0  0  0  0  0  0  0  0
  -16.7876   -5.1476   29.6854 C   0  0  1  0  0  0  0  0  0  0  0  0
  -18.1420   -5.0614   29.3165 O   0  0  0  0  0  0  0  0  0  0  0  0
  -15.9681   -4.1835   28.8385 C   0  0  2  0  0  0  0  0  0  0  0  0
  -15.1927   -9.0626   33.7945 O   0  0  0  0  0  0  0  0  0  0  0  0
  -15.0049   -8.2762   25.6608 N   0  0  0  0  0  0  0  0  0  0  0  0
  -16.2166   -7.8714   26.1851 C   0  0  0  0  0  0  0  0  0  0  0  0
  -16.2913   -6.7661   27.0117 N   0  0  0  0  0  0  0  0  0  0  0  0
  -15.1733   -6.0677   27.3218 C   0  0  0  0  0  0  0  0  0  0  0  0
  -13.9466   -6.4550   26.7967 C   0  0  0  0  0  0  0  0  0  0  0  0
  -13.8639   -7.5668   25.9673 C   0  0  0  0  0  0  0  0  0  0  0  0
  -12.6873   -7.9433   25.4721 N   0  0  0  0  0  0  0  0  0  0  0  0
  -13.0108   -5.5947   27.2523 N   0  0  0  0  0  0  0  0  0  0  0  0
  -13.6164   -4.6695   28.0332 C   0  0  0  0  0  0  0  0  0  0  0  0
  -14.9570   -4.9464   28.0874 N   0  0  0  0  0  0  0  0  0  0  0  0
  2  1  1  6  0  0  0
  2  3  1  0  0  0  0
  2  5  1  0  0  0  0
  3  4  1  0  0  0  0
  3 17  1  0  0  0  0
  5  6  1  0  0  0  0
  7  6  1  1  0  0  0
  7  8  1  0  0  0  0
  7  9  1  0  0  0  0
 10  9  1  1  0  0  0
 10 11  1  0  0  0  0
 10 12  1  0  0  0  0
 11 16  1  0  0  0  0
 12 13  1  6  0  0  0
 12 14  1  0  0  0  0
 14 15  1  6  0  0  0
 14 16  1  0  0  0  0
 16 27  1  1  0  0  0
 18 19  2  0  0  0  0
 18 23  1  0  0  0  0
 19 20  1  0  0  0  0
 20 21  2  0  0  0  0
 21 22  1  0  0  0  0
 21 27  1  0  0  0  0
 22 23  2  0  0  0  0
 22 25  1  0  0  0  0
 23 24  1  0  0  0  0
 25 26  2  0  0  0  0
 26 27  1  0  0  0  0
M  END
>  <CHROM.1>
143.59537545,-177.74107768,178.29273676,-67.59726905,-90.98558917,-59.51065579
163.14774641,-14.95811706,-5.77650242,30.45777959,-1.45349045,1.27137317
-1.72513637

>  <Name>
ligand

>  <RI>
0

>  <Rbt.Current_Directory>
/home/itssahil/PROJECTS/Mol_Feturizer/New_Systems/rnas/3GX6

>  <Rbt.Executable>
rbdock ($Id: //depot/dev/client3/rdock/2013.1/src/exe/rbdock.cxx#4 $)

>  <Rbt.Library>
libRbt.so (2013.1, Build901 2013/11/27)

>  <Rbt.Parameter_File>
/export/apps/rDock/src/rDock_2013.1_src/data/scripts/dock_solv.prm

>  <Rbt.Receptor>
prm/pocket_docking_5.prm

>  <SCORE>
-21.6508

>  <SCORE.INTER>
-11.3946

>  <SCORE.INTER.CONST>
1

>  <SCORE.INTER.POLAR>
0

>  <SCORE.INTER.ROT>
7

>  <SCORE.INTER.SOLV>
11.5731

>  <SCORE.INTER.VDW>
-19.7207

>  <SCORE.INTER.norm>
-0.422021

>  <SCORE.INTRA>
-10.2563

>  <SCORE.INTRA.DIHEDRAL>
-10.4383

>  <SCORE.INTRA.DIHEDRAL.0>
15.0182

>  <SCORE.INTRA.POLAR>
0

>  <SCORE.INTRA.POLAR.0>
0

>  <SCORE.INTRA.REPUL>
0

>  <SCORE.INTRA.REPUL.0>
0

>  <SCORE.INTRA.SOLV>
-1.50129

>  <SCORE.INTRA.SOLV.lig_0>
-47.9129

>  <SCORE.INTRA.VDW>
-4.28647

>  <SCORE.INTRA.VDW.0>
2.00851

>  <SCORE.INTRA.norm>
-0.379862

>  <SCORE.RESTR>
0

>  <SCORE.RESTR.CAVITY>
0

>  <SCORE.RESTR.norm>
0

>  <SCORE.SYSTEM>
0

>  <SCORE.SYSTEM.CONST>
0

>  <SCORE.SYSTEM.DIHEDRAL>
0

>  <SCORE.SYSTEM.SOLV>
0

>  <SCORE.SYSTEM.norm>
0

>  <SCORE.heavy>
27

>  <SCORE.norm>
-0.801883

>  <RMSD>
6.596

$$$$
ligand
 OpenBabel11021811483D
libRbt.so/2013.1/901 2013/11/27
 27 29  0  0  0  0  0  0  0  0999 V2000
  -12.4097   -7.7640   34.7338 N   0  0  0  0  0  0  0  0  0  0  0  0
  -13.5565   -6.8923   34.4929 C   0  0  2  0  0  0  0  0  0  0  0  0
  -14.8461   -7.6871   34.3056 C   0  0  0  0  0  0  0  0  0  0  0  0
  -14.8196   -8.8826   34.0051 O   0  0  0  0  0  0  0  0  0  0  0  0
  -13.2974   -5.9663   33.3084 C   0  0  0  0  0  0  0  0  0  0  0  0
  -14.3922   -4.9309   33.1024 C   0  0  0  0  0  0  0  0  0  0  0  0
  -14.1114   -3.8410   31.6848 S   0  0  2  0  0  0  0  0  0  0  0  0
  -12.8416   -2.7428   32.3617 C   0  0  0  0  0  0  0  0  0  0  0  0
  -15.5798   -2.7803   31.7693 C   0  0  0  0  0  0  0  0  0  0  0  0
  -16.7001   -3.4035   30.9490 C   0  0  1  0  0  0  0  0  0  0  0  0
  -16.3567   -3.3097   29.5871 O   0  0  0  0  0  0  0  0  0  0  0  0
  -16.9403   -4.8835   31.1804 C   0  0  1  0  0  0  0  0  0  0  0  0
  -17.9817   -5.0859   32.1095 O   0  0  0  0  0  0  0  0  0  0  0  0
  -17.3608   -5.3797   29.8118 C   0  0  1  0  0  0  0  0  0  0  0  0
  -18.7479   -5.6112   29.8294 O   0  0  0  0  0  0  0  0  0  0  0  0
  -17.0441   -4.2665   28.8223 C   0  0  2  0  0  0  0  0  0  0  0  0
  -15.9423   -7.1447   34.4469 O   0  0  0  0  0  0  0  0  0  0  0  0
  -15.3492   -8.5017   26.1831 N   0  0  0  0  0  0  0  0  0  0  0  0
  -16.3143   -8.4422   27.1690 C   0  0  0  0  0  0  0  0  0  0  0  0
  -16.6385   -7.2377   27.7642 N   0  0  0  0  0  0  0  0  0  0  0  0
  -16.0084   -6.0989   27.3898 C   0  0  0  0  0  0  0  0  0  0  0  0
  -15.0408   -6.1380   26.3935 C   0  0  0  0  0  0  0  0  0  0  0  0
  -14.7081   -7.3460   25.7928 C   0  0  0  0  0  0  0  0  0  0  0  0
  -13.7744   -7.3848   24.8452 N   0  0  0  0  0  0  0  0  0  0  0  0
  -14.5833   -4.8807   26.2108 N   0  0  0  0  0  0  0  0  0  0  0  0
  -15.2473   -4.0518   27.0503 C   0  0  0  0  0  0  0  0  0  0  0  0
  -16.1350   -4.7892   27.7885 N   0  0  0  0  0  0  0  0  0  0  0  0
  2  1  1  6  0  0  0
  2  3  1  0  0  0  0
  2  5  1  0  0  0  0
  3  4  1  0  0  0  0
  3 17  1  0  0  0  0
  5  6  1  0  0  0  0
  7  6  1  1  0  0  0
  7  8  1  0  0  0  0
  7  9  1  0  0  0  0
 10  9  1  1  0  0  0
 10 11  1  0  0  0  0
 10 12  1  0  0  0  0
 11 16  1  0  0  0  0
 12 13  1  1  0  0  0
 12 14  1  0  0  0  0
 14 15  1  1  0  0  0
 14 16  1  0  0  0  0
 16 27  1  6  0  0  0
 18 19  2  0  0  0  0
 18 23  1  0  0  0  0
 19 20  1  0  0  0  0
 20 21  2  0  0  0  0
 21 22  1  0  0  0  0
 21 27  1  0  0  0  0
 22 23  2  0  0  0  0
 22 25  1  0  0  0  0
 23 24  1  0  0  0  0
 25 26  2  0  0  0  0
 26 27  1  0  0  0  0
M  END
>  <CHROM.1>
-19.68817498,-173.68730206,-179.10262256,-76.11435320,-89.89778022,-69.88908414
138.61380897,-15.39131188,-5.65012089,30.29380570,-1.06563007,1.22995067
-2.08474822

>  <Name>
ligand

>  <RI>
0

>  <Rbt.Current_Directory>
/home/itssahil/PROJECTS/Mol_Feturizer/New_Systems/rnas/3GX6

>  <Rbt.Executable>
rbdock ($Id: //depot/dev/client3/rdock/2013.1/src/exe/rbdock.cxx#4 $)

>  <Rbt.Library>
libRbt.so (2013.1, Build901 2013/11/27)

>  <Rbt.Parameter_File>
/export/apps/rDock/src/rDock_2013.1_src/data/scripts/dock_solv.prm

>  <Rbt.Receptor>
prm/pocket_docking_7.prm

>  <SCORE>
-22.1757

>  <SCORE.INTER>
-12.6768

>  <SCORE.INTER.CONST>
1

>  <SCORE.INTER.POLAR>
0

>  <SCORE.INTER.ROT>
7

>  <SCORE.INTER.SOLV>
14.6268

>  <SCORE.INTER.VDW>
-21.5935

>  <SCORE.INTER.norm>
-0.469512

>  <SCORE.INTRA>
-9.49883

>  <SCORE.INTRA.DIHEDRAL>
-9.93143

>  <SCORE.INTRA.DIHEDRAL.0>
15.0182

>  <SCORE.INTRA.POLAR>
0

>  <SCORE.INTRA.POLAR.0>
0

>  <SCORE.INTRA.REPUL>
0

>  <SCORE.INTRA.REPUL.0>
0

>  <SCORE.INTRA.SOLV>
-1.4283

>  <SCORE.INTRA.SOLV.lig_0>
-47.9129

>  <SCORE.INTRA.VDW>
-3.81897

>  <SCORE.INTRA.VDW.0>
2.00851

>  <SCORE.INTRA.norm>
-0.351809

>  <SCORE.RESTR>
0

>  <SCORE.RESTR.CAVITY>
0

>  <SCORE.RESTR.norm>
0

>  <SCORE.SYSTEM>
0

>  <SCORE.SYSTEM.CONST>
0

>  <SCORE.SYSTEM.DIHEDRAL>
0

>  <SCORE.SYSTEM.SOLV>
0

>  <SCORE.SYSTEM.norm>
0

>  <SCORE.heavy>
27

>  <SCORE.norm>
-0.821321

>  <RMSD>
6.610

$$$$
ligand
 OpenBabel11021811483D
libRbt.so/2013.1/901 2013/11/27
 27 29  0  0  0  0  0  0  0  0999 V2000
  -15.3512   -7.9317   34.7355 N   0  0  0  0  0  0  0  0  0  0  0  0
  -14.0585   -8.3557   35.2667 C   0  0  2  0  0  0  0  0  0  0  0  0
  -14.2027   -9.0877   36.5984 C   0  0  0  0  0  0  0  0  0  0  0  0
  -13.5588   -8.7383   37.5902 O   0  0  0  0  0  0  0  0  0  0  0  0
  -13.1031   -7.1719   35.3839 C   0  0  0  0  0  0  0  0  0  0  0  0
  -12.7225   -6.5696   34.0402 C   0  0  0  0  0  0  0  0  0  0  0  0
  -14.0638   -5.6520   33.2432 S   0  0  2  0  0  0  0  0  0  0  0  0
  -14.5660   -6.8411   31.9743 C   0  0  0  0  0  0  0  0  0  0  0  0
  -13.1240   -4.4556   32.2563 C   0  0  0  0  0  0  0  0  0  0  0  0
  -14.0905   -3.5322   31.5285 C   0  0  1  0  0  0  0  0  0  0  0  0
  -14.9435   -4.3215   30.7341 O   0  0  0  0  0  0  0  0  0  0  0  0
  -15.0270   -2.7306   32.4129 C   0  0  1  0  0  0  0  0  0  0  0  0
  -14.5161   -1.4371   32.6461 O   0  0  0  0  0  0  0  0  0  0  0  0
  -16.2928   -2.6480   31.5840 C   0  0  1  0  0  0  0  0  0  0  0  0
  -16.3982   -1.3466   31.0615 O   0  0  0  0  0  0  0  0  0  0  0  0
  -16.1382   -3.6430   30.4418 C   0  0  2  0  0  0  0  0  0  0  0  0
  -14.9648  -10.0487   36.7056 O   0  0  0  0  0  0  0  0  0  0  0  0
  -18.9512   -6.9784   33.3977 N   0  0  0  0  0  0  0  0  0  0  0  0
  -17.8828   -6.1925   33.7823 C   0  0  0  0  0  0  0  0  0  0  0  0
  -17.2517   -5.3682   32.8700 N   0  0  0  0  0  0  0  0  0  0  0  0
  -17.6716   -5.3247   31.5833 C   0  0  0  0  0  0  0  0  0  0  0  0
  -18.7504   -6.1020   31.1800 C   0  0  0  0  0  0  0  0  0  0  0  0
  -19.3879   -6.9350   32.0914 C   0  0  0  0  0  0  0  0  0  0  0  0
  -20.4151   -7.6866   31.7027 N   0  0  0  0  0  0  0  0  0  0  0  0
  -18.9632   -5.8662   29.8675 N   0  0  0  0  0  0  0  0  0  0  0  0
  -18.0614   -4.9515   29.4399 C   0  0  0  0  0  0  0  0  0  0  0  0
  -17.2529   -4.6040   30.4898 N   0  0  0  0  0  0  0  0  0  0  0  0
  2  1  1  1  0  0  0
  2  3  1  0  0  0  0
  2  5  1  0  0  0  0
  3  4  1  0  0  0  0
  3 17  1  0  0  0  0
  5  6  1  0  0  0  0
  7  6  1  1  0  0  0
  7  8  1  0  0  0  0
  7  9  1  0  0  0  0
 10  9  1  1  0  0  0
 10 11  1  0  0  0  0
 10 12  1  0  0  0  0
 11 16  1  0  0  0  0
 12 13  1  6  0  0  0
 12 14  1  0  0  0  0
 14 15  1  6  0  0  0
 14 16  1  0  0  0  0
 16 27  1  1  0  0  0
 18 19  2  0  0  0  0
 18 23  1  0  0  0  0
 19 20  1  0  0  0  0
 20 21  2  0  0  0  0
 21 22  1  0  0  0  0
 21 27  1  0  0  0  0
 22 23  2  0  0  0  0
 22 25  1  0  0  0  0
 23 24  1  0  0  0  0
 25 26  2  0  0  0  0
 26 27  1  0  0  0  0
M  END
>  <CHROM.1>
-127.15949396,-65.46394296,71.63193511,-103.92548786,-177.96236989,-57.51155136
62.32413981,-15.82733870,-5.70652014,32.82494276,1.11764527,0.43255584,2.50704903

>  <Name>
ligand

>  <RI>
0

>  <Rbt.Current_Directory>
/home/itssahil/PROJECTS/Mol_Feturizer/New_Systems/rnas/3GX6

>  <Rbt.Executable>
rbdock ($Id: //depot/dev/client3/rdock/2013.1/src/exe/rbdock.cxx#4 $)

>  <Rbt.Library>
libRbt.so (2013.1, Build901 2013/11/27)

>  <Rbt.Parameter_File>
/export/apps/rDock/src/rDock_2013.1_src/data/scripts/dock_solv.prm

>  <Rbt.Receptor>
prm/pocket_docking_7.prm

>  <SCORE>
-26.7187

>  <SCORE.INTER>
-18.8755

>  <SCORE.INTER.CONST>
1

>  <SCORE.INTER.POLAR>
0

>  <SCORE.INTER.ROT>
7

>  <SCORE.INTER.SOLV>
11.583

>  <SCORE.INTER.VDW>
-24.7114

>  <SCORE.INTER.norm>
-0.699094

>  <SCORE.INTRA>
-7.84312

>  <SCORE.INTRA.DIHEDRAL>
-8.02393

>  <SCORE.INTRA.DIHEDRAL.0>
15.0182

>  <SCORE.INTRA.POLAR>
0

>  <SCORE.INTRA.POLAR.0>
0

>  <SCORE.INTRA.REPUL>
0

>  <SCORE.INTRA.REPUL.0>
0

>  <SCORE.INTRA.SOLV>
2.09239

>  <SCORE.INTRA.SOLV.lig_0>
-47.9129

>  <SCORE.INTRA.VDW>
-4.87735

>  <SCORE.INTRA.VDW.0>
2.00851

>  <SCORE.INTRA.norm>
-0.290486

>  <SCORE.RESTR>
0

>  <SCORE.RESTR.CAVITY>
0

>  <SCORE.RESTR.norm>
0

>  <SCORE.SYSTEM>
0

>  <SCORE.SYSTEM.CONST>
0

>  <SCORE.SYSTEM.DIHEDRAL>
0

>  <SCORE.SYSTEM.SOLV>
0

>  <SCORE.SYSTEM.norm>
0

>  <SCORE.heavy>
27

>  <SCORE.norm>
-0.98958

>  <RMSD>
6.620

$$$$
ligand
 OpenBabel11021811483D
libRbt.so/2013.1/901 2013/11/27
 27 29  0  0  0  0  0  0  0  0999 V2000
  -14.3517   -8.7546   33.4333 N   0  0  0  0  0  0  0  0  0  0  0  0
  -14.2666   -7.4742   32.7359 C   0  0  2  0  0  0  0  0  0  0  0  0
  -12.9142   -7.2868   32.0532 C   0  0  0  0  0  0  0  0  0  0  0  0
  -11.9736   -6.7476   32.6405 O   0  0  0  0  0  0  0  0  0  0  0  0
  -14.5770   -6.3175   33.6811 C   0  0  0  0  0  0  0  0  0  0  0  0
  -14.8628   -5.0097   32.9593 C   0  0  0  0  0  0  0  0  0  0  0  0
  -13.4061   -4.2708   32.1794 S   0  0  2  0  0  0  0  0  0  0  0  0
  -12.5574   -3.6057   33.6333 C   0  0  0  0  0  0  0  0  0  0  0  0
  -14.1229   -2.7650   31.4672 C   0  0  0  0  0  0  0  0  0  0  0  0
  -14.7187   -3.0859   30.1039 C   0  0  1  0  0  0  0  0  0  0  0  0
  -13.6756   -3.4880   29.2484 O   0  0  0  0  0  0  0  0  0  0  0  0
  -15.7041   -4.2390   30.0713 C   0  0  1  0  0  0  0  0  0  0  0  0
  -17.0316   -3.7699   30.1517 O   0  0  0  0  0  0  0  0  0  0  0  0
  -15.4548   -4.8635   28.7135 C   0  0  1  0  0  0  0  0  0  0  0  0
  -16.5201   -4.5186   27.8627 O   0  0  0  0  0  0  0  0  0  0  0  0
  -14.1628   -4.2593   28.1803 C   0  0  2  0  0  0  0  0  0  0  0  0
  -12.7387   -7.6678   30.8958 O   0  0  0  0  0  0  0  0  0  0  0  0
  -12.4621   -7.8538   24.7217 N   0  0  0  0  0  0  0  0  0  0  0  0
  -13.4876   -6.9419   24.5678 C   0  0  0  0  0  0  0  0  0  0  0  0
  -13.8069   -6.0639   25.5864 N   0  0  0  0  0  0  0  0  0  0  0  0
  -13.1189   -6.0907   26.7525 C   0  0  0  0  0  0  0  0  0  0  0  0
  -12.0783   -6.9956   26.9223 C   0  0  0  0  0  0  0  0  0  0  0  0
  -11.7537   -7.8829   25.9033 C   0  0  0  0  0  0  0  0  0  0  0  0
  -10.7632   -8.7560   26.0697 N   0  0  0  0  0  0  0  0  0  0  0  0
  -11.5630   -6.8075   28.1562 N   0  0  0  0  0  0  0  0  0  0  0  0
  -12.2378   -5.8004   28.7586 C   0  0  0  0  0  0  0  0  0  0  0  0
  -13.2056   -5.3435   27.9034 N   0  0  0  0  0  0  0  0  0  0  0  0
  2  1  1  1  0  0  0
  2  3  1  0  0  0  0
  2  5  1  0  0  0  0
  3  4  1  0  0  0  0
  3 17  1  0  0  0  0
  5  6  1  0  0  0  0
  7  6  1  1  0  0  0
  7  8  1  0  0  0  0
  7  9  1  0  0  0  0
 10  9  1  1  0  0  0
 10 11  1  0  0  0  0
 10 12  1  0  0  0  0
 11 16  1  0  0  0  0
 12 13  1  6  0  0  0
 12 14  1  0  0  0  0
 14 15  1  6  0  0  0
 14 16  1  0  0  0  0
 16 27  1  1  0  0  0
 18 19  2  0  0  0  0
 18 23  1  0  0  0  0
 19 20  1  0  0  0  0
 20 21  2  0  0  0  0
 21 22  1  0  0  0  0
 21 27  1  0  0  0  0
 22 23  2  0  0  0  0
 22 25  1  0  0  0  0
 23 24  1  0  0  0  0
 25 26  2  0  0  0  0
 26 27  1  0  0  0  0
M  END
>  <CHROM.1>
-90.55875556,-164.91228748,-70.42603412,-75.40401776,-85.15605979,-63.78561153
-161.76951751,-13.63464061,-5.69231152,29.66670679,-1.91533533,0.92735242
-1.56477032

>  <Name>
ligand

>  <RI>
0

>  <Rbt.Current_Directory>
/home/itssahil/PROJECTS/Mol_Feturizer/New_Systems/rnas/3GX6

>  <Rbt.Executable>
rbdock ($Id: //depot/dev/client3/rdock/2013.1/src/exe/rbdock.cxx#4 $)

>  <Rbt.Library>
libRbt.so (2013.1, Build901 2013/11/27)

>  <Rbt.Parameter_File>
/export/apps/rDock/src/rDock_2013.1_src/data/scripts/dock_solv.prm

>  <Rbt.Receptor>
prm/pocket_docking_5.prm

>  <SCORE>
-21.8978

>  <SCORE.INTER>
-11.1557

>  <SCORE.INTER.CONST>
1

>  <SCORE.INTER.POLAR>
0

>  <SCORE.INTER.ROT>
7

>  <SCORE.INTER.SOLV>
10.4193

>  <SCORE.INTER.VDW>
-19.1769

>  <SCORE.INTER.norm>
-0.413175

>  <SCORE.INTRA>
-10.7421

>  <SCORE.INTRA.DIHEDRAL>
-9.63598

>  <SCORE.INTRA.DIHEDRAL.0>
15.0182

>  <SCORE.INTRA.POLAR>
0

>  <SCORE.INTRA.POLAR.0>
0

>  <SCORE.INTRA.REPUL>
0

>  <SCORE.INTRA.REPUL.0>
0

>  <SCORE.INTRA.SOLV>
-1.39262

>  <SCORE.INTRA.SOLV.lig_0>
-47.9129

>  <SCORE.INTRA.VDW>
-5.22775

>  <SCORE.INTRA.VDW.0>
2.00851

>  <SCORE.INTRA.norm>
-0.397854

>  <SCORE.RESTR>
0

>  <SCORE.RESTR.CAVITY>
0

>  <SCORE.RESTR.norm>
0

>  <SCORE.SYSTEM>
0

>  <SCORE.SYSTEM.CONST>
0

>  <SCORE.SYSTEM.DIHEDRAL>
0

>  <SCORE.SYSTEM.SOLV>
0

>  <SCORE.SYSTEM.norm>
0

>  <SCORE.heavy>
27

>  <SCORE.norm>
-0.811029

>  <RMSD>
6.630

$$$$
ligand
 OpenBabel11021811483D
libRbt.so/2013.1/901 2013/11/27
 27 29  0  0  0  0  0  0  0  0999 V2000
  -15.3180   -8.6780   36.0873 N   0  0  0  0  0  0  0  0  0  0  0  0
  -14.4149   -8.2663   35.0160 C   0  0  2  0  0  0  0  0  0  0  0  0
  -13.0544   -7.8312   35.5542 C   0  0  0  0  0  0  0  0  0  0  0  0
  -12.0365   -7.9268   34.8648 O   0  0  0  0  0  0  0  0  0  0  0  0
  -15.0485   -7.1746   34.1590 C   0  0  0  0  0  0  0  0  0  0  0  0
  -16.4466   -7.5251   33.6737 C   0  0  0  0  0  0  0  0  0  0  0  0
  -17.2024   -6.2491   32.6359 S   0  0  2  0  0  0  0  0  0  0  0  0
  -18.7817   -7.0405   32.2408 C   0  0  0  0  0  0  0  0  0  0  0  0
  -16.2913   -6.4815   31.0853 C   0  0  0  0  0  0  0  0  0  0  0  0
  -15.0105   -5.6604   31.1249 C   0  0  1  0  0  0  0  0  0  0  0  0
  -13.9874   -6.4059   30.5092 O   0  0  0  0  0  0  0  0  0  0  0  0
  -15.0435   -4.3521   30.3573 C   0  0  1  0  0  0  0  0  0  0  0  0
  -15.3472   -3.2732   31.2130 O   0  0  0  0  0  0  0  0  0  0  0  0
  -13.6248   -4.2228   29.8410 C   0  0  1  0  0  0  0  0  0  0  0  0
  -12.9629   -3.2411   30.6000 O   0  0  0  0  0  0  0  0  0  0  0  0
  -12.9517   -5.5715   30.0573 C   0  0  2  0  0  0  0  0  0  0  0  0
  -12.9471   -7.3793   36.6943 O   0  0  0  0  0  0  0  0  0  0  0  0
  -14.0987   -6.5718   25.0116 N   0  0  0  0  0  0  0  0  0  0  0  0
  -14.9238   -6.0421   25.9840 C   0  0  0  0  0  0  0  0  0  0  0  0
  -14.4586   -5.8454   27.2705 N   0  0  0  0  0  0  0  0  0  0  0  0
  -13.1859   -6.1752   27.5950 C   0  0  0  0  0  0  0  0  0  0  0  0
  -12.3386   -6.7014   26.6277 C   0  0  0  0  0  0  0  0  0  0  0  0
  -12.8005   -6.9042   25.3329 C   0  0  0  0  0  0  0  0  0  0  0  0
  -11.9916   -7.4171   24.4090 N   0  0  0  0  0  0  0  0  0  0  0  0
  -11.1407   -6.9315   27.2072 N   0  0  0  0  0  0  0  0  0  0  0  0
  -11.2063   -6.5492   28.5042 C   0  0  0  0  0  0  0  0  0  0  0  0
  -12.4662   -6.0774   28.7624 N   0  0  0  0  0  0  0  0  0  0  0  0
  2  1  1  1  0  0  0
  2  3  1  0  0  0  0
  2  5  1  0  0  0  0
  3  4  1  0  0  0  0
  3 17  1  0  0  0  0
  5  6  1  0  0  0  0
  7  6  1  1  0  0  0
  7  8  1  0  0  0  0
  7  9  1  0  0  0  0
 10  9  1  6  0  0  0
 10 11  1  0  0  0  0
 10 12  1  0  0  0  0
 11 16  1  0  0  0  0
 12 13  1  1  0  0  0
 12 14  1  0  0  0  0
 14 15  1  1  0  0  0
 14 16  1  0  0  0  0
 16 27  1  6  0  0  0
 18 19  2  0  0  0  0
 18 23  1  0  0  0  0
 19 20  1  0  0  0  0
 20 21  2  0  0  0  0
 21 22  1  0  0  0  0
 21 27  1  0  0  0  0
 22 23  2  0  0  0  0
 22 25  1  0  0  0  0
 23 24  1  0  0  0  0
 25 26  2  0  0  0  0
 26 27  1  0  0  0  0
M  END
>  <CHROM.1>
152.71873334,-50.91121995,-179.17879147,178.52705933,-86.96949057,141.69613828
62.71818528,-14.21640796,-6.36531459,30.68170334,-1.81936288,0.24528860,-1.38297544

>  <Name>
ligand

>  <RI>
0

>  <Rbt.Current_Directory>
/home/itssahil/PROJECTS/Mol_Feturizer/New_Systems/rnas/3GX6

>  <Rbt.Executable>
rbdock ($Id: //depot/dev/client3/rdock/2013.1/src/exe/rbdock.cxx#4 $)

>  <Rbt.Library>
libRbt.so (2013.1, Build901 2013/11/27)

>  <Rbt.Parameter_File>
/export/apps/rDock/src/rDock_2013.1_src/data/scripts/dock_solv.prm

>  <Rbt.Receptor>
prm/pocket_docking_8.prm

>  <SCORE>
-19.09

>  <SCORE.INTER>
-10.2212

>  <SCORE.INTER.CONST>
1

>  <SCORE.INTER.POLAR>
0

>  <SCORE.INTER.ROT>
7

>  <SCORE.INTER.SOLV>
12.1022

>  <SCORE.INTER.VDW>
-19.1149

>  <SCORE.INTER.norm>
-0.378563

>  <SCORE.INTRA>
-8.86877

>  <SCORE.INTRA.DIHEDRAL>
-6.7495

>  <SCORE.INTRA.DIHEDRAL.0>
15.0182

>  <SCORE.INTRA.POLAR>
0

>  <SCORE.INTRA.POLAR.0>
0

>  <SCORE.INTRA.REPUL>
0

>  <SCORE.INTRA.REPUL.0>
0

>  <SCORE.INTRA.SOLV>
-0.954263

>  <SCORE.INTRA.SOLV.lig_0>
-47.9129

>  <SCORE.INTRA.VDW>
-5.01689

>  <SCORE.INTRA.VDW.0>
2.00851

>  <SCORE.INTRA.norm>
-0.328473

>  <SCORE.RESTR>
0

>  <SCORE.RESTR.CAVITY>
0

>  <SCORE.RESTR.norm>
0

>  <SCORE.SYSTEM>
0

>  <SCORE.SYSTEM.CONST>
0

>  <SCORE.SYSTEM.DIHEDRAL>
0

>  <SCORE.SYSTEM.SOLV>
0

>  <SCORE.SYSTEM.norm>
0

>  <SCORE.heavy>
27

>  <SCORE.norm>
-0.707036

>  <RMSD>
6.643

$$$$
ligand
 OpenBabel11021811483D
libRbt.so/2013.1/901 2013/11/27
 27 29  0  0  0  0  0  0  0  0999 V2000
  -15.0735  -10.4554   35.9134 N   0  0  0  0  0  0  0  0  0  0  0  0
  -15.6807   -9.1322   35.7972 C   0  0  2  0  0  0  0  0  0  0  0  0
  -17.0518   -9.1918   35.1288 C   0  0  0  0  0  0  0  0  0  0  0  0
  -18.0867   -9.0546   35.7850 O   0  0  0  0  0  0  0  0  0  0  0  0
  -14.7492   -8.1675   35.0696 C   0  0  0  0  0  0  0  0  0  0  0  0
  -14.2507   -8.7020   33.7358 C   0  0  0  0  0  0  0  0  0  0  0  0
  -13.6348   -7.4191   32.6174 S   0  0  2  0  0  0  0  0  0  0  0  0
  -12.4897   -6.5482   33.7159 C   0  0  0  0  0  0  0  0  0  0  0  0
  -15.0428   -6.2766   32.5946 C   0  0  0  0  0  0  0  0  0  0  0  0
  -14.6169   -4.9638   31.9532 C   0  0  1  0  0  0  0  0  0  0  0  0
  -13.9300   -5.2564   30.7598 O   0  0  0  0  0  0  0  0  0  0  0  0
  -15.7449   -4.0428   31.5275 C   0  0  1  0  0  0  0  0  0  0  0  0
  -16.0029   -3.0714   32.5167 O   0  0  0  0  0  0  0  0  0  0  0  0
  -15.1941   -3.3813   30.2804 C   0  0  1  0  0  0  0  0  0  0  0  0
  -14.8372   -2.0588   30.5990 O   0  0  0  0  0  0  0  0  0  0  0  0
  -13.9489   -4.1612   29.8805 C   0  0  2  0  0  0  0  0  0  0  0  0
  -17.1499   -9.3843   33.9168 O   0  0  0  0  0  0  0  0  0  0  0  0
  -12.0535   -7.2511   26.0549 N   0  0  0  0  0  0  0  0  0  0  0  0
  -11.5407   -7.0517   27.3215 C   0  0  0  0  0  0  0  0  0  0  0  0
  -12.1681   -6.1965   28.2077 N   0  0  0  0  0  0  0  0  0  0  0  0
  -13.2937   -5.5385   27.8418 C   0  0  0  0  0  0  0  0  0  0  0  0
  -13.8290   -5.7331   26.5745 C   0  0  0  0  0  0  0  0  0  0  0  0
  -13.2019   -6.5894   25.6776 C   0  0  0  0  0  0  0  0  0  0  0  0
  -13.7094   -6.7684   24.4604 N   0  0  0  0  0  0  0  0  0  0  0  0
  -14.9409   -4.9735   26.4733 N   0  0  0  0  0  0  0  0  0  0  0  0
  -15.1285   -4.3220   27.6450 C   0  0  0  0  0  0  0  0  0  0  0  0
  -14.1176   -4.6602   28.5054 N   0  0  0  0  0  0  0  0  0  0  0  0
  2  1  1  6  0  0  0
  2  3  1  0  0  0  0
  2  5  1  0  0  0  0
  3  4  1  0  0  0  0
  3 17  1  0  0  0  0
  5  6  1  0  0  0  0
  7  6  1  1  0  0  0
  7  8  1  0  0  0  0
  7  9  1  0  0  0  0
 10  9  1  6  0  0  0
 10 11  1  0  0  0  0
 10 12  1  0  0  0  0
 11 16  1  0  0  0  0
 12 13  1  1  0  0  0
 12 14  1  0  0  0  0
 14 15  1  1  0  0  0
 14 16  1  0  0  0  0
 16 27  1  6  0  0  0
 18 19  2  0  0  0  0
 18 23  1  0  0  0  0
 19 20  1  0  0  0  0
 20 21  2  0  0  0  0
 21 22  1  0  0  0  0
 21 27  1  0  0  0  0
 22 23  2  0  0  0  0
 22 25  1  0  0  0  0
 23 24  1  0  0  0  0
 25 26  2  0  0  0  0
 26 27  1  0  0  0  0
M  END
>  <CHROM.1>
105.69369260,52.14990255,160.26090708,50.90247351,167.42229781,47.63775430
-58.46958353,-14.50020175,-6.35952295,30.96447513,-2.24823098,1.14847010
-0.55992642

>  <Name>
ligand

>  <RI>
0

>  <Rbt.Current_Directory>
/home/itssahil/PROJECTS/Mol_Feturizer/New_Systems/rnas/3GX6

>  <Rbt.Executable>
rbdock ($Id: //depot/dev/client3/rdock/2013.1/src/exe/rbdock.cxx#4 $)

>  <Rbt.Library>
libRbt.so (2013.1, Build901 2013/11/27)

>  <Rbt.Parameter_File>
/export/apps/rDock/src/rDock_2013.1_src/data/scripts/dock_solv.prm

>  <Rbt.Receptor>
prm/pocket_docking_4.prm

>  <SCORE>
-16.585

>  <SCORE.INTER>
-9.40449

>  <SCORE.INTER.CONST>
1

>  <SCORE.INTER.POLAR>
0

>  <SCORE.INTER.ROT>
7

>  <SCORE.INTER.SOLV>
18.1599

>  <SCORE.INTER.VDW>
-20.5896

>  <SCORE.INTER.norm>
-0.348315

>  <SCORE.INTRA>
-7.18053

>  <SCORE.INTRA.DIHEDRAL>
-9.66277

>  <SCORE.INTRA.DIHEDRAL.0>
15.0182

>  <SCORE.INTRA.POLAR>
0

>  <SCORE.INTRA.POLAR.0>
0

>  <SCORE.INTRA.REPUL>
0

>  <SCORE.INTRA.REPUL.0>
0

>  <SCORE.INTRA.SOLV>
-1.02871

>  <SCORE.INTRA.SOLV.lig_0>
-47.9129

>  <SCORE.INTRA.VDW>
-1.83479

>  <SCORE.INTRA.VDW.0>
2.00851

>  <SCORE.INTRA.norm>
-0.265946

>  <SCORE.RESTR>
0

>  <SCORE.RESTR.CAVITY>
0

>  <SCORE.RESTR.norm>
0

>  <SCORE.SYSTEM>
0

>  <SCORE.SYSTEM.CONST>
0

>  <SCORE.SYSTEM.DIHEDRAL>
0

>  <SCORE.SYSTEM.SOLV>
0

>  <SCORE.SYSTEM.norm>
0

>  <SCORE.heavy>
27

>  <SCORE.norm>
-0.61426

>  <RMSD>
6.649

$$$$
ligand
 OpenBabel11021811483D
libRbt.so/2013.1/901 2013/11/27
 27 29  0  0  0  0  0  0  0  0999 V2000
  -15.7793   -7.8771   34.8183 N   0  0  0  0  0  0  0  0  0  0  0  0
  -14.8272   -8.9212   35.1875 C   0  0  2  0  0  0  0  0  0  0  0  0
  -14.3436   -8.7673   36.6271 C   0  0  0  0  0  0  0  0  0  0  0  0
  -13.6835   -7.7859   36.9757 O   0  0  0  0  0  0  0  0  0  0  0  0
  -13.6570   -8.9617   34.2094 C   0  0  0  0  0  0  0  0  0  0  0  0
  -12.8947   -7.6482   34.1272 C   0  0  0  0  0  0  0  0  0  0  0  0
  -13.5922   -6.4701   32.9433 S   0  0  2  0  0  0  0  0  0  0  0  0
  -12.9172   -7.1220   31.3954 C   0  0  0  0  0  0  0  0  0  0  0  0
  -12.5234   -5.0312   33.2183 C   0  0  0  0  0  0  0  0  0  0  0  0
  -12.9617   -3.8953   32.3051 C   0  0  1  0  0  0  0  0  0  0  0  0
  -12.5296   -4.1867   30.9974 O   0  0  0  0  0  0  0  0  0  0  0  0
  -14.4601   -3.6957   32.1757 C   0  0  1  0  0  0  0  0  0  0  0  0
  -14.9130   -2.6935   33.0583 O   0  0  0  0  0  0  0  0  0  0  0  0
  -14.6211   -3.2362   30.7408 C   0  0  1  0  0  0  0  0  0  0  0  0
  -14.8912   -1.8561   30.7432 O   0  0  0  0  0  0  0  0  0  0  0  0
  -13.2919   -3.4926   30.0435 C   0  0  2  0  0  0  0  0  0  0  0  0
  -14.6006   -9.6274   37.4696 O   0  0  0  0  0  0  0  0  0  0  0  0
  -11.4833   -7.4998   27.1372 N   0  0  0  0  0  0  0  0  0  0  0  0
  -10.9033   -6.9254   28.2511 C   0  0  0  0  0  0  0  0  0  0  0  0
  -11.5171   -5.8696   28.8983 N   0  0  0  0  0  0  0  0  0  0  0  0
  -12.6957   -5.3815   28.4438 C   0  0  0  0  0  0  0  0  0  0  0  0
  -13.2985   -5.9523   27.3296 C   0  0  0  0  0  0  0  0  0  0  0  0
  -12.6856   -7.0122   26.6725 C   0  0  0  0  0  0  0  0  0  0  0  0
  -13.2584   -7.5526   25.5997 N   0  0  0  0  0  0  0  0  0  0  0  0
  -14.4521   -5.2897   27.0977 N   0  0  0  0  0  0  0  0  0  0  0  0
  -14.5993   -4.3321   28.0432 C   0  0  0  0  0  0  0  0  0  0  0  0
  -13.5205   -4.3744   28.8865 N   0  0  0  0  0  0  0  0  0  0  0  0
  2  1  1  6  0  0  0
  2  3  1  0  0  0  0
  2  5  1  0  0  0  0
  3  4  1  0  0  0  0
  3 17  1  0  0  0  0
  5  6  1  0  0  0  0
  7  6  1  1  0  0  0
  7  8  1  0  0  0  0
  7  9  1  0  0  0  0
 10  9  1  1  0  0  0
 10 11  1  0  0  0  0
 10 12  1  0  0  0  0
 11 16  1  0  0  0  0
 12 13  1  1  0  0  0
 12 14  1  0  0  0  0
 14 15  1  1  0  0  0
 14 16  1  0  0  0  0
 16 27  1  6  0  0  0
 18 19  2  0  0  0  0
 18 23  1  0  0  0  0
 19 20  1  0  0  0  0
 20 21  2  0  0  0  0
 21 22  1  0  0  0  0
 21 27  1  0  0  0  0
 22 23  2  0  0  0  0
 22 25  1  0  0  0  0
 23 24  1  0  0  0  0
 25 26  2  0  0  0  0
 26 27  1  0  0  0  0
M  END
>  <CHROM.1>
-64.56484431,58.68925733,-86.33637411,-80.31929789,-179.48494855,-75.21554580
-29.28918659,-13.53887784,-5.99075785,31.43409306,-2.04737254,1.26682967
-0.79450364

>  <Name>
ligand

>  <RI>
0

>  <Rbt.Current_Directory>
/home/itssahil/PROJECTS/Mol_Feturizer/New_Systems/rnas/3GX6

>  <Rbt.Executable>
rbdock ($Id: //depot/dev/client3/rdock/2013.1/src/exe/rbdock.cxx#4 $)

>  <Rbt.Library>
libRbt.so (2013.1, Build901 2013/11/27)

>  <Rbt.Parameter_File>
/export/apps/rDock/src/rDock_2013.1_src/data/scripts/dock_solv.prm

>  <Rbt.Receptor>
prm/pocket_docking_4.prm

>  <SCORE>
-25.4375

>  <SCORE.INTER>
-17.3635

>  <SCORE.INTER.CONST>
1

>  <SCORE.INTER.POLAR>
0

>  <SCORE.INTER.ROT>
7

>  <SCORE.INTER.SOLV>
11.7843

>  <SCORE.INTER.VDW>
-23.7704

>  <SCORE.INTER.norm>
-0.643093

>  <SCORE.INTRA>
-8.07398

>  <SCORE.INTRA.DIHEDRAL>
-8.15896

>  <SCORE.INTRA.DIHEDRAL.0>
15.0182

>  <SCORE.INTRA.POLAR>
0

>  <SCORE.INTRA.POLAR.0>
0

>  <SCORE.INTRA.REPUL>
0

>  <SCORE.INTRA.REPUL.0>
0

>  <SCORE.INTRA.SOLV>
0.441831

>  <SCORE.INTRA.SOLV.lig_0>
-47.9129

>  <SCORE.INTRA.VDW>
-4.21541

>  <SCORE.INTRA.VDW.0>
2.00851

>  <SCORE.INTRA.norm>
-0.299036

>  <SCORE.RESTR>
0

>  <SCORE.RESTR.CAVITY>
0

>  <SCORE.RESTR.norm>
0

>  <SCORE.SYSTEM>
0

>  <SCORE.SYSTEM.CONST>
0

>  <SCORE.SYSTEM.DIHEDRAL>
0

>  <SCORE.SYSTEM.SOLV>
0

>  <SCORE.SYSTEM.norm>
0

>  <SCORE.heavy>
27

>  <SCORE.norm>
-0.942129

>  <RMSD>
6.655

$$$$
ligand
 OpenBabel11021811483D
libRbt.so/2013.1/901 2013/11/27
 27 29  0  0  0  0  0  0  0  0999 V2000
  -14.5964  -10.1744   35.2487 N   0  0  0  0  0  0  0  0  0  0  0  0
  -14.7128   -8.7189   35.2759 C   0  0  2  0  0  0  0  0  0  0  0  0
  -16.1605   -8.2605   35.1214 C   0  0  0  0  0  0  0  0  0  0  0  0
  -16.4360   -7.2003   34.5554 O   0  0  0  0  0  0  0  0  0  0  0  0
  -13.8125   -8.0809   34.2221 C   0  0  0  0  0  0  0  0  0  0  0  0
  -13.3926   -6.6607   34.5684 C   0  0  0  0  0  0  0  0  0  0  0  0
  -13.3284   -5.5482   33.1420 S   0  0  2  0  0  0  0  0  0  0  0  0
  -12.7036   -4.0423   33.9284 C   0  0  0  0  0  0  0  0  0  0  0  0
  -15.0844   -5.1420   32.9423 C   0  0  0  0  0  0  0  0  0  0  0  0
  -15.2228   -3.9461   32.0112 C   0  0  1  0  0  0  0  0  0  0  0  0
  -14.4904   -4.2108   30.8385 O   0  0  0  0  0  0  0  0  0  0  0  0
  -16.6288   -3.6507   31.5237 C   0  0  1  0  0  0  0  0  0  0  0  0
  -17.2398   -2.6589   32.3184 O   0  0  0  0  0  0  0  0  0  0  0  0
  -16.4010   -3.1255   30.1208 C   0  0  1  0  0  0  0  0  0  0  0  0
  -16.5952   -1.7327   30.1301 O   0  0  0  0  0  0  0  0  0  0  0  0
  -14.9533   -3.4342   29.7636 C   0  0  2  0  0  0  0  0  0  0  0  0
  -17.0842   -8.9422   35.5662 O   0  0  0  0  0  0  0  0  0  0  0  0
  -12.1420   -6.6605   26.6875 N   0  0  0  0  0  0  0  0  0  0  0  0
  -11.7527   -6.0517   27.8643 C   0  0  0  0  0  0  0  0  0  0  0  0
  -12.6229   -5.2253   28.5499 N   0  0  0  0  0  0  0  0  0  0  0  0
  -13.8695   -4.9984   28.0722 C   0  0  0  0  0  0  0  0  0  0  0  0
  -14.2817   -5.6091   26.8942 C   0  0  0  0  0  0  0  0  0  0  0  0
  -13.4111   -6.4391   26.1984 C   0  0  0  0  0  0  0  0  0  0  0  0
  -13.8029   -7.0164   25.0651 N   0  0  0  0  0  0  0  0  0  0  0  0
  -15.5532   -5.2246   26.6511 N   0  0  0  0  0  0  0  0  0  0  0  0
  -15.9564   -4.4049   27.6503 C   0  0  0  0  0  0  0  0  0  0  0  0
  -14.9262   -4.2536   28.5404 N   0  0  0  0  0  0  0  0  0  0  0  0
  2  1  1  6  0  0  0
  2  3  1  0  0  0  0
  2  5  1  0  0  0  0
  3  4  1  0  0  0  0
  3 17  1  0  0  0  0
  5  6  1  0  0  0  0
  7  6  1  1  0  0  0
  7  8  1  0  0  0  0
  7  9  1  0  0  0  0
 10  9  1  1  0  0  0
 10 11  1  0  0  0  0
 10 12  1  0  0  0  0
 11 16  1  0  0  0  0
 12 13  1  1  0  0  0
 12 14  1  0  0  0  0
 14 15  1  1  0  0  0
 14 16  1  0  0  0  0
 16 27  1  6  0  0  0
 18 19  2  0  0  0  0
 18 23  1  0  0  0  0
 19 20  1  0  0  0  0
 20 21  2  0  0  0  0
 21 22  1  0  0  0  0
 21 27  1  0  0  0  0
 22 23  2  0  0  0  0
 22 25  1  0  0  0  0
 23 24  1  0  0  0  0
 25 26  2  0  0  0  0
 26 27  1  0  0  0  0
M  END
>  <CHROM.1>
-147.97657883,-154.09305814,-142.02688912,-176.47747163,166.01775608,51.42468051
-50.26965972,-14.68617485,-5.58658252,31.08603199,-1.80409167,1.03050607
-1.05632398

>  <Name>
ligand

>  <RI>
0

>  <Rbt.Current_Directory>
/home/itssahil/PROJECTS/Mol_Feturizer/New_Systems/rnas/3GX6

>  <Rbt.Executable>
rbdock ($Id: //depot/dev/client3/rdock/2013.1/src/exe/rbdock.cxx#4 $)

>  <Rbt.Library>
libRbt.so (2013.1, Build901 2013/11/27)

>  <Rbt.Parameter_File>
/export/apps/rDock/src/rDock_2013.1_src/data/scripts/dock_solv.prm

>  <Rbt.Receptor>
prm/pocket_docking_4.prm

>  <SCORE>
-19.7486

>  <SCORE.INTER>
-13.1586

>  <SCORE.INTER.CONST>
1

>  <SCORE.INTER.POLAR>
0

>  <SCORE.INTER.ROT>
7

>  <SCORE.INTER.SOLV>
17.6649

>  <SCORE.INTER.VDW>
-22.9274

>  <SCORE.INTER.norm>
-0.487356

>  <SCORE.INTRA>
-6.58994

>  <SCORE.INTRA.DIHEDRAL>
-5.03248

>  <SCORE.INTRA.DIHEDRAL.0>
15.0182

>  <SCORE.INTRA.POLAR>
0

>  <SCORE.INTRA.POLAR.0>
0

>  <SCORE.INTRA.REPUL>
0

>  <SCORE.INTRA.REPUL.0>
0

>  <SCORE.INTRA.SOLV>
-1.69204

>  <SCORE.INTRA.SOLV.lig_0>
-47.9129

>  <SCORE.INTRA.VDW>
-3.22768

>  <SCORE.INTRA.VDW.0>
2.00851

>  <SCORE.INTRA.norm>
-0.244072

>  <SCORE.RESTR>
0

>  <SCORE.RESTR.CAVITY>
0

>  <SCORE.RESTR.norm>
0

>  <SCORE.SYSTEM>
0

>  <SCORE.SYSTEM.CONST>
0

>  <SCORE.SYSTEM.DIHEDRAL>
0

>  <SCORE.SYSTEM.SOLV>
0

>  <SCORE.SYSTEM.norm>
0

>  <SCORE.heavy>
27

>  <SCORE.norm>
-0.731428

>  <RMSD>
6.656

$$$$
ligand
 OpenBabel11021811483D
libRbt.so/2013.1/901 2013/11/27
 27 29  0  0  0  0  0  0  0  0999 V2000
  -13.5514   -7.4184   32.8460 N   0  0  0  0  0  0  0  0  0  0  0  0
  -12.8962   -6.8150   34.0033 C   0  0  2  0  0  0  0  0  0  0  0  0
  -13.1617   -7.6035   35.2831 C   0  0  0  0  0  0  0  0  0  0  0  0
  -13.6767   -8.7232   35.2460 O   0  0  0  0  0  0  0  0  0  0  0  0
  -13.3018   -5.3523   34.1575 C   0  0  0  0  0  0  0  0  0  0  0  0
  -12.9509   -4.4991   32.9484 C   0  0  0  0  0  0  0  0  0  0  0  0
  -14.0681   -4.7273   31.5426 S   0  0  2  0  0  0  0  0  0  0  0  0
  -13.2853   -3.6437   30.3222 C   0  0  0  0  0  0  0  0  0  0  0  0
  -15.4826   -3.7168   32.0588 C   0  0  0  0  0  0  0  0  0  0  0  0
  -16.6470   -3.9560   31.1084 C   0  0  1  0  0  0  0  0  0  0  0  0
  -16.2104   -3.6886   29.7971 O   0  0  0  0  0  0  0  0  0  0  0  0
  -17.1698   -5.3792   31.0532 C   0  0  1  0  0  0  0  0  0  0  0  0
  -18.2849   -5.5398   31.9013 O   0  0  0  0  0  0  0  0  0  0  0  0
  -17.5910   -5.5327   29.6058 C   0  0  1  0  0  0  0  0  0  0  0  0
  -18.9955   -5.4922   29.5445 O   0  0  0  0  0  0  0  0  0  0  0  0
  -17.0151   -4.3430   28.8499 C   0  0  2  0  0  0  0  0  0  0  0  0
  -12.8697   -7.1311   36.3818 O   0  0  0  0  0  0  0  0  0  0  0  0
  -15.2904   -8.5358   26.1627 N   0  0  0  0  0  0  0  0  0  0  0  0
  -16.1824   -8.5073   27.2165 C   0  0  0  0  0  0  0  0  0  0  0  0
  -16.5270   -7.3096   27.8141 N   0  0  0  0  0  0  0  0  0  0  0  0
  -15.9891   -6.1470   27.3750 C   0  0  0  0  0  0  0  0  0  0  0  0
  -15.0965   -6.1552   26.3102 C   0  0  0  0  0  0  0  0  0  0  0  0
  -14.7435   -7.3560   25.7066 C   0  0  0  0  0  0  0  0  0  0  0  0
  -13.8812   -7.3647   24.6930 N   0  0  0  0  0  0  0  0  0  0  0  0
  -14.7228   -4.8794   26.0731 N   0  0  0  0  0  0  0  0  0  0  0  0
  -15.3675   -4.0698   26.9458 C   0  0  0  0  0  0  0  0  0  0  0  0
  -16.1572   -4.8379   27.7601 N   0  0  0  0  0  0  0  0  0  0  0  0
  2  1  1  6  0  0  0
  2  3  1  0  0  0  0
  2  5  1  0  0  0  0
  3  4  1  0  0  0  0
  3 17  1  0  0  0  0
  5  6  1  0  0  0  0
  7  6  1  1  0  0  0
  7  8  1  0  0  0  0
  7  9  1  0  0  0  0
 10  9  1  1  0  0  0
 10 11  1  0  0  0  0
 10 12  1  0  0  0  0
 11 16  1  0  0  0  0
 12 13  1  1  0  0  0
 12 14  1  0  0  0  0
 14 15  1  1  0  0  0
 14 16  1  0  0  0  0
 16 27  1  6  0  0  0
 18 19  2  0  0  0  0
 18 23  1  0  0  0  0
 19 20  1  0  0  0  0
 20 21  2  0  0  0  0
 21 22  1  0  0  0  0
 21 27  1  0  0  0  0
 22 23  2  0  0  0  0
 22 25  1  0  0  0  0
 23 24  1  0  0  0  0
 25 26  2  0  0  0  0
 26 27  1  0  0  0  0
M  END
>  <CHROM.1>
11.31914128,-59.43790037,76.54200369,-177.15658777,-170.66207996,-55.63682549
119.18094869,-15.17860876,-5.81055116,30.28087643,-1.18130483,0.76421297
-1.81647898

>  <Name>
ligand

>  <RI>
0

>  <Rbt.Current_Directory>
/home/itssahil/PROJECTS/Mol_Feturizer/New_Systems/rnas/3GX6

>  <Rbt.Executable>
rbdock ($Id: //depot/dev/client3/rdock/2013.1/src/exe/rbdock.cxx#4 $)

>  <Rbt.Library>
libRbt.so (2013.1, Build901 2013/11/27)

>  <Rbt.Parameter_File>
/export/apps/rDock/src/rDock_2013.1_src/data/scripts/dock_solv.prm

>  <Rbt.Receptor>
prm/pocket_docking_6.prm

>  <SCORE>
-20.9661

>  <SCORE.INTER>
-12.9246

>  <SCORE.INTER.CONST>
1

>  <SCORE.INTER.POLAR>
0

>  <SCORE.INTER.ROT>
7

>  <SCORE.INTER.SOLV>
10.1601

>  <SCORE.INTER.VDW>
-20.2697

>  <SCORE.INTER.norm>
-0.478687

>  <SCORE.INTRA>
-8.0415

>  <SCORE.INTRA.DIHEDRAL>
-9.55765

>  <SCORE.INTRA.DIHEDRAL.0>
15.0182

>  <SCORE.INTRA.POLAR>
0

>  <SCORE.INTRA.POLAR.0>
0

>  <SCORE.INTRA.REPUL>
0

>  <SCORE.INTRA.REPUL.0>
0

>  <SCORE.INTRA.SOLV>
0.861639

>  <SCORE.INTRA.SOLV.lig_0>
-47.9129

>  <SCORE.INTRA.VDW>
-3.69349

>  <SCORE.INTRA.VDW.0>
2.00851

>  <SCORE.INTRA.norm>
-0.297833

>  <SCORE.RESTR>
0

>  <SCORE.RESTR.CAVITY>
0

>  <SCORE.RESTR.norm>
0

>  <SCORE.SYSTEM>
0

>  <SCORE.SYSTEM.CONST>
0

>  <SCORE.SYSTEM.DIHEDRAL>
0

>  <SCORE.SYSTEM.SOLV>
0

>  <SCORE.SYSTEM.norm>
0

>  <SCORE.heavy>
27

>  <SCORE.norm>
-0.776521

>  <RMSD>
6.670

$$$$
ligand
 OpenBabel11021811483D
libRbt.so/2013.1/901 2013/11/27
 27 29  0  0  0  0  0  0  0  0999 V2000
  -17.8259  -10.4359   36.0140 N   0  0  0  0  0  0  0  0  0  0  0  0
  -18.0299   -9.2373   35.2049 C   0  0  2  0  0  0  0  0  0  0  0  0
  -19.2840   -9.3403   34.3408 C   0  0  0  0  0  0  0  0  0  0  0  0
  -19.7012  -10.4334   33.9516 O   0  0  0  0  0  0  0  0  0  0  0  0
  -16.7962   -8.9342   34.3599 C   0  0  0  0  0  0  0  0  0  0  0  0
  -15.5442   -8.6893   35.1880 C   0  0  0  0  0  0  0  0  0  0  0  0
  -14.1508   -8.0391   34.2331 S   0  0  2  0  0  0  0  0  0  0  0  0
  -12.9978   -7.6351   35.5688 C   0  0  0  0  0  0  0  0  0  0  0  0
  -14.7731   -6.3939   33.7918 C   0  0  0  0  0  0  0  0  0  0  0  0
  -13.6573   -5.5911   33.1383 C   0  0  1  0  0  0  0  0  0  0  0  0
  -13.2279   -6.2832   31.9902 O   0  0  0  0  0  0  0  0  0  0  0  0
  -14.0468   -4.2155   32.6307 C   0  0  1  0  0  0  0  0  0  0  0  0
  -13.7315   -3.2205   33.5790 O   0  0  0  0  0  0  0  0  0  0  0  0
  -13.1835   -4.0495   31.3965 C   0  0  1  0  0  0  0  0  0  0  0  0
  -12.1450   -3.1502   31.6976 O   0  0  0  0  0  0  0  0  0  0  0  0
  -12.5950   -5.4183   31.0822 C   0  0  2  0  0  0  0  0  0  0  0  0
  -19.9021   -8.3281   34.0105 O   0  0  0  0  0  0  0  0  0  0  0  0
  -11.0205   -7.3806   26.4513 N   0  0  0  0  0  0  0  0  0  0  0  0
  -10.2643   -7.1645   27.5864 C   0  0  0  0  0  0  0  0  0  0  0  0
  -10.8409   -6.6351   28.7254 N   0  0  0  0  0  0  0  0  0  0  0  0
  -12.1571   -6.3167   28.7405 C   0  0  0  0  0  0  0  0  0  0  0  0
  -12.9356   -6.5352   27.6107 C   0  0  0  0  0  0  0  0  0  0  0  0
  -12.3618   -7.0646   26.4612 C   0  0  0  0  0  0  0  0  0  0  0  0
  -13.1057   -7.2648   25.3759 N   0  0  0  0  0  0  0  0  0  0  0  0
  -14.1964   -6.1434   27.8943 N   0  0  0  0  0  0  0  0  0  0  0  0
  -14.2355   -5.7021   29.1735 C   0  0  0  0  0  0  0  0  0  0  0  0
  -12.9807   -5.8026   29.7140 N   0  0  0  0  0  0  0  0  0  0  0  0
  2  1  1  6  0  0  0
  2  3  1  0  0  0  0
  2  5  1  0  0  0  0
  3  4  1  0  0  0  0
  3 17  1  0  0  0  0
  5  6  1  0  0  0  0
  7  6  1  1  0  0  0
  7  8  1  0  0  0  0
  7  9  1  0  0  0  0
 10  9  1  6  0  0  0
 10 11  1  0  0  0  0
 10 12  1  0  0  0  0
 11 16  1  0  0  0  0
 12 13  1  1  0  0  0
 12 14  1  0  0  0  0
 14 15  1  1  0  0  0
 14 16  1  0  0  0  0
 16 27  1  6  0  0  0
 18 19  2  0  0  0  0
 18 23  1  0  0  0  0
 19 20  1  0  0  0  0
 20 21  2  0  0  0  0
 21 22  1  0  0  0  0
 21 27  1  0  0  0  0
 22 23  2  0  0  0  0
 22 25  1  0  0  0  0
 23 24  1  0  0  0  0
 25 26  2  0  0  0  0
 26 27  1  0  0  0  0
M  END
>  <CHROM.1>
-28.51694262,-60.23302567,-169.54285044,171.14121384,172.03861411,59.35981055
-113.68669245,-14.33529028,-6.91836283,31.71795671,2.50029483,0.73013153
1.23515133

>  <Name>
ligand

>  <RI>
0

>  <Rbt.Current_Directory>
/home/itssahil/PROJECTS/Mol_Feturizer/New_Systems/rnas/3GX6

>  <Rbt.Executable>
rbdock ($Id: //depot/dev/client3/rdock/2013.1/src/exe/rbdock.cxx#4 $)

>  <Rbt.Library>
libRbt.so (2013.1, Build901 2013/11/27)

>  <Rbt.Parameter_File>
/export/apps/rDock/src/rDock_2013.1_src/data/scripts/dock_solv.prm

>  <Rbt.Receptor>
prm/pocket_docking_8.prm

>  <SCORE>
-22.0512

>  <SCORE.INTER>
-11.8526

>  <SCORE.INTER.CONST>
1

>  <SCORE.INTER.POLAR>
0

>  <SCORE.INTER.ROT>
7

>  <SCORE.INTER.SOLV>
13.5774

>  <SCORE.INTER.VDW>
-20.6942

>  <SCORE.INTER.norm>
-0.438984

>  <SCORE.INTRA>
-10.1986

>  <SCORE.INTRA.DIHEDRAL>
-11.4285

>  <SCORE.INTRA.DIHEDRAL.0>
15.0182

>  <SCORE.INTRA.POLAR>
0

>  <SCORE.INTRA.POLAR.0>
0

>  <SCORE.INTRA.REPUL>
0

>  <SCORE.INTRA.REPUL.0>
0

>  <SCORE.INTRA.SOLV>
-1.16692

>  <SCORE.INTRA.SOLV.lig_0>
-47.9129

>  <SCORE.INTRA.VDW>
-3.9009

>  <SCORE.INTRA.VDW.0>
2.00851

>  <SCORE.INTRA.norm>
-0.377726

>  <SCORE.RESTR>
0

>  <SCORE.RESTR.CAVITY>
0

>  <SCORE.RESTR.norm>
0

>  <SCORE.SYSTEM>
0

>  <SCORE.SYSTEM.CONST>
0

>  <SCORE.SYSTEM.DIHEDRAL>
0

>  <SCORE.SYSTEM.SOLV>
0

>  <SCORE.SYSTEM.norm>
0

>  <SCORE.heavy>
27

>  <SCORE.norm>
-0.816711

>  <RMSD>
6.677

$$$$
ligand
 OpenBabel11021811483D
libRbt.so/2013.1/901 2013/11/27
 27 29  0  0  0  0  0  0  0  0999 V2000
  -16.0059   -2.0466   32.1288 N   0  0  0  0  0  0  0  0  0  0  0  0
  -15.7522   -3.4798   32.0091 C   0  0  2  0  0  0  0  0  0  0  0  0
  -16.9586   -4.3095   32.4407 C   0  0  0  0  0  0  0  0  0  0  0  0
  -17.1608   -4.5692   33.6290 O   0  0  0  0  0  0  0  0  0  0  0  0
  -14.4988   -3.8775   32.7830 C   0  0  0  0  0  0  0  0  0  0  0  0
  -14.0709   -5.3163   32.5384 C   0  0  0  0  0  0  0  0  0  0  0  0
  -14.7144   -6.4886   33.7581 S   0  0  2  0  0  0  0  0  0  0  0  0
  -13.1727   -7.0339   34.5342 C   0  0  0  0  0  0  0  0  0  0  0  0
  -15.1010   -7.9096   32.7000 C   0  0  0  0  0  0  0  0  0  0  0  0
  -16.4169   -8.5292   33.1483 C   0  0  1  0  0  0  0  0  0  0  0  0
  -16.1760   -9.2887   34.3088 O   0  0  0  0  0  0  0  0  0  0  0  0
  -17.5018   -7.5488   33.5530 C   0  0  1  0  0  0  0  0  0  0  0  0
  -18.3854   -7.3044   32.4815 O   0  0  0  0  0  0  0  0  0  0  0  0
  -18.2246   -8.2793   34.6666 C   0  0  1  0  0  0  0  0  0  0  0  0
  -19.4556   -8.7427   34.1689 O   0  0  0  0  0  0  0  0  0  0  0  0
  -17.3536   -9.4668   35.0535 C   0  0  2  0  0  0  0  0  0  0  0  0
  -17.7532   -4.7411   31.6052 O   0  0  0  0  0  0  0  0  0  0  0  0
  -13.6244   -8.5792   38.6702 N   0  0  0  0  0  0  0  0  0  0  0  0
  -13.4978   -8.5665   37.2951 C   0  0  0  0  0  0  0  0  0  0  0  0
  -14.5879   -8.8257   36.4860 N   0  0  0  0  0  0  0  0  0  0  0  0
  -15.7955   -9.1007   37.0336 C   0  0  0  0  0  0  0  0  0  0  0  0
  -15.9439   -9.1095   38.4151 C   0  0  0  0  0  0  0  0  0  0  0  0
  -14.8515   -8.8523   39.2345 C   0  0  0  0  0  0  0  0  0  0  0  0
  -14.9917   -8.8702   40.5578 N   0  0  0  0  0  0  0  0  0  0  0  0
  -17.2334   -9.4001   38.6914 N   0  0  0  0  0  0  0  0  0  0  0  0
  -17.9018   -9.5567   37.5246 C   0  0  0  0  0  0  0  0  0  0  0  0
  -17.0268   -9.3743   36.4864 N   0  0  0  0  0  0  0  0  0  0  0  0
  2  1  1  1  0  0  0
  2  3  1  0  0  0  0
  2  5  1  0  0  0  0
  3  4  1  0  0  0  0
  3 17  1  0  0  0  0
  5  6  1  0  0  0  0
  7  6  1  6  0  0  0
  7  8  1  0  0  0  0
  7  9  1  0  0  0  0
 10  9  1  1  0  0  0
 10 11  1  0  0  0  0
 10 12  1  0  0  0  0
 11 16  1  0  0  0  0
 12 13  1  6  0  0  0
 12 14  1  0  0  0  0
 14 15  1  6  0  0  0
 14 16  1  0  0  0  0
 16 27  1  1  0  0  0
 18 19  2  0  0  0  0
 18 23  1  0  0  0  0
 19 20  1  0  0  0  0
 20 21  2  0  0  0  0
 21 22  1  0  0  0  0
 21 27  1  0  0  0  0
 22 23  2  0  0  0  0
 22 25  1  0  0  0  0
 23 24  1  0  0  0  0
 25 26  2  0  0  0  0
 26 27  1  0  0  0  0
M  END
>  <CHROM.1>
-83.24946113,-171.86397388,-93.98631037,-115.15919068,-139.70924159,-77.16268729
2.69038725,-16.04795596,-7.29509009,34.88393780,-1.65206506,0.49030129,2.27235590

>  <Name>
ligand

>  <RI>
0

>  <Rbt.Current_Directory>
/home/itssahil/PROJECTS/Mol_Feturizer/New_Systems/rnas/3GX6

>  <Rbt.Executable>
rbdock ($Id: //depot/dev/client3/rdock/2013.1/src/exe/rbdock.cxx#4 $)

>  <Rbt.Library>
libRbt.so (2013.1, Build901 2013/11/27)

>  <Rbt.Parameter_File>
/export/apps/rDock/src/rDock_2013.1_src/data/scripts/dock_solv.prm

>  <Rbt.Receptor>
prm/pocket_docking_7.prm

>  <SCORE>
-24.3918

>  <SCORE.INTER>
-18.1275

>  <SCORE.INTER.CONST>
1

>  <SCORE.INTER.POLAR>
0

>  <SCORE.INTER.ROT>
7

>  <SCORE.INTER.SOLV>
11.7923

>  <SCORE.INTER.VDW>
-24.2825

>  <SCORE.INTER.norm>
-0.67139

>  <SCORE.INTRA>
-6.26429

>  <SCORE.INTRA.DIHEDRAL>
0.583785

>  <SCORE.INTRA.DIHEDRAL.0>
15.0182

>  <SCORE.INTRA.POLAR>
0

>  <SCORE.INTRA.POLAR.0>
0

>  <SCORE.INTRA.REPUL>
0

>  <SCORE.INTRA.REPUL.0>
0

>  <SCORE.INTRA.SOLV>
-1.2124

>  <SCORE.INTRA.SOLV.lig_0>
-47.9129

>  <SCORE.INTRA.VDW>
-5.94999

>  <SCORE.INTRA.VDW.0>
2.00851

>  <SCORE.INTRA.norm>
-0.232011

>  <SCORE.RESTR>
0

>  <SCORE.RESTR.CAVITY>
0

>  <SCORE.RESTR.norm>
0

>  <SCORE.SYSTEM>
0

>  <SCORE.SYSTEM.CONST>
0

>  <SCORE.SYSTEM.DIHEDRAL>
0

>  <SCORE.SYSTEM.SOLV>
0

>  <SCORE.SYSTEM.norm>
0

>  <SCORE.heavy>
27

>  <SCORE.norm>
-0.903401

>  <RMSD>
6.693

$$$$
ligand
 OpenBabel11021811483D
libRbt.so/2013.1/901 2013/11/27
 27 29  0  0  0  0  0  0  0  0999 V2000
  -12.6134   -6.9773   34.3831 N   0  0  0  0  0  0  0  0  0  0  0  0
  -13.4669   -6.2828   33.4228 C   0  0  2  0  0  0  0  0  0  0  0  0
  -13.5308   -7.0144   32.0847 C   0  0  0  0  0  0  0  0  0  0  0  0
  -14.6029   -7.4224   31.6324 O   0  0  0  0  0  0  0  0  0  0  0  0
  -13.0193   -4.8352   33.2438 C   0  0  0  0  0  0  0  0  0  0  0  0
  -14.1683   -3.8397   33.2867 C   0  0  0  0  0  0  0  0  0  0  0  0
  -15.5112   -4.2220   32.1348 S   0  0  2  0  0  0  0  0  0  0  0  0
  -16.1455   -2.5587   31.8067 C   0  0  0  0  0  0  0  0  0  0  0  0
  -16.7692   -4.8635   33.2725 C   0  0  0  0  0  0  0  0  0  0  0  0
  -17.0324   -6.3293   32.9590 C   0  0  1  0  0  0  0  0  0  0  0  0
  -16.3093   -7.1151   33.8762 O   0  0  0  0  0  0  0  0  0  0  0  0
  -18.4702   -6.7878   33.1150 C   0  0  1  0  0  0  0  0  0  0  0  0
  -19.1440   -6.7640   31.8764 O   0  0  0  0  0  0  0  0  0  0  0  0
  -18.3230   -8.2160   33.5993 C   0  0  1  0  0  0  0  0  0  0  0  0
  -18.6354   -9.0810   32.5354 O   0  0  0  0  0  0  0  0  0  0  0  0
  -16.8635   -8.4006   33.9922 C   0  0  2  0  0  0  0  0  0  0  0  0
  -12.5069   -7.2161   31.4315 O   0  0  0  0  0  0  0  0  0  0  0  0
  -13.8532   -8.9537   38.2827 N   0  0  0  0  0  0  0  0  0  0  0  0
  -13.4870   -8.4722   37.0413 C   0  0  0  0  0  0  0  0  0  0  0  0
  -14.4106   -8.3959   36.0159 N   0  0  0  0  0  0  0  0  0  0  0  0
  -15.6883   -8.7978   36.2156 C   0  0  0  0  0  0  0  0  0  0  0  0
  -16.0772   -9.2770   37.4605 C   0  0  0  0  0  0  0  0  0  0  0  0
  -15.1531   -9.3589   38.4950 C   0  0  0  0  0  0  0  0  0  0  0  0
  -15.5235   -9.8269   39.6845 N   0  0  0  0  0  0  0  0  0  0  0  0
  -17.3873   -9.5970   37.3904 N   0  0  0  0  0  0  0  0  0  0  0  0
  -17.8356   -9.3167   36.1441 C   0  0  0  0  0  0  0  0  0  0  0  0
  -16.7965   -8.8200   35.4022 N   0  0  0  0  0  0  0  0  0  0  0  0
  2  1  1  1  0  0  0
  2  3  1  0  0  0  0
  2  5  1  0  0  0  0
  3  4  1  0  0  0  0
  3 17  1  0  0  0  0
  5  6  1  0  0  0  0
  7  6  1  1  0  0  0
  7  8  1  0  0  0  0
  7  9  1  0  0  0  0
 10  9  1  1  0  0  0
 10 11  1  0  0  0  0
 10 12  1  0  0  0  0
 11 16  1  0  0  0  0
 12 13  1  6  0  0  0
 12 14  1  0  0  0  0
 14 15  1  6  0  0  0
 14 16  1  0  0  0  0
 16 27  1  1  0  0  0
 18 19  2  0  0  0  0
 18 23  1  0  0  0  0
 19 20  1  0  0  0  0
 20 21  2  0  0  0  0
 21 22  1  0  0  0  0
 21 27  1  0  0  0  0
 22 23  2  0  0  0  0
 22 25  1  0  0  0  0
 23 24  1  0  0  0  0
 25 26  2  0  0  0  0
 26 27  1  0  0  0  0
M  END
>  <CHROM.1>
120.16745762,-133.72541007,-53.16087722,-151.14587006,-115.57234113,99.35941349
-51.07666738,-15.68351599,-7.16736568,34.26107395,-1.51836583,0.27756241
2.22860331

>  <Name>
ligand

>  <RI>
0

>  <Rbt.Current_Directory>
/home/itssahil/PROJECTS/Mol_Feturizer/New_Systems/rnas/3GX6

>  <Rbt.Executable>
rbdock ($Id: //depot/dev/client3/rdock/2013.1/src/exe/rbdock.cxx#4 $)

>  <Rbt.Library>
libRbt.so (2013.1, Build901 2013/11/27)

>  <Rbt.Parameter_File>
/export/apps/rDock/src/rDock_2013.1_src/data/scripts/dock_solv.prm

>  <Rbt.Receptor>
prm/pocket_docking_8.prm

>  <SCORE>
-21.9105

>  <SCORE.INTER>
-17.5225

>  <SCORE.INTER.CONST>
1

>  <SCORE.INTER.POLAR>
0

>  <SCORE.INTER.ROT>
7

>  <SCORE.INTER.SOLV>
13.1623

>  <SCORE.INTER.VDW>
-24.3357

>  <SCORE.INTER.norm>
-0.64898

>  <SCORE.INTRA>
-4.388

>  <SCORE.INTRA.DIHEDRAL>
4.01205

>  <SCORE.INTRA.DIHEDRAL.0>
15.0182

>  <SCORE.INTRA.POLAR>
0

>  <SCORE.INTRA.POLAR.0>
0

>  <SCORE.INTRA.REPUL>
0

>  <SCORE.INTRA.REPUL.0>
0

>  <SCORE.INTRA.SOLV>
0.413519

>  <SCORE.INTRA.SOLV.lig_0>
-47.9129

>  <SCORE.INTRA.VDW>
-6.60079

>  <SCORE.INTRA.VDW.0>
2.00851

>  <SCORE.INTRA.norm>
-0.162519

>  <SCORE.RESTR>
0

>  <SCORE.RESTR.CAVITY>
0

>  <SCORE.RESTR.norm>
0

>  <SCORE.SYSTEM>
0

>  <SCORE.SYSTEM.CONST>
0

>  <SCORE.SYSTEM.DIHEDRAL>
0

>  <SCORE.SYSTEM.SOLV>
0

>  <SCORE.SYSTEM.norm>
0

>  <SCORE.heavy>
27

>  <SCORE.norm>
-0.811498

>  <RMSD>
6.693

$$$$
ligand
 OpenBabel11021811483D
libRbt.so/2013.1/901 2013/11/27
 27 29  0  0  0  0  0  0  0  0999 V2000
  -13.0480   -8.1174   35.7729 N   0  0  0  0  0  0  0  0  0  0  0  0
  -13.9519   -7.5733   34.7631 C   0  0  2  0  0  0  0  0  0  0  0  0
  -14.4888   -8.6597   33.8350 C   0  0  0  0  0  0  0  0  0  0  0  0
  -13.7746   -9.5967   33.4713 O   0  0  0  0  0  0  0  0  0  0  0  0
  -13.2784   -6.4531   33.9762 C   0  0  0  0  0  0  0  0  0  0  0  0
  -14.2643   -5.5402   33.2638 C   0  0  0  0  0  0  0  0  0  0  0  0
  -13.4803   -4.3141   32.1875 S   0  0  2  0  0  0  0  0  0  0  0  0
  -12.4840   -3.4063   33.3956 C   0  0  0  0  0  0  0  0  0  0  0  0
  -14.8538   -3.1603   31.9215 C   0  0  0  0  0  0  0  0  0  0  0  0
  -15.5525   -3.5007   30.6130 C   0  0  1  0  0  0  0  0  0  0  0  0
  -14.5797   -3.5756   29.5981 O   0  0  0  0  0  0  0  0  0  0  0  0
  -16.2514   -4.8467   30.5708 C   0  0  1  0  0  0  0  0  0  0  0  0
  -17.6243   -4.7110   30.8628 O   0  0  0  0  0  0  0  0  0  0  0  0
  -16.0667   -5.2829   29.1315 C   0  0  1  0  0  0  0  0  0  0  0  0
  -17.2926   -5.1303   28.4596 O   0  0  0  0  0  0  0  0  0  0  0  0
  -15.0312   -4.3506   28.5172 C   0  0  2  0  0  0  0  0  0  0  0  0
  -15.6494   -8.6173   33.4264 O   0  0  0  0  0  0  0  0  0  0  0  0
  -13.1665   -7.3112   24.5760 N   0  0  0  0  0  0  0  0  0  0  0  0
  -14.3921   -6.6808   24.6618 C   0  0  0  0  0  0  0  0  0  0  0  0
  -14.7246   -5.9383   25.7791 N   0  0  0  0  0  0  0  0  0  0  0  0
  -13.8517   -5.8238   26.8081 C   0  0  0  0  0  0  0  0  0  0  0  0
  -12.6105   -6.4440   26.7360 C   0  0  0  0  0  0  0  0  0  0  0  0
  -12.2708   -7.1942   25.6167 C   0  0  0  0  0  0  0  0  0  0  0  0
  -11.0856   -7.7960   25.5519 N   0  0  0  0  0  0  0  0  0  0  0  0
  -11.9418   -6.1664   27.8759 N   0  0  0  0  0  0  0  0  0  0  0  0
  -12.7196   -5.3766   28.6530 C   0  0  0  0  0  0  0  0  0  0  0  0
  -13.9069   -5.1533   28.0072 N   0  0  0  0  0  0  0  0  0  0  0  0
  2  1  1  1  0  0  0
  2  3  1  0  0  0  0
  2  5  1  0  0  0  0
  3  4  1  0  0  0  0
  3 17  1  0  0  0  0
  5  6  1  0  0  0  0
  7  6  1  1  0  0  0
  7  8  1  0  0  0  0
  7  9  1  0  0  0  0
 10  9  1  1  0  0  0
 10 11  1  0  0  0  0
 10 12  1  0  0  0  0
 11 16  1  0  0  0  0
 12 13  1  6  0  0  0
 12 14  1  0  0  0  0
 14 15  1  6  0  0  0
 14 16  1  0  0  0  0
 16 27  1  1  0  0  0
 18 19  2  0  0  0  0
 18 23  1  0  0  0  0
 19 20  1  0  0  0  0
 20 21  2  0  0  0  0
 21 22  1  0  0  0  0
 21 27  1  0  0  0  0
 22 23  2  0  0  0  0
 22 25  1  0  0  0  0
 23 24  1  0  0  0  0
 25 26  2  0  0  0  0
 26 27  1  0  0  0  0
M  END
>  <CHROM.1>
-37.50517905,-160.27471901,-173.92345479,-60.58752449,-96.06921848,-51.64596599
-165.60348869,-14.17473366,-5.86737675,30.13055260,-1.71029721,0.98386598
-1.40942452

>  <Name>
ligand

>  <RI>
0

>  <Rbt.Current_Directory>
/home/itssahil/PROJECTS/Mol_Feturizer/New_Systems/rnas/3GX6

>  <Rbt.Executable>
rbdock ($Id: //depot/dev/client3/rdock/2013.1/src/exe/rbdock.cxx#4 $)

>  <Rbt.Library>
libRbt.so (2013.1, Build901 2013/11/27)

>  <Rbt.Parameter_File>
/export/apps/rDock/src/rDock_2013.1_src/data/scripts/dock_solv.prm

>  <Rbt.Receptor>
prm/pocket_docking_6.prm

>  <SCORE>
-22.3624

>  <SCORE.INTER>
-12.9667

>  <SCORE.INTER.CONST>
1

>  <SCORE.INTER.POLAR>
0

>  <SCORE.INTER.ROT>
7

>  <SCORE.INTER.SOLV>
13.6869

>  <SCORE.INTER.VDW>
-21.4734

>  <SCORE.INTER.norm>
-0.480247

>  <SCORE.INTRA>
-9.39572

>  <SCORE.INTRA.DIHEDRAL>
-8.03871

>  <SCORE.INTRA.DIHEDRAL.0>
15.0182

>  <SCORE.INTRA.POLAR>
0

>  <SCORE.INTRA.POLAR.0>
0

>  <SCORE.INTRA.REPUL>
0

>  <SCORE.INTRA.REPUL.0>
0

>  <SCORE.INTRA.SOLV>
-1.58

>  <SCORE.INTRA.SOLV.lig_0>
-47.9129

>  <SCORE.INTRA.VDW>
-4.58637

>  <SCORE.INTRA.VDW.0>
2.00851

>  <SCORE.INTRA.norm>
-0.34799

>  <SCORE.RESTR>
0

>  <SCORE.RESTR.CAVITY>
0

>  <SCORE.RESTR.norm>
0

>  <SCORE.SYSTEM>
0

>  <SCORE.SYSTEM.CONST>
0

>  <SCORE.SYSTEM.DIHEDRAL>
0

>  <SCORE.SYSTEM.SOLV>
0

>  <SCORE.SYSTEM.norm>
0

>  <SCORE.heavy>
27

>  <SCORE.norm>
-0.828237

>  <RMSD>
6.698

$$$$
ligand
 OpenBabel11021811483D
libRbt.so/2013.1/901 2013/11/27
 27 29  0  0  0  0  0  0  0  0999 V2000
  -14.8441   -5.8717   33.1443 N   0  0  0  0  0  0  0  0  0  0  0  0
  -13.5317   -5.2829   32.8915 C   0  0  2  0  0  0  0  0  0  0  0  0
  -13.4319   -3.8600   33.4350 C   0  0  0  0  0  0  0  0  0  0  0  0
  -12.4389   -3.4863   34.0631 O   0  0  0  0  0  0  0  0  0  0  0  0
  -13.1882   -5.3358   31.4059 C   0  0  0  0  0  0  0  0  0  0  0  0
  -12.4332   -6.5942   31.0066 C   0  0  0  0  0  0  0  0  0  0  0  0
  -13.4762   -8.0694   30.8964 S   0  0  2  0  0  0  0  0  0  0  0  0
  -13.4947   -8.5884   32.6304 C   0  0  0  0  0  0  0  0  0  0  0  0
  -12.3122   -9.2620   30.1814 C   0  0  0  0  0  0  0  0  0  0  0  0
  -12.7042   -9.5467   28.7386 C   0  0  1  0  0  0  0  0  0  0  0  0
  -13.9233  -10.2505   28.7416 O   0  0  0  0  0  0  0  0  0  0  0  0
  -12.9704   -8.3272   27.8761 C   0  0  1  0  0  0  0  0  0  0  0  0
  -11.8263   -7.9791   27.1287 O   0  0  0  0  0  0  0  0  0  0  0  0
  -14.0732   -8.7979   26.9497 C   0  0  1  0  0  0  0  0  0  0  0  0
  -13.5197   -9.0203   25.6762 O   0  0  0  0  0  0  0  0  0  0  0  0
  -14.5928  -10.1130   27.5145 C   0  0  2  0  0  0  0  0  0  0  0  0
  -14.3483   -3.0567   33.2595 O   0  0  0  0  0  0  0  0  0  0  0  0
  -18.3417   -8.6535   30.9191 N   0  0  0  0  0  0  0  0  0  0  0  0
  -16.9719   -8.6011   31.0862 C   0  0  0  0  0  0  0  0  0  0  0  0
  -16.1240   -9.0309   30.0829 N   0  0  0  0  0  0  0  0  0  0  0  0
  -16.6278   -9.5141   28.9225 C   0  0  0  0  0  0  0  0  0  0  0  0
  -18.0033   -9.5664   28.7331 C   0  0  0  0  0  0  0  0  0  0  0  0
  -18.8616   -9.1385   29.7386 C   0  0  0  0  0  0  0  0  0  0  0  0
  -20.1791   -9.1975   29.5607 N   0  0  0  0  0  0  0  0  0  0  0  0
  -18.2331  -10.0754   27.5036 N   0  0  0  0  0  0  0  0  0  0  0  0
  -17.0429  -10.3276   26.9098 C   0  0  0  0  0  0  0  0  0  0  0  0
  -16.0367   -9.9855   27.7741 N   0  0  0  0  0  0  0  0  0  0  0  0
  2  1  1  6  0  0  0
  2  3  1  0  0  0  0
  2  5  1  0  0  0  0
  3  4  1  0  0  0  0
  3 17  1  0  0  0  0
  5  6  1  0  0  0  0
  7  6  1  1  0  0  0
  7  8  1  0  0  0  0
  7  9  1  0  0  0  0
 10  9  1  1  0  0  0
 10 11  1  0  0  0  0
 10 12  1  0  0  0  0
 11 16  1  0  0  0  0
 12 13  1  6  0  0  0
 12 14  1  0  0  0  0
 14 15  1  6  0  0  0
 14 16  1  0  0  0  0
 16 27  1  1  0  0  0
 18 19  2  0  0  0  0
 18 23  1  0  0  0  0
 19 20  1  0  0  0  0
 20 21  2  0  0  0  0
 21 22  1  0  0  0  0
 21 27  1  0  0  0  0
 22 23  2  0  0  0  0
 22 25  1  0  0  0  0
 23 24  1  0  0  0  0
 25 26  2  0  0  0  0
 26 27  1  0  0  0  0
M  END
>  <CHROM.1>
135.33632030,-91.10536854,76.05498649,-84.08848759,-108.60789293,-68.22725420
25.63575848,-14.78896161,-8.00731544,29.94812344,1.13681053,0.22070555,0.89916632

>  <Name>
ligand

>  <RI>
0

>  <Rbt.Current_Directory>
/home/itssahil/PROJECTS/Mol_Feturizer/New_Systems/rnas/3GX6

>  <Rbt.Executable>
rbdock ($Id: //depot/dev/client3/rdock/2013.1/src/exe/rbdock.cxx#4 $)

>  <Rbt.Library>
libRbt.so (2013.1, Build901 2013/11/27)

>  <Rbt.Parameter_File>
/export/apps/rDock/src/rDock_2013.1_src/data/scripts/dock_solv.prm

>  <Rbt.Receptor>
prm/pocket_docking_7.prm

>  <SCORE>
-17.6381

>  <SCORE.INTER>
-10.459

>  <SCORE.INTER.CONST>
1

>  <SCORE.INTER.POLAR>
0

>  <SCORE.INTER.ROT>
7

>  <SCORE.INTER.SOLV>
7.53178

>  <SCORE.INTER.VDW>
-17.7499

>  <SCORE.INTER.norm>
-0.387369

>  <SCORE.INTRA>
-7.17914

>  <SCORE.INTRA.DIHEDRAL>
-3.59192

>  <SCORE.INTRA.DIHEDRAL.0>
15.0182

>  <SCORE.INTRA.POLAR>
0

>  <SCORE.INTRA.POLAR.0>
0

>  <SCORE.INTRA.REPUL>
0

>  <SCORE.INTRA.REPUL.0>
0

>  <SCORE.INTRA.SOLV>
1.08424

>  <SCORE.INTRA.SOLV.lig_0>
-47.9129

>  <SCORE.INTRA.VDW>
-5.9253

>  <SCORE.INTRA.VDW.0>
2.00851

>  <SCORE.INTRA.norm>
-0.265894

>  <SCORE.RESTR>
0

>  <SCORE.RESTR.CAVITY>
0

>  <SCORE.RESTR.norm>
0

>  <SCORE.SYSTEM>
0

>  <SCORE.SYSTEM.CONST>
0

>  <SCORE.SYSTEM.DIHEDRAL>
0

>  <SCORE.SYSTEM.SOLV>
0

>  <SCORE.SYSTEM.norm>
0

>  <SCORE.heavy>
27

>  <SCORE.norm>
-0.653263

>  <RMSD>
6.711

$$$$
ligand
 OpenBabel11021811483D
libRbt.so/2013.1/901 2013/11/27
 27 29  0  0  0  0  0  0  0  0999 V2000
  -13.4370   -3.6658   28.4328 N   0  0  0  0  0  0  0  0  0  0  0  0
  -13.9172   -4.0913   29.7448 C   0  0  2  0  0  0  0  0  0  0  0  0
  -14.0351   -2.9191   30.7154 C   0  0  0  0  0  0  0  0  0  0  0  0
  -13.0347   -2.4191   31.2347 O   0  0  0  0  0  0  0  0  0  0  0  0
  -13.0354   -5.1983   30.3147 C   0  0  0  0  0  0  0  0  0  0  0  0
  -13.7514   -6.0767   31.3290 C   0  0  0  0  0  0  0  0  0  0  0  0
  -14.4210   -5.1658   32.7426 S   0  0  2  0  0  0  0  0  0  0  0  0
  -12.8980   -4.8061   33.6524 C   0  0  0  0  0  0  0  0  0  0  0  0
  -15.1124   -6.5208   33.7297 C   0  0  0  0  0  0  0  0  0  0  0  0
  -16.4014   -7.0085   33.0840 C   0  0  1  0  0  0  0  0  0  0  0  0
  -16.8512   -8.1389   33.7921 O   0  0  0  0  0  0  0  0  0  0  0  0
  -17.5684   -6.0402   33.1310 C   0  0  1  0  0  0  0  0  0  0  0  0
  -17.6594   -5.3020   31.9329 O   0  0  0  0  0  0  0  0  0  0  0  0
  -18.7674   -6.9563   33.2695 C   0  0  1  0  0  0  0  0  0  0  0  0
  -19.4375   -7.0019   32.0339 O   0  0  0  0  0  0  0  0  0  0  0  0
  -18.2289   -8.3401   33.6066 C   0  0  2  0  0  0  0  0  0  0  0  0
  -15.1374   -2.4524   31.0030 O   0  0  0  0  0  0  0  0  0  0  0  0
  -17.3558   -9.7252   38.6161 N   0  0  0  0  0  0  0  0  0  0  0  0
  -16.4321   -9.3342   37.6670 C   0  0  0  0  0  0  0  0  0  0  0  0
  -16.8356   -9.0043   36.3869 N   0  0  0  0  0  0  0  0  0  0  0  0
  -18.1447   -9.0652   36.0458 C   0  0  0  0  0  0  0  0  0  0  0  0
  -19.0895   -9.4481   36.9900 C   0  0  0  0  0  0  0  0  0  0  0  0
  -18.6905   -9.7837   38.2780 C   0  0  0  0  0  0  0  0  0  0  0  0
  -19.5944  -10.1597   39.1795 N   0  0  0  0  0  0  0  0  0  0  0  0
  -20.3028   -9.4170   36.3981 N   0  0  0  0  0  0  0  0  0  0  0  0
  -20.1493   -9.0094   35.1163 C   0  0  0  0  0  0  0  0  0  0  0  0
  -18.8184   -8.7862   34.8802 N   0  0  0  0  0  0  0  0  0  0  0  0
  2  1  1  6  0  0  0
  2  3  1  0  0  0  0
  2  5  1  0  0  0  0
  3  4  1  0  0  0  0
  3 17  1  0  0  0  0
  5  6  1  0  0  0  0
  7  6  1  6  0  0  0
  7  8  1  0  0  0  0
  7  9  1  0  0  0  0
 10  9  1  1  0  0  0
 10 11  1  0  0  0  0
 10 12  1  0  0  0  0
 11 16  1  0  0  0  0
 12 13  1  6  0  0  0
 12 14  1  0  0  0  0
 14 15  1  6  0  0  0
 14 16  1  0  0  0  0
 16 27  1  1  0  0  0
 18 19  2  0  0  0  0
 18 23  1  0  0  0  0
 19 20  1  0  0  0  0
 20 21  2  0  0  0  0
 21 22  1  0  0  0  0
 21 27  1  0  0  0  0
 22 23  2  0  0  0  0
 22 25  1  0  0  0  0
 23 24  1  0  0  0  0
 25 26  2  0  0  0  0
 26 27  1  0  0  0  0
M  END
>  <CHROM.1>
-75.48290324,-155.54760997,-57.81200721,-73.93249441,-74.83469597,174.47768061
-4.53077096,-16.47686419,-6.71410115,33.68398957,1.00786936,-0.31435383,-1.03532058

>  <Name>
ligand

>  <RI>
0

>  <Rbt.Current_Directory>
/home/itssahil/PROJECTS/Mol_Feturizer/New_Systems/rnas/3GX6

>  <Rbt.Executable>
rbdock ($Id: //depot/dev/client3/rdock/2013.1/src/exe/rbdock.cxx#4 $)

>  <Rbt.Library>
libRbt.so (2013.1, Build901 2013/11/27)

>  <Rbt.Parameter_File>
/export/apps/rDock/src/rDock_2013.1_src/data/scripts/dock_solv.prm

>  <Rbt.Receptor>
prm/pocket_docking_8.prm

>  <SCORE>
-20.1168

>  <SCORE.INTER>
-9.47412

>  <SCORE.INTER.CONST>
1

>  <SCORE.INTER.POLAR>
0

>  <SCORE.INTER.ROT>
7

>  <SCORE.INTER.SOLV>
12.1788

>  <SCORE.INTER.VDW>
-18.6423

>  <SCORE.INTER.norm>
-0.350893

>  <SCORE.INTRA>
-10.6427

>  <SCORE.INTRA.DIHEDRAL>
-9.49079

>  <SCORE.INTRA.DIHEDRAL.0>
15.0182

>  <SCORE.INTRA.POLAR>
0

>  <SCORE.INTRA.POLAR.0>
0

>  <SCORE.INTRA.REPUL>
0

>  <SCORE.INTRA.REPUL.0>
0

>  <SCORE.INTRA.SOLV>
-1.45119

>  <SCORE.INTRA.SOLV.lig_0>
-47.9129

>  <SCORE.INTRA.VDW>
-5.17168

>  <SCORE.INTRA.VDW.0>
2.00851

>  <SCORE.INTRA.norm>
-0.394173

>  <SCORE.RESTR>
0

>  <SCORE.RESTR.CAVITY>
0

>  <SCORE.RESTR.norm>
0

>  <SCORE.SYSTEM>
0

>  <SCORE.SYSTEM.CONST>
0

>  <SCORE.SYSTEM.DIHEDRAL>
0

>  <SCORE.SYSTEM.SOLV>
0

>  <SCORE.SYSTEM.norm>
0

>  <SCORE.heavy>
27

>  <SCORE.norm>
-0.745066

>  <RMSD>
6.716

$$$$
ligand
 OpenBabel11021811483D
libRbt.so/2013.1/901 2013/11/27
 27 29  0  0  0  0  0  0  0  0999 V2000
  -12.2773   -4.1537   33.1523 N   0  0  0  0  0  0  0  0  0  0  0  0
  -13.4268   -4.1259   32.2518 C   0  0  2  0  0  0  0  0  0  0  0  0
  -13.2132   -3.1647   31.0855 C   0  0  0  0  0  0  0  0  0  0  0  0
  -13.2005   -3.5693   29.9208 O   0  0  0  0  0  0  0  0  0  0  0  0
  -14.7076   -3.7992   33.0138 C   0  0  0  0  0  0  0  0  0  0  0  0
  -15.9684   -4.0019   32.1877 C   0  0  0  0  0  0  0  0  0  0  0  0
  -16.3983   -5.7400   31.9228 S   0  0  2  0  0  0  0  0  0  0  0  0
  -17.5811   -5.5817   30.5618 C   0  0  0  0  0  0  0  0  0  0  0  0
  -17.5088   -6.0381   33.3252 C   0  0  0  0  0  0  0  0  0  0  0  0
  -17.7882   -7.5298   33.4392 C   0  0  1  0  0  0  0  0  0  0  0  0
  -16.8709   -8.0836   34.3521 O   0  0  0  0  0  0  0  0  0  0  0  0
  -19.1501   -7.9039   33.9933 C   0  0  1  0  0  0  0  0  0  0  0  0
  -20.0628   -8.1684   32.9513 O   0  0  0  0  0  0  0  0  0  0  0  0
  -18.8662   -9.1733   34.7704 C   0  0  1  0  0  0  0  0  0  0  0  0
  -19.3641  -10.2649   34.0368 O   0  0  0  0  0  0  0  0  0  0  0  0
  -17.3525   -9.2889   34.8890 C   0  0  2  0  0  0  0  0  0  0  0  0
  -13.0437   -1.9622   31.2878 O   0  0  0  0  0  0  0  0  0  0  0  0
  -13.5875   -8.5663   38.5053 N   0  0  0  0  0  0  0  0  0  0  0  0
  -13.5073   -8.3692   37.1409 C   0  0  0  0  0  0  0  0  0  0  0  0
  -14.5998   -8.6117   36.3297 N   0  0  0  0  0  0  0  0  0  0  0  0
  -15.7638   -9.0511   36.8643 C   0  0  0  0  0  0  0  0  0  0  0  0
  -15.8658   -9.2469   38.2361 C   0  0  0  0  0  0  0  0  0  0  0  0
  -14.7706   -9.0077   39.0571 C   0  0  0  0  0  0  0  0  0  0  0  0
  -14.8656   -9.2044   40.3699 N   0  0  0  0  0  0  0  0  0  0  0  0
  -17.1191   -9.6741   38.5015 N   0  0  0  0  0  0  0  0  0  0  0  0
  -17.8110   -9.7354   37.3396 C   0  0  0  0  0  0  0  0  0  0  0  0
  -16.9873   -9.3524   36.3142 N   0  0  0  0  0  0  0  0  0  0  0  0
  2  1  1  1  0  0  0
  2  3  1  0  0  0  0
  2  5  1  0  0  0  0
  3  4  1  0  0  0  0
  3 17  1  0  0  0  0
  5  6  1  0  0  0  0
  7  6  1  1  0  0  0
  7  8  1  0  0  0  0
  7  9  1  0  0  0  0
 10  9  1  1  0  0  0
 10 11  1  0  0  0  0
 10 12  1  0  0  0  0
 11 16  1  0  0  0  0
 12 13  1  6  0  0  0
 12 14  1  0  0  0  0
 14 15  1  6  0  0  0
 14 16  1  0  0  0  0
 16 27  1  1  0  0  0
 18 19  2  0  0  0  0
 18 23  1  0  0  0  0
 19 20  1  0  0  0  0
 20 21  2  0  0  0  0
 21 22  1  0  0  0  0
 21 27  1  0  0  0  0
 22 23  2  0  0  0  0
 22 25  1  0  0  0  0
 23 24  1  0  0  0  0
 25 26  2  0  0  0  0
 26 27  1  0  0  0  0
M  END
>  <CHROM.1>
118.19338563,-169.53508836,73.43072320,-164.12645191,-169.53557960,94.02657677
-45.36887224,-16.03256648,-7.03804911,34.41661880,-1.28597192,0.49628514
2.17487877

>  <Name>
ligand

>  <RI>
0

>  <Rbt.Current_Directory>
/home/itssahil/PROJECTS/Mol_Feturizer/New_Systems/rnas/3GX6

>  <Rbt.Executable>
rbdock ($Id: //depot/dev/client3/rdock/2013.1/src/exe/rbdock.cxx#4 $)

>  <Rbt.Library>
libRbt.so (2013.1, Build901 2013/11/27)

>  <Rbt.Parameter_File>
/export/apps/rDock/src/rDock_2013.1_src/data/scripts/dock_solv.prm

>  <Rbt.Receptor>
prm/pocket_docking_8.prm

>  <SCORE>
-24.1954

>  <SCORE.INTER>
-16.3653

>  <SCORE.INTER.CONST>
1

>  <SCORE.INTER.POLAR>
0

>  <SCORE.INTER.ROT>
7

>  <SCORE.INTER.SOLV>
13.5331

>  <SCORE.INTER.VDW>
-23.6879

>  <SCORE.INTER.norm>
-0.606121

>  <SCORE.INTRA>
-7.83011

>  <SCORE.INTRA.DIHEDRAL>
-5.12406

>  <SCORE.INTRA.DIHEDRAL.0>
15.0182

>  <SCORE.INTRA.POLAR>
0

>  <SCORE.INTRA.POLAR.0>
0

>  <SCORE.INTRA.REPUL>
0

>  <SCORE.INTRA.REPUL.0>
0

>  <SCORE.INTRA.SOLV>
-1.76784

>  <SCORE.INTRA.SOLV.lig_0>
-47.9129

>  <SCORE.INTRA.VDW>
-4.38416

>  <SCORE.INTRA.VDW.0>
2.00851

>  <SCORE.INTRA.norm>
-0.290004

>  <SCORE.RESTR>
0

>  <SCORE.RESTR.CAVITY>
0

>  <SCORE.RESTR.norm>
0

>  <SCORE.SYSTEM>
0

>  <SCORE.SYSTEM.CONST>
0

>  <SCORE.SYSTEM.DIHEDRAL>
0

>  <SCORE.SYSTEM.SOLV>
0

>  <SCORE.SYSTEM.norm>
0

>  <SCORE.heavy>
27

>  <SCORE.norm>
-0.896125

>  <RMSD>
6.728

$$$$
ligand
 OpenBabel11021811483D
libRbt.so/2013.1/901 2013/11/27
 27 29  0  0  0  0  0  0  0  0999 V2000
  -14.9292   -1.8309   32.4491 N   0  0  0  0  0  0  0  0  0  0  0  0
  -14.3730   -3.1378   32.7888 C   0  0  2  0  0  0  0  0  0  0  0  0
  -12.8747   -3.0629   33.0712 C   0  0  0  0  0  0  0  0  0  0  0  0
  -12.4151   -3.3994   34.1647 O   0  0  0  0  0  0  0  0  0  0  0  0
  -14.6829   -4.1612   31.7004 C   0  0  0  0  0  0  0  0  0  0  0  0
  -14.0561   -5.5228   31.9576 C   0  0  0  0  0  0  0  0  0  0  0  0
  -14.7854   -6.4119   33.3554 S   0  0  2  0  0  0  0  0  0  0  0  0
  -13.3014   -6.7654   34.3298 C   0  0  0  0  0  0  0  0  0  0  0  0
  -15.1099   -8.0298   32.6034 C   0  0  0  0  0  0  0  0  0  0  0  0
  -16.4517   -8.5542   33.0943 C   0  0  1  0  0  0  0  0  0  0  0  0
  -16.2259   -9.3528   34.2313 O   0  0  0  0  0  0  0  0  0  0  0  0
  -17.4400   -7.5009   33.5586 C   0  0  1  0  0  0  0  0  0  0  0  0
  -18.3429   -7.1677   32.5278 O   0  0  0  0  0  0  0  0  0  0  0  0
  -18.1738   -8.1949   34.6882 C   0  0  1  0  0  0  0  0  0  0  0  0
  -19.4557   -8.5516   34.2331 O   0  0  0  0  0  0  0  0  0  0  0  0
  -17.3839   -9.4537   35.0199 C   0  0  2  0  0  0  0  0  0  0  0  0
  -12.0944   -2.6582   32.2093 O   0  0  0  0  0  0  0  0  0  0  0  0
  -13.5520   -8.5034   38.5111 N   0  0  0  0  0  0  0  0  0  0  0  0
  -13.4931   -8.4090   37.1347 C   0  0  0  0  0  0  0  0  0  0  0  0
  -14.6012   -8.6998   36.3616 N   0  0  0  0  0  0  0  0  0  0  0  0
  -15.7600   -9.0863   36.9461 C   0  0  0  0  0  0  0  0  0  0  0  0
  -15.8407   -9.1786   38.3301 C   0  0  0  0  0  0  0  0  0  0  0  0
  -14.7296   -8.8904   39.1133 C   0  0  0  0  0  0  0  0  0  0  0  0
  -14.8042   -8.9881   40.4384 N   0  0  0  0  0  0  0  0  0  0  0  0
  -17.0931   -9.5720   38.6468 N   0  0  0  0  0  0  0  0  0  0  0  0
  -17.8051   -9.7123   37.5040 C   0  0  0  0  0  0  0  0  0  0  0  0
  -16.9953   -9.4150   36.4397 N   0  0  0  0  0  0  0  0  0  0  0  0
  2  1  1  6  0  0  0
  2  3  1  0  0  0  0
  2  5  1  0  0  0  0
  3  4  1  0  0  0  0
  3 17  1  0  0  0  0
  5  6  1  0  0  0  0
  7  6  1  6  0  0  0
  7  8  1  0  0  0  0
  7  9  1  0  0  0  0
 10  9  1  1  0  0  0
 10 11  1  0  0  0  0
 10 12  1  0  0  0  0
 11 16  1  0  0  0  0
 12 13  1  6  0  0  0
 12 14  1  0  0  0  0
 14 15  1  6  0  0  0
 14 16  1  0  0  0  0
 16 27  1  1  0  0  0
 18 19  2  0  0  0  0
 18 23  1  0  0  0  0
 19 20  1  0  0  0  0
 20 21  2  0  0  0  0
 21 22  1  0  0  0  0
 21 27  1  0  0  0  0
 22 23  2  0  0  0  0
 22 25  1  0  0  0  0
 23 24  1  0  0  0  0
 25 26  2  0  0  0  0
 26 27  1  0  0  0  0
M  END
>  <CHROM.1>
120.21393228,176.49120561,69.08922940,-126.13897126,-140.09266807,-92.44480308
11.32145336,-15.40101853,-7.10216302,34.85037747,-1.16826885,0.61538260,2.16915429

>  <Name>
ligand

>  <RI>
0

>  <Rbt.Current_Directory>
/home/itssahil/PROJECTS/Mol_Feturizer/New_Systems/rnas/3GX6

>  <Rbt.Executable>
rbdock ($Id: //depot/dev/client3/rdock/2013.1/src/exe/rbdock.cxx#4 $)

>  <Rbt.Library>
libRbt.so (2013.1, Build901 2013/11/27)

>  <Rbt.Parameter_File>
/export/apps/rDock/src/rDock_2013.1_src/data/scripts/dock_solv.prm

>  <Rbt.Receptor>
prm/pocket_docking_7.prm

>  <SCORE>
-23.4534

>  <SCORE.INTER>
-18.0823

>  <SCORE.INTER.CONST>
1

>  <SCORE.INTER.POLAR>
0

>  <SCORE.INTER.ROT>
7

>  <SCORE.INTER.SOLV>
14.4681

>  <SCORE.INTER.VDW>
-25.1442

>  <SCORE.INTER.norm>
-0.669715

>  <SCORE.INTRA>
-5.37115

>  <SCORE.INTRA.DIHEDRAL>
-0.216187

>  <SCORE.INTRA.DIHEDRAL.0>
15.0182

>  <SCORE.INTRA.POLAR>
0

>  <SCORE.INTRA.POLAR.0>
0

>  <SCORE.INTRA.REPUL>
0

>  <SCORE.INTRA.REPUL.0>
0

>  <SCORE.INTRA.SOLV>
-1.50673

>  <SCORE.INTRA.SOLV.lig_0>
-47.9129

>  <SCORE.INTRA.VDW>
-4.50969

>  <SCORE.INTRA.VDW.0>
2.00851

>  <SCORE.INTRA.norm>
-0.198931

>  <SCORE.RESTR>
0

>  <SCORE.RESTR.CAVITY>
0

>  <SCORE.RESTR.norm>
0

>  <SCORE.SYSTEM>
0

>  <SCORE.SYSTEM.CONST>
0

>  <SCORE.SYSTEM.DIHEDRAL>
0

>  <SCORE.SYSTEM.SOLV>
0

>  <SCORE.SYSTEM.norm>
0

>  <SCORE.heavy>
27

>  <SCORE.norm>
-0.868646

>  <RMSD>
6.747

$$$$
ligand
 OpenBabel11021811483D
libRbt.so/2013.1/901 2013/11/27
 27 29  0  0  0  0  0  0  0  0999 V2000
  -14.9419   -6.1000   26.7021 N   0  0  0  0  0  0  0  0  0  0  0  0
  -14.8596   -5.0794   27.7435 C   0  0  2  0  0  0  0  0  0  0  0  0
  -13.4139   -4.7135   28.0690 C   0  0  0  0  0  0  0  0  0  0  0  0
  -12.4917   -5.5007   27.8446 O   0  0  0  0  0  0  0  0  0  0  0  0
  -15.6178   -5.5148   28.9939 C   0  0  0  0  0  0  0  0  0  0  0  0
  -17.1256   -5.5582   28.7996 C   0  0  0  0  0  0  0  0  0  0  0  0
  -18.0239   -6.2686   30.2013 S   0  0  2  0  0  0  0  0  0  0  0  0
  -19.7249   -5.8467   29.7486 C   0  0  0  0  0  0  0  0  0  0  0  0
  -17.6835   -5.0375   31.4885 C   0  0  0  0  0  0  0  0  0  0  0  0
  -17.4307   -5.7471   32.8110 C   0  0  1  0  0  0  0  0  0  0  0  0
  -18.5862   -6.4759   33.1504 O   0  0  0  0  0  0  0  0  0  0  0  0
  -16.3184   -6.7790   32.8021 C   0  0  1  0  0  0  0  0  0  0  0  0
  -15.1107   -6.2222   33.2714 O   0  0  0  0  0  0  0  0  0  0  0  0
  -16.8186   -7.8292   33.7731 C   0  0  1  0  0  0  0  0  0  0  0  0
  -16.0892   -7.7121   34.9698 O   0  0  0  0  0  0  0  0  0  0  0  0
  -18.2856   -7.5205   34.0400 C   0  0  2  0  0  0  0  0  0  0  0  0
  -13.1413   -3.6221   28.5691 O   0  0  0  0  0  0  0  0  0  0  0  0
  -20.5667  -11.9698   35.7059 N   0  0  0  0  0  0  0  0  0  0  0  0
  -19.8274  -11.0644   36.4412 C   0  0  0  0  0  0  0  0  0  0  0  0
  -19.2937   -9.9398   35.8408 N   0  0  0  0  0  0  0  0  0  0  0  0
  -19.4859   -9.7141   34.5194 C   0  0  0  0  0  0  0  0  0  0  0  0
  -20.2342  -10.6096   33.7654 C   0  0  0  0  0  0  0  0  0  0  0  0
  -20.7715  -11.7437   34.3621 C   0  0  0  0  0  0  0  0  0  0  0  0
  -21.4802  -12.6062   33.6376 N   0  0  0  0  0  0  0  0  0  0  0  0
  -20.2768  -10.1485   32.4968 N   0  0  0  0  0  0  0  0  0  0  0  0
  -19.5924   -8.9821   32.4366 C   0  0  0  0  0  0  0  0  0  0  0  0
  -19.0955   -8.6967   33.6810 N   0  0  0  0  0  0  0  0  0  0  0  0
  2  1  1  6  0  0  0
  2  3  1  0  0  0  0
  2  5  1  0  0  0  0
  3  4  1  0  0  0  0
  3 17  1  0  0  0  0
  5  6  1  0  0  0  0
  7  6  1  6  0  0  0
  7  8  1  0  0  0  0
  7  9  1  0  0  0  0
 10  9  1  6  0  0  0
 10 11  1  0  0  0  0
 10 12  1  0  0  0  0
 11 16  1  0  0  0  0
 12 13  1  1  0  0  0
 12 14  1  0  0  0  0
 14 15  1  1  0  0  0
 14 16  1  0  0  0  0
 16 27  1  6  0  0  0
 18 19  2  0  0  0  0
 18 23  1  0  0  0  0
 19 20  1  0  0  0  0
 20 21  2  0  0  0  0
 21 22  1  0  0  0  0
 21 27  1  0  0  0  0
 22 23  2  0  0  0  0
 22 25  1  0  0  0  0
 23 24  1  0  0  0  0
 25 26  2  0  0  0  0
 26 27  1  0  0  0  0
M  END
>  <CHROM.1>
-23.89140546,-68.93793858,172.75231223,169.24442155,-140.08219863,-60.67221059
-154.23506139,-17.57123030,-7.51027442,31.92445927,0.85610782,-0.59344832
-1.28577229

>  <Name>
ligand

>  <RI>
0

>  <Rbt.Current_Directory>
/home/itssahil/PROJECTS/Mol_Feturizer/New_Systems/rnas/3GX6

>  <Rbt.Executable>
rbdock ($Id: //depot/dev/client3/rdock/2013.1/src/exe/rbdock.cxx#4 $)

>  <Rbt.Library>
libRbt.so (2013.1, Build901 2013/11/27)

>  <Rbt.Parameter_File>
/export/apps/rDock/src/rDock_2013.1_src/data/scripts/dock_solv.prm

>  <Rbt.Receptor>
prm/pocket_docking_8.prm

>  <SCORE>
-17.6681

>  <SCORE.INTER>
-8.54658

>  <SCORE.INTER.CONST>
1

>  <SCORE.INTER.POLAR>
0

>  <SCORE.INTER.ROT>
7

>  <SCORE.INTER.SOLV>
10.7696

>  <SCORE.INTER.VDW>
-17.5543

>  <SCORE.INTER.norm>
-0.31654

>  <SCORE.INTRA>
-9.12466

>  <SCORE.INTRA.DIHEDRAL>
-7.35971

>  <SCORE.INTRA.DIHEDRAL.0>
15.0182

>  <SCORE.INTRA.POLAR>
0

>  <SCORE.INTRA.POLAR.0>
0

>  <SCORE.INTRA.REPUL>
0

>  <SCORE.INTRA.REPUL.0>
0

>  <SCORE.INTRA.SOLV>
-0.996816

>  <SCORE.INTRA.SOLV.lig_0>
-47.9129

>  <SCORE.INTRA.VDW>
-4.94639

>  <SCORE.INTRA.VDW.0>
2.00851

>  <SCORE.INTRA.norm>
-0.33795

>  <SCORE.RESTR>
0.00312632

>  <SCORE.RESTR.CAVITY>
0.00312632

>  <SCORE.RESTR.norm>
0.00011579

>  <SCORE.SYSTEM>
0

>  <SCORE.SYSTEM.CONST>
0

>  <SCORE.SYSTEM.DIHEDRAL>
0

>  <SCORE.SYSTEM.SOLV>
0

>  <SCORE.SYSTEM.norm>
0

>  <SCORE.heavy>
27

>  <SCORE.norm>
-0.654374

>  <RMSD>
6.750

$$$$
ligand
 OpenBabel11021811483D
libRbt.so/2013.1/901 2013/11/27
 27 29  0  0  0  0  0  0  0  0999 V2000
  -13.3521   -2.2314   32.3811 N   0  0  0  0  0  0  0  0  0  0  0  0
  -14.4551   -3.1113   32.0041 C   0  0  2  0  0  0  0  0  0  0  0  0
  -15.7385   -2.3309   31.7324 C   0  0  0  0  0  0  0  0  0  0  0  0
  -15.9005   -1.1946   32.1831 O   0  0  0  0  0  0  0  0  0  0  0  0
  -14.6744   -4.1920   33.0585 C   0  0  0  0  0  0  0  0  0  0  0  0
  -15.5236   -5.3527   32.5639 C   0  0  0  0  0  0  0  0  0  0  0  0
  -15.6809   -6.7049   33.7568 S   0  0  2  0  0  0  0  0  0  0  0  0
  -13.9454   -7.1870   33.9370 C   0  0  0  0  0  0  0  0  0  0  0  0
  -16.3092   -8.0321   32.6927 C   0  0  0  0  0  0  0  0  0  0  0  0
  -17.4047   -8.7915   33.4271 C   0  0  1  0  0  0  0  0  0  0  0  0
  -16.8239   -9.4569   34.5232 O   0  0  0  0  0  0  0  0  0  0  0  0
  -18.5015   -7.9387   34.0367 C   0  0  1  0  0  0  0  0  0  0  0  0
  -19.6163   -7.8610   33.1767 O   0  0  0  0  0  0  0  0  0  0  0  0
  -18.8673   -8.7002   35.2946 C   0  0  1  0  0  0  0  0  0  0  0  0
  -20.1018   -9.3401   35.0841 O   0  0  0  0  0  0  0  0  0  0  0  0
  -17.7824   -9.7471   35.5081 C   0  0  2  0  0  0  0  0  0  0  0  0
  -16.6423   -2.8264   31.0591 O   0  0  0  0  0  0  0  0  0  0  0  0
  -13.4423   -8.4812   38.2167 N   0  0  0  0  0  0  0  0  0  0  0  0
  -13.5992   -8.5592   36.8469 C   0  0  0  0  0  0  0  0  0  0  0  0
  -14.8174   -8.9119   36.2974 N   0  0  0  0  0  0  0  0  0  0  0  0
  -15.8734   -9.1904   37.0981 C   0  0  0  0  0  0  0  0  0  0  0  0
  -15.7367   -9.1088   38.4784 C   0  0  0  0  0  0  0  0  0  0  0  0
  -14.5141   -8.7575   39.0376 C   0  0  0  0  0  0  0  0  0  0  0  0
  -14.3809   -8.6886   40.3600 N   0  0  0  0  0  0  0  0  0  0  0  0
  -16.9273   -9.4246   39.0320 N   0  0  0  0  0  0  0  0  0  0  0  0
  -17.8109   -9.6849   38.0399 C   0  0  0  0  0  0  0  0  0  0  0  0
  -17.1756   -9.5442   36.8344 N   0  0  0  0  0  0  0  0  0  0  0  0
  2  1  1  1  0  0  0
  2  3  1  0  0  0  0
  2  5  1  0  0  0  0
  3  4  1  0  0  0  0
  3 17  1  0  0  0  0
  5  6  1  0  0  0  0
  7  6  1  6  0  0  0
  7  8  1  0  0  0  0
  7  9  1  0  0  0  0
 10  9  1  1  0  0  0
 10 11  1  0  0  0  0
 10 12  1  0  0  0  0
 11 16  1  0  0  0  0
 12 13  1  6  0  0  0
 12 14  1  0  0  0  0
 14 15  1  6  0  0  0
 14 16  1  0  0  0  0
 16 27  1  1  0  0  0
 18 19  2  0  0  0  0
 18 23  1  0  0  0  0
 19 20  1  0  0  0  0
 20 21  2  0  0  0  0
 21 22  1  0  0  0  0
 21 27  1  0  0  0  0
 22 23  2  0  0  0  0
 22 25  1  0  0  0  0
 23 24  1  0  0  0  0
 25 26  2  0  0  0  0
 26 27  1  0  0  0  0
M  END
>  <CHROM.1>
-20.75156469,-163.89762058,175.28540535,-60.87922725,-138.18112940,-66.42553162
-2.78792587,-16.15141528,-7.15533991,34.90767834,-1.43967993,0.56065973,2.33045933

>  <Name>
ligand

>  <RI>
0

>  <Rbt.Current_Directory>
/home/itssahil/PROJECTS/Mol_Feturizer/New_Systems/rnas/3GX6

>  <Rbt.Executable>
rbdock ($Id: //depot/dev/client3/rdock/2013.1/src/exe/rbdock.cxx#4 $)

>  <Rbt.Library>
libRbt.so (2013.1, Build901 2013/11/27)

>  <Rbt.Parameter_File>
/export/apps/rDock/src/rDock_2013.1_src/data/scripts/dock_solv.prm

>  <Rbt.Receptor>
prm/pocket_docking_7.prm

>  <SCORE>
-25.5513

>  <SCORE.INTER>
-17.0184

>  <SCORE.INTER.CONST>
1

>  <SCORE.INTER.POLAR>
0

>  <SCORE.INTER.ROT>
7

>  <SCORE.INTER.SOLV>
15.2447

>  <SCORE.INTER.VDW>
-24.6938

>  <SCORE.INTER.norm>
-0.63031

>  <SCORE.INTRA>
-8.53289

>  <SCORE.INTRA.DIHEDRAL>
-6.48039

>  <SCORE.INTRA.DIHEDRAL.0>
15.0182

>  <SCORE.INTRA.POLAR>
0

>  <SCORE.INTRA.POLAR.0>
0

>  <SCORE.INTRA.REPUL>
0

>  <SCORE.INTRA.REPUL.0>
0

>  <SCORE.INTRA.SOLV>
-1.57049

>  <SCORE.INTRA.SOLV.lig_0>
-47.9129

>  <SCORE.INTRA.VDW>
-4.50745

>  <SCORE.INTRA.VDW.0>
2.00851

>  <SCORE.INTRA.norm>
-0.316033

>  <SCORE.RESTR>
0

>  <SCORE.RESTR.CAVITY>
0

>  <SCORE.RESTR.norm>
0

>  <SCORE.SYSTEM>
0

>  <SCORE.SYSTEM.CONST>
0

>  <SCORE.SYSTEM.DIHEDRAL>
0

>  <SCORE.SYSTEM.SOLV>
0

>  <SCORE.SYSTEM.norm>
0

>  <SCORE.heavy>
27

>  <SCORE.norm>
-0.946343

>  <RMSD>
6.754

$$$$
ligand
 OpenBabel11021811483D
libRbt.so/2013.1/901 2013/11/27
 27 29  0  0  0  0  0  0  0  0999 V2000
  -13.3249   -7.8111   35.9932 N   0  0  0  0  0  0  0  0  0  0  0  0
  -13.1033   -7.9638   34.5578 C   0  0  2  0  0  0  0  0  0  0  0  0
  -12.6716   -6.6528   33.9059 C   0  0  0  0  0  0  0  0  0  0  0  0
  -12.8564   -5.5709   34.4678 O   0  0  0  0  0  0  0  0  0  0  0  0
  -14.3382   -8.5439   33.8748 C   0  0  0  0  0  0  0  0  0  0  0  0
  -15.5710   -7.6636   34.0103 C   0  0  0  0  0  0  0  0  0  0  0  0
  -15.5000   -6.1478   33.0237 S   0  0  2  0  0  0  0  0  0  0  0  0
  -17.0890   -5.3982   33.4592 C   0  0  0  0  0  0  0  0  0  0  0  0
  -15.8557   -6.7969   31.3682 C   0  0  0  0  0  0  0  0  0  0  0  0
  -15.5813   -5.7158   30.3328 C   0  0  1  0  0  0  0  0  0  0  0  0
  -14.1960   -5.6814   30.0849 O   0  0  0  0  0  0  0  0  0  0  0  0
  -16.2070   -5.9372   28.9685 C   0  0  1  0  0  0  0  0  0  0  0  0
  -17.4296   -5.2434   28.8562 O   0  0  0  0  0  0  0  0  0  0  0  0
  -15.1834   -5.3430   28.0224 C   0  0  1  0  0  0  0  0  0  0  0  0
  -15.6752   -4.1131   27.5501 O   0  0  0  0  0  0  0  0  0  0  0  0
  -13.9173   -5.1057   28.8344 C   0  0  2  0  0  0  0  0  0  0  0  0
  -12.1329   -6.6513   32.7989 O   0  0  0  0  0  0  0  0  0  0  0  0
  -12.0573   -7.4140   24.4769 N   0  0  0  0  0  0  0  0  0  0  0  0
  -13.2688   -6.7745   24.6514 C   0  0  0  0  0  0  0  0  0  0  0  0
  -13.6023   -6.2208   25.8731 N   0  0  0  0  0  0  0  0  0  0  0  0
  -12.7445   -6.3031   26.9178 C   0  0  0  0  0  0  0  0  0  0  0  0
  -11.5175   -6.9352   26.7585 C   0  0  0  0  0  0  0  0  0  0  0  0
  -11.1769   -7.4964   25.5338 C   0  0  0  0  0  0  0  0  0  0  0  0
  -10.0056   -8.1102   25.3842 N   0  0  0  0  0  0  0  0  0  0  0  0
  -10.8619   -6.8700   27.9373 N   0  0  0  0  0  0  0  0  0  0  0  0
  -11.6336   -6.2009   28.8258 C   0  0  0  0  0  0  0  0  0  0  0  0
  -12.8041   -5.8414   28.2115 N   0  0  0  0  0  0  0  0  0  0  0  0
  2  1  1  1  0  0  0
  2  3  1  0  0  0  0
  2  5  1  0  0  0  0
  3  4  1  0  0  0  0
  3 17  1  0  0  0  0
  5  6  1  0  0  0  0
  7  6  1  1  0  0  0
  7  8  1  0  0  0  0
  7  9  1  0  0  0  0
 10  9  1  1  0  0  0
 10 11  1  0  0  0  0
 10 12  1  0  0  0  0
 11 16  1  0  0  0  0
 12 13  1  1  0  0  0
 12 14  1  0  0  0  0
 14 15  1  1  0  0  0
 14 16  1  0  0  0  0
 16 27  1  6  0  0  0
 18 19  2  0  0  0  0
 18 23  1  0  0  0  0
 19 20  1  0  0  0  0
 20 21  2  0  0  0  0
 21 22  1  0  0  0  0
 21 27  1  0  0  0  0
 22 23  2  0  0  0  0
 22 25  1  0  0  0  0
 23 24  1  0  0  0  0
 25 26  2  0  0  0  0
 26 27  1  0  0  0  0
M  END
>  <CHROM.1>
-18.13801517,61.25734601,71.51056737,-179.49923714,-169.18384825,80.66496808
132.87136431,-13.85937247,-6.41778409,30.04442464,-1.85070801,0.38604456
-1.44543105

>  <Name>
ligand

>  <RI>
0

>  <Rbt.Current_Directory>
/home/itssahil/PROJECTS/Mol_Feturizer/New_Systems/rnas/3GX6

>  <Rbt.Executable>
rbdock ($Id: //depot/dev/client3/rdock/2013.1/src/exe/rbdock.cxx#4 $)

>  <Rbt.Library>
libRbt.so (2013.1, Build901 2013/11/27)

>  <Rbt.Parameter_File>
/export/apps/rDock/src/rDock_2013.1_src/data/scripts/dock_solv.prm

>  <Rbt.Receptor>
prm/pocket_docking_7.prm

>  <SCORE>
-19.3639

>  <SCORE.INTER>
-10.2627

>  <SCORE.INTER.CONST>
1

>  <SCORE.INTER.POLAR>
0

>  <SCORE.INTER.ROT>
7

>  <SCORE.INTER.SOLV>
13.5771

>  <SCORE.INTER.VDW>
-19.6342

>  <SCORE.INTER.norm>
-0.380101

>  <SCORE.INTRA>
-9.10118

>  <SCORE.INTRA.DIHEDRAL>
-8.70458

>  <SCORE.INTRA.DIHEDRAL.0>
15.0182

>  <SCORE.INTRA.POLAR>
0

>  <SCORE.INTRA.POLAR.0>
0

>  <SCORE.INTRA.REPUL>
0

>  <SCORE.INTRA.REPUL.0>
0

>  <SCORE.INTRA.SOLV>
-0.563926

>  <SCORE.INTRA.SOLV.lig_0>
-47.9129

>  <SCORE.INTRA.VDW>
-4.46692

>  <SCORE.INTRA.VDW.0>
2.00851

>  <SCORE.INTRA.norm>
-0.337081

>  <SCORE.RESTR>
0

>  <SCORE.RESTR.CAVITY>
0

>  <SCORE.RESTR.norm>
0

>  <SCORE.SYSTEM>
0

>  <SCORE.SYSTEM.CONST>
0

>  <SCORE.SYSTEM.DIHEDRAL>
0

>  <SCORE.SYSTEM.SOLV>
0

>  <SCORE.SYSTEM.norm>
0

>  <SCORE.heavy>
27

>  <SCORE.norm>
-0.717182

>  <RMSD>
6.768

$$$$
ligand
 OpenBabel11021811483D
libRbt.so/2013.1/901 2013/11/27
 27 29  0  0  0  0  0  0  0  0999 V2000
  -15.6114   -7.8877   31.9101 N   0  0  0  0  0  0  0  0  0  0  0  0
  -14.4489   -7.6724   32.7675 C   0  0  2  0  0  0  0  0  0  0  0  0
  -14.0666   -8.9347   33.5358 C   0  0  0  0  0  0  0  0  0  0  0  0
  -13.0923   -9.6128   33.2022 O   0  0  0  0  0  0  0  0  0  0  0  0
  -14.6787   -6.4956   33.7112 C   0  0  0  0  0  0  0  0  0  0  0  0
  -14.9677   -5.1900   32.9867 C   0  0  0  0  0  0  0  0  0  0  0  0
  -13.5080   -4.4358   32.2273 S   0  0  2  0  0  0  0  0  0  0  0  0
  -12.6114   -3.8963   33.7044 C   0  0  0  0  0  0  0  0  0  0  0  0
  -14.1982   -2.8658   31.6380 C   0  0  0  0  0  0  0  0  0  0  0  0
  -14.7645   -3.0575   30.2384 C   0  0  1  0  0  0  0  0  0  0  0  0
  -13.7144   -3.4463   29.3853 O   0  0  0  0  0  0  0  0  0  0  0  0
  -15.8006   -4.1562   30.0924 C   0  0  1  0  0  0  0  0  0  0  0  0
  -17.1069   -3.6305   30.1697 O   0  0  0  0  0  0  0  0  0  0  0  0
  -15.5372   -4.6916   28.6996 C   0  0  1  0  0  0  0  0  0  0  0  0
  -16.5579   -4.2345   27.8469 O   0  0  0  0  0  0  0  0  0  0  0  0
  -14.2024   -4.1134   28.2496 C   0  0  2  0  0  0  0  0  0  0  0  0
  -14.7306   -9.3036   34.5047 O   0  0  0  0  0  0  0  0  0  0  0  0
  -12.8718   -7.8362   24.7646 N   0  0  0  0  0  0  0  0  0  0  0  0
  -13.8961   -6.9142   24.6769 C   0  0  0  0  0  0  0  0  0  0  0  0
  -14.1093   -6.0011   25.6923 N   0  0  0  0  0  0  0  0  0  0  0  0
  -13.3170   -6.0027   26.7905 C   0  0  0  0  0  0  0  0  0  0  0  0
  -12.2761   -6.9174   26.8924 C   0  0  0  0  0  0  0  0  0  0  0  0
  -12.0577   -7.8400   25.8765 C   0  0  0  0  0  0  0  0  0  0  0  0
  -11.0666   -8.7222   25.9786 N   0  0  0  0  0  0  0  0  0  0  0  0
  -11.6468   -6.6996   28.0672 N   0  0  0  0  0  0  0  0  0  0  0  0
  -12.2509   -5.6647   28.6969 C   0  0  0  0  0  0  0  0  0  0  0  0
  -13.2880   -5.2197   27.9203 N   0  0  0  0  0  0  0  0  0  0  0  0
  2  1  1  1  0  0  0
  2  3  1  0  0  0  0
  2  5  1  0  0  0  0
  3  4  1  0  0  0  0
  3 17  1  0  0  0  0
  5  6  1  0  0  0  0
  7  6  1  1  0  0  0
  7  8  1  0  0  0  0
  7  9  1  0  0  0  0
 10  9  1  1  0  0  0
 10 11  1  0  0  0  0
 10 12  1  0  0  0  0
 11 16  1  0  0  0  0
 12 13  1  6  0  0  0
 12 14  1  0  0  0  0
 14 15  1  6  0  0  0
 14 16  1  0  0  0  0
 16 27  1  1  0  0  0
 18 19  2  0  0  0  0
 18 23  1  0  0  0  0
 19 20  1  0  0  0  0
 20 21  2  0  0  0  0
 21 22  1  0  0  0  0
 21 27  1  0  0  0  0
 22 23  2  0  0  0  0
 22 25  1  0  0  0  0
 23 24  1  0  0  0  0
 25 26  2  0  0  0  0
 26 27  1  0  0  0  0
M  END
>  <CHROM.1>
104.30965157,-58.69114432,-74.83096126,-70.50067695,-88.16178289,-61.27935637
-171.19836329,-13.96138452,-5.88699489,29.85762439,-2.02930927,1.15819693
-1.17613042

>  <Name>
ligand

>  <RI>
0

>  <Rbt.Current_Directory>
/home/itssahil/PROJECTS/Mol_Feturizer/New_Systems/rnas/3GX6

>  <Rbt.Executable>
rbdock ($Id: //depot/dev/client3/rdock/2013.1/src/exe/rbdock.cxx#4 $)

>  <Rbt.Library>
libRbt.so (2013.1, Build901 2013/11/27)

>  <Rbt.Parameter_File>
/export/apps/rDock/src/rDock_2013.1_src/data/scripts/dock_solv.prm

>  <Rbt.Receptor>
prm/pocket_docking_5.prm

>  <SCORE>
-22.7745

>  <SCORE.INTER>
-13.1709

>  <SCORE.INTER.CONST>
1

>  <SCORE.INTER.POLAR>
0

>  <SCORE.INTER.ROT>
7

>  <SCORE.INTER.SOLV>
7.86014

>  <SCORE.INTER.VDW>
-19.6673

>  <SCORE.INTER.norm>
-0.487812

>  <SCORE.INTRA>
-9.60355

>  <SCORE.INTRA.DIHEDRAL>
-9.97226

>  <SCORE.INTRA.DIHEDRAL.0>
15.0182

>  <SCORE.INTRA.POLAR>
0

>  <SCORE.INTRA.POLAR.0>
0

>  <SCORE.INTRA.REPUL>
0

>  <SCORE.INTRA.REPUL.0>
0

>  <SCORE.INTRA.SOLV>
-0.0332538

>  <SCORE.INTRA.SOLV.lig_0>
-47.9129

>  <SCORE.INTRA.VDW>
-4.60079

>  <SCORE.INTRA.VDW.0>
2.00851

>  <SCORE.INTRA.norm>
-0.355687

>  <SCORE.RESTR>
0

>  <SCORE.RESTR.CAVITY>
0

>  <SCORE.RESTR.norm>
0

>  <SCORE.SYSTEM>
0

>  <SCORE.SYSTEM.CONST>
0

>  <SCORE.SYSTEM.DIHEDRAL>
0

>  <SCORE.SYSTEM.SOLV>
0

>  <SCORE.SYSTEM.norm>
0

>  <SCORE.heavy>
27

>  <SCORE.norm>
-0.843499

>  <RMSD>
6.791

$$$$
ligand
 OpenBabel11021811483D
libRbt.so/2013.1/901 2013/11/27
 27 29  0  0  0  0  0  0  0  0999 V2000
  -13.4480   -4.0936   31.0384 N   0  0  0  0  0  0  0  0  0  0  0  0
  -12.9690   -3.2641   32.1408 C   0  0  2  0  0  0  0  0  0  0  0  0
  -12.5161   -4.1054   33.3312 C   0  0  0  0  0  0  0  0  0  0  0  0
  -12.4140   -3.6130   34.4570 O   0  0  0  0  0  0  0  0  0  0  0  0
  -14.0247   -2.2422   32.5520 C   0  0  0  0  0  0  0  0  0  0  0  0
  -14.6171   -1.4814   31.3759 C   0  0  0  0  0  0  0  0  0  0  0  0
  -16.2725   -2.0395   30.9023 S   0  0  2  0  0  0  0  0  0  0  0  0
  -17.2886   -1.0250   32.0044 C   0  0  0  0  0  0  0  0  0  0  0  0
  -16.3449   -3.6491   31.7344 C   0  0  0  0  0  0  0  0  0  0  0  0
  -17.4636   -4.4821   31.1253 C   0  0  1  0  0  0  0  0  0  0  0  0
  -17.2534   -4.5570   29.7354 O   0  0  0  0  0  0  0  0  0  0  0  0
  -17.5293   -5.9283   31.5792 C   0  0  1  0  0  0  0  0  0  0  0  0
  -18.4582   -6.0853   32.6286 O   0  0  0  0  0  0  0  0  0  0  0  0
  -18.0162   -6.6534   30.3411 C   0  0  1  0  0  0  0  0  0  0  0  0
  -19.3652   -7.0024   30.5315 O   0  0  0  0  0  0  0  0  0  0  0  0
  -17.9041   -5.6721   29.1821 C   0  0  2  0  0  0  0  0  0  0  0  0
  -12.2381   -5.2960   33.1872 O   0  0  0  0  0  0  0  0  0  0  0  0
  -15.8445  -10.0666   27.1273 N   0  0  0  0  0  0  0  0  0  0  0  0
  -16.6924   -9.9489   28.2109 C   0  0  0  0  0  0  0  0  0  0  0  0
  -17.1404   -8.7078   28.6220 N   0  0  0  0  0  0  0  0  0  0  0  0
  -16.7483   -7.5886   27.9681 C   0  0  0  0  0  0  0  0  0  0  0  0
  -15.9024   -7.6881   26.8704 C   0  0  0  0  0  0  0  0  0  0  0  0
  -15.4461   -8.9326   26.4533 C   0  0  0  0  0  0  0  0  0  0  0  0
  -14.6282   -9.0269   25.4077 N   0  0  0  0  0  0  0  0  0  0  0  0
  -15.6778   -6.4401   26.4060 N   0  0  0  0  0  0  0  0  0  0  0  0
  -16.3713   -5.5627   27.1688 C   0  0  0  0  0  0  0  0  0  0  0  0
  -17.0412   -6.2565   28.1417 N   0  0  0  0  0  0  0  0  0  0  0  0
  2  1  1  6  0  0  0
  2  3  1  0  0  0  0
  2  5  1  0  0  0  0
  3  4  1  0  0  0  0
  3 17  1  0  0  0  0
  5  6  1  0  0  0  0
  7  6  1  1  0  0  0
  7  8  1  0  0  0  0
  7  9  1  0  0  0  0
 10  9  1  1  0  0  0
 10 11  1  0  0  0  0
 10 12  1  0  0  0  0
 11 16  1  0  0  0  0
 12 13  1  1  0  0  0
 12 14  1  0  0  0  0
 14 15  1  1  0  0  0
 14 16  1  0  0  0  0
 16 27  1  6  0  0  0
 18 19  2  0  0  0  0
 18 23  1  0  0  0  0
 19 20  1  0  0  0  0
 20 21  2  0  0  0  0
 21 22  1  0  0  0  0
 21 27  1  0  0  0  0
 22 23  2  0  0  0  0
 22 25  1  0  0  0  0
 23 24  1  0  0  0  0
 25 26  2  0  0  0  0
 26 27  1  0  0  0  0
M  END
>  <CHROM.1>
-160.86003127,-48.46409800,103.47028466,87.12620148,-162.36517600,54.81820046
134.07221350,-15.93095052,-5.37570013,30.14915746,-1.31368253,0.12320698
-2.42358113

>  <Name>
ligand

>  <RI>
0

>  <Rbt.Current_Directory>
/home/itssahil/PROJECTS/Mol_Feturizer/New_Systems/rnas/3GX6

>  <Rbt.Executable>
rbdock ($Id: //depot/dev/client3/rdock/2013.1/src/exe/rbdock.cxx#4 $)

>  <Rbt.Library>
libRbt.so (2013.1, Build901 2013/11/27)

>  <Rbt.Parameter_File>
/export/apps/rDock/src/rDock_2013.1_src/data/scripts/dock_solv.prm

>  <Rbt.Receptor>
prm/pocket_docking_5.prm

>  <SCORE>
-19.3941

>  <SCORE.INTER>
-17.8957

>  <SCORE.INTER.CONST>
1

>  <SCORE.INTER.POLAR>
0

>  <SCORE.INTER.ROT>
7

>  <SCORE.INTER.SOLV>
10.8467

>  <SCORE.INTER.VDW>
-23.8127

>  <SCORE.INTER.norm>
-0.662803

>  <SCORE.INTRA>
-1.4984

>  <SCORE.INTRA.DIHEDRAL>
-2.20572

>  <SCORE.INTRA.DIHEDRAL.0>
15.0182

>  <SCORE.INTRA.POLAR>
0

>  <SCORE.INTRA.POLAR.0>
0

>  <SCORE.INTRA.REPUL>
0

>  <SCORE.INTRA.REPUL.0>
0

>  <SCORE.INTRA.SOLV>
1.60236

>  <SCORE.INTRA.SOLV.lig_0>
-47.9129

>  <SCORE.INTRA.VDW>
-1.19672

>  <SCORE.INTRA.VDW.0>
2.00851

>  <SCORE.INTRA.norm>
-0.0554964

>  <SCORE.RESTR>
0

>  <SCORE.RESTR.CAVITY>
0

>  <SCORE.RESTR.norm>
0

>  <SCORE.SYSTEM>
0

>  <SCORE.SYSTEM.CONST>
0

>  <SCORE.SYSTEM.DIHEDRAL>
0

>  <SCORE.SYSTEM.SOLV>
0

>  <SCORE.SYSTEM.norm>
0

>  <SCORE.heavy>
27

>  <SCORE.norm>
-0.718299

>  <RMSD>
6.809

$$$$
ligand
 OpenBabel11021811483D
libRbt.so/2013.1/901 2013/11/27
 27 29  0  0  0  0  0  0  0  0999 V2000
  -16.0266   -8.1624   32.0107 N   0  0  0  0  0  0  0  0  0  0  0  0
  -15.0980   -8.0459   33.1318 C   0  0  2  0  0  0  0  0  0  0  0  0
  -15.8173   -7.7023   34.4335 C   0  0  0  0  0  0  0  0  0  0  0  0
  -16.7964   -6.9528   34.4414 O   0  0  0  0  0  0  0  0  0  0  0  0
  -13.9955   -7.0373   32.8232 C   0  0  0  0  0  0  0  0  0  0  0  0
  -14.5250   -5.6620   32.4476 C   0  0  0  0  0  0  0  0  0  0  0  0
  -13.2309   -4.4723   32.0160 S   0  0  2  0  0  0  0  0  0  0  0  0
  -12.6202   -4.0397   33.6641 C   0  0  0  0  0  0  0  0  0  0  0  0
  -14.2265   -3.0116   31.6117 C   0  0  0  0  0  0  0  0  0  0  0  0
  -14.8092   -3.1691   30.2145 C   0  0  1  0  0  0  0  0  0  0  0  0
  -13.7629   -3.5018   29.3334 O   0  0  0  0  0  0  0  0  0  0  0  0
  -15.8200   -4.2879   30.0453 C   0  0  1  0  0  0  0  0  0  0  0  0
  -17.1375   -3.7982   30.1597 O   0  0  0  0  0  0  0  0  0  0  0  0
  -15.5647   -4.7682   28.6311 C   0  0  1  0  0  0  0  0  0  0  0  0
  -16.6093   -4.3079   27.8096 O   0  0  0  0  0  0  0  0  0  0  0  0
  -14.2516   -4.1414   28.1823 C   0  0  2  0  0  0  0  0  0  0  0  0
  -15.4279   -8.1656   35.5056 O   0  0  0  0  0  0  0  0  0  0  0  0
  -12.9991   -7.8427   24.6458 N   0  0  0  0  0  0  0  0  0  0  0  0
  -14.0648   -6.9649   24.6192 C   0  0  0  0  0  0  0  0  0  0  0  0
  -14.2486   -6.0507   25.6393 N   0  0  0  0  0  0  0  0  0  0  0  0
  -13.3860   -6.0078   26.6824 C   0  0  0  0  0  0  0  0  0  0  0  0
  -12.3031   -6.8775   26.7220 C   0  0  0  0  0  0  0  0  0  0  0  0
  -12.1138   -7.8009   25.7011 C   0  0  0  0  0  0  0  0  0  0  0  0
  -11.0819   -8.6403   25.7440 N   0  0  0  0  0  0  0  0  0  0  0  0
  -11.6072   -6.6214   27.8506 N   0  0  0  0  0  0  0  0  0  0  0  0
  -12.2113   -5.6057   28.5110 C   0  0  0  0  0  0  0  0  0  0  0  0
  -13.3153   -5.2123   27.8016 N   0  0  0  0  0  0  0  0  0  0  0  0
  2  1  1  6  0  0  0
  2  3  1  0  0  0  0
  2  5  1  0  0  0  0
  3  4  1  0  0  0  0
  3 17  1  0  0  0  0
  5  6  1  0  0  0  0
  7  6  1  1  0  0  0
  7  8  1  0  0  0  0
  7  9  1  0  0  0  0
 10  9  1  1  0  0  0
 10 11  1  0  0  0  0
 10 12  1  0  0  0  0
 11 16  1  0  0  0  0
 12 13  1  6  0  0  0
 12 14  1  0  0  0  0
 14 15  1  6  0  0  0
 14 16  1  0  0  0  0
 16 27  1  1  0  0  0
 18 19  2  0  0  0  0
 18 23  1  0  0  0  0
 19 20  1  0  0  0  0
 20 21  2  0  0  0  0
 21 22  1  0  0  0  0
 21 27  1  0  0  0  0
 22 23  2  0  0  0  0
 22 25  1  0  0  0  0
 23 24  1  0  0  0  0
 25 26  2  0  0  0  0
 26 27  1  0  0  0  0
M  END
>  <CHROM.1>
-35.83688720,55.94937035,-177.74650299,-77.18394139,-78.42212334,-51.04525239
-175.19370701,-14.19870731,-5.78314395,29.86266402,-2.35232687,1.17570857
-0.87993347

>  <Name>
ligand

>  <RI>
0

>  <Rbt.Current_Directory>
/home/itssahil/PROJECTS/Mol_Feturizer/New_Systems/rnas/3GX6

>  <Rbt.Executable>
rbdock ($Id: //depot/dev/client3/rdock/2013.1/src/exe/rbdock.cxx#4 $)

>  <Rbt.Library>
libRbt.so (2013.1, Build901 2013/11/27)

>  <Rbt.Parameter_File>
/export/apps/rDock/src/rDock_2013.1_src/data/scripts/dock_solv.prm

>  <Rbt.Receptor>
prm/pocket_docking_4.prm

>  <SCORE>
-21.6456

>  <SCORE.INTER>
-11.3687

>  <SCORE.INTER.CONST>
1

>  <SCORE.INTER.POLAR>
0

>  <SCORE.INTER.ROT>
7

>  <SCORE.INTER.SOLV>
8.28202

>  <SCORE.INTER.VDW>
-18.6065

>  <SCORE.INTER.norm>
-0.421062

>  <SCORE.INTRA>
-10.2769

>  <SCORE.INTRA.DIHEDRAL>
-10.9279

>  <SCORE.INTRA.DIHEDRAL.0>
15.0182

>  <SCORE.INTRA.POLAR>
0

>  <SCORE.INTRA.POLAR.0>
0

>  <SCORE.INTRA.REPUL>
0

>  <SCORE.INTRA.REPUL.0>
0

>  <SCORE.INTRA.SOLV>
-0.620247

>  <SCORE.INTRA.SOLV.lig_0>
-47.9129

>  <SCORE.INTRA.VDW>
-4.50283

>  <SCORE.INTRA.VDW.0>
2.00851

>  <SCORE.INTRA.norm>
-0.380627

>  <SCORE.RESTR>
0

>  <SCORE.RESTR.CAVITY>
0

>  <SCORE.RESTR.norm>
0

>  <SCORE.SYSTEM>
0

>  <SCORE.SYSTEM.CONST>
0

>  <SCORE.SYSTEM.DIHEDRAL>
0

>  <SCORE.SYSTEM.SOLV>
0

>  <SCORE.SYSTEM.norm>
0

>  <SCORE.heavy>
27

>  <SCORE.norm>
-0.801689

>  <RMSD>
6.819

$$$$
ligand
 OpenBabel11021811483D
libRbt.so/2013.1/901 2013/11/27
 27 29  0  0  0  0  0  0  0  0999 V2000
  -16.7003   -8.0043   31.7514 N   0  0  0  0  0  0  0  0  0  0  0  0
  -15.8563   -8.0593   32.9420 C   0  0  2  0  0  0  0  0  0  0  0  0
  -16.6176   -7.6464   34.1990 C   0  0  0  0  0  0  0  0  0  0  0  0
  -16.5076   -8.2841   35.2485 O   0  0  0  0  0  0  0  0  0  0  0  0
  -14.5957   -7.2203   32.7551 C   0  0  0  0  0  0  0  0  0  0  0  0
  -14.8845   -5.7646   32.4230 C   0  0  0  0  0  0  0  0  0  0  0  0
  -13.4049   -4.7922   32.0470 S   0  0  2  0  0  0  0  0  0  0  0  0
  -12.7886   -4.4728   33.7187 C   0  0  0  0  0  0  0  0  0  0  0  0
  -14.1428   -3.1894   31.6286 C   0  0  0  0  0  0  0  0  0  0  0  0
  -14.6557   -3.2286   30.1963 C   0  0  1  0  0  0  0  0  0  0  0  0
  -13.5894   -3.5966   29.3541 O   0  0  0  0  0  0  0  0  0  0  0  0
  -15.7370   -4.2544   29.9123 C   0  0  1  0  0  0  0  0  0  0  0  0
  -17.0181   -3.6693   29.9844 O   0  0  0  0  0  0  0  0  0  0  0  0
  -15.4392   -4.6799   28.4888 C   0  0  1  0  0  0  0  0  0  0  0  0
  -16.3977   -4.0973   27.6405 O   0  0  0  0  0  0  0  0  0  0  0  0
  -14.0591   -4.1359   28.1451 C   0  0  2  0  0  0  0  0  0  0  0  0
  -17.3633   -6.6669   34.1862 O   0  0  0  0  0  0  0  0  0  0  0  0
  -13.0481   -7.9006   24.5984 N   0  0  0  0  0  0  0  0  0  0  0  0
  -14.0649   -6.9665   24.5828 C   0  0  0  0  0  0  0  0  0  0  0  0
  -14.1877   -6.0433   25.6040 N   0  0  0  0  0  0  0  0  0  0  0  0
  -13.3125   -6.0468   26.6374 C   0  0  0  0  0  0  0  0  0  0  0  0
  -12.2778   -6.9738   26.6658 C   0  0  0  0  0  0  0  0  0  0  0  0
  -12.1501   -7.9065   25.6437 C   0  0  0  0  0  0  0  0  0  0  0  0
  -11.1647   -8.8003   25.6759 N   0  0  0  0  0  0  0  0  0  0  0  0
  -11.5566   -6.7553   27.7864 N   0  0  0  0  0  0  0  0  0  0  0  0
  -12.0975   -5.7083   28.4525 C   0  0  0  0  0  0  0  0  0  0  0  0
  -13.1864   -5.2560   27.7550 N   0  0  0  0  0  0  0  0  0  0  0  0
  2  1  1  6  0  0  0
  2  3  1  0  0  0  0
  2  5  1  0  0  0  0
  3  4  1  0  0  0  0
  3 17  1  0  0  0  0
  5  6  1  0  0  0  0
  7  6  1  1  0  0  0
  7  8  1  0  0  0  0
  7  9  1  0  0  0  0
 10  9  1  1  0  0  0
 10 11  1  0  0  0  0
 10 12  1  0  0  0  0
 11 16  1  0  0  0  0
 12 13  1  6  0  0  0
 12 14  1  0  0  0  0
 14 15  1  6  0  0  0
 14 16  1  0  0  0  0
 16 27  1  1  0  0  0
 18 19  2  0  0  0  0
 18 23  1  0  0  0  0
 19 20  1  0  0  0  0
 20 21  2  0  0  0  0
 21 22  1  0  0  0  0
 21 27  1  0  0  0  0
 22 23  2  0  0  0  0
 22 25  1  0  0  0  0
 23 24  1  0  0  0  0
 25 26  2  0  0  0  0
 26 27  1  0  0  0  0
M  END
>  <CHROM.1>
136.08272511,57.15748863,-174.61348169,-79.05449009,-80.25016894,-55.63721181
179.74558802,-14.34403909,-5.84118932,29.77926062,-2.86269001,1.19837047
-0.34403113

>  <Name>
ligand

>  <RI>
0

>  <Rbt.Current_Directory>
/home/itssahil/PROJECTS/Mol_Feturizer/New_Systems/rnas/3GX6

>  <Rbt.Executable>
rbdock ($Id: //depot/dev/client3/rdock/2013.1/src/exe/rbdock.cxx#4 $)

>  <Rbt.Library>
libRbt.so (2013.1, Build901 2013/11/27)

>  <Rbt.Parameter_File>
/export/apps/rDock/src/rDock_2013.1_src/data/scripts/dock_solv.prm

>  <Rbt.Receptor>
prm/pocket_docking_5.prm

>  <SCORE>
-21.5038

>  <SCORE.INTER>
-11.3378

>  <SCORE.INTER.CONST>
1

>  <SCORE.INTER.POLAR>
0

>  <SCORE.INTER.ROT>
7

>  <SCORE.INTER.SOLV>
7.84152

>  <SCORE.INTER.VDW>
-18.439

>  <SCORE.INTER.norm>
-0.419917

>  <SCORE.INTRA>
-10.1661

>  <SCORE.INTRA.DIHEDRAL>
-10.8516

>  <SCORE.INTRA.DIHEDRAL.0>
15.0182

>  <SCORE.INTRA.POLAR>
0

>  <SCORE.INTRA.POLAR.0>
0

>  <SCORE.INTRA.REPUL>
0

>  <SCORE.INTRA.REPUL.0>
0

>  <SCORE.INTRA.SOLV>
-0.568899

>  <SCORE.INTRA.SOLV.lig_0>
-47.9129

>  <SCORE.INTRA.VDW>
-4.45582

>  <SCORE.INTRA.VDW.0>
2.00851

>  <SCORE.INTRA.norm>
-0.376521

>  <SCORE.RESTR>
0

>  <SCORE.RESTR.CAVITY>
0

>  <SCORE.RESTR.norm>
0

>  <SCORE.SYSTEM>
0

>  <SCORE.SYSTEM.CONST>
0

>  <SCORE.SYSTEM.DIHEDRAL>
0

>  <SCORE.SYSTEM.SOLV>
0

>  <SCORE.SYSTEM.norm>
0

>  <SCORE.heavy>
27

>  <SCORE.norm>
-0.796438

>  <RMSD>
6.836

$$$$
ligand
 OpenBabel11021811483D
libRbt.so/2013.1/901 2013/11/27
 27 29  0  0  0  0  0  0  0  0999 V2000
  -14.7691   -8.3050   32.3013 N   0  0  0  0  0  0  0  0  0  0  0  0
  -13.4827   -7.9639   32.9027 C   0  0  2  0  0  0  0  0  0  0  0  0
  -13.5996   -7.7394   34.4080 C   0  0  0  0  0  0  0  0  0  0  0  0
  -14.7011   -7.6613   34.9566 O   0  0  0  0  0  0  0  0  0  0  0  0
  -12.8596   -6.7570   32.2076 C   0  0  0  0  0  0  0  0  0  0  0  0
  -13.7806   -5.5476   32.1595 C   0  0  0  0  0  0  0  0  0  0  0  0
  -12.9589   -4.0224   31.6352 S   0  0  2  0  0  0  0  0  0  0  0  0
  -12.3523   -3.4124   33.2279 C   0  0  0  0  0  0  0  0  0  0  0  0
  -14.3866   -2.9386   31.3605 C   0  0  0  0  0  0  0  0  0  0  0  0
  -15.0628   -3.3173   30.0507 C   0  0  1  0  0  0  0  0  0  0  0  0
  -14.0629   -3.5537   29.0884 O   0  0  0  0  0  0  0  0  0  0  0  0
  -15.8771   -4.5972   30.0764 C   0  0  1  0  0  0  0  0  0  0  0  0
  -17.2425   -4.3215   30.2964 O   0  0  0  0  0  0  0  0  0  0  0  0
  -15.6777   -5.1573   28.6827 C   0  0  1  0  0  0  0  0  0  0  0  0
  -16.8589   -4.9518   27.9475 O   0  0  0  0  0  0  0  0  0  0  0  0
  -14.5406   -4.3679   28.0483 C   0  0  2  0  0  0  0  0  0  0  0  0
  -12.5909   -7.6265   35.1047 O   0  0  0  0  0  0  0  0  0  0  0  0
  -12.7768   -7.7371   24.3995 N   0  0  0  0  0  0  0  0  0  0  0  0
  -13.9400   -6.9931   24.3808 C   0  0  0  0  0  0  0  0  0  0  0  0
  -14.2541   -6.1521   25.4317 N   0  0  0  0  0  0  0  0  0  0  0  0
  -13.4249   -6.0509   26.4975 C   0  0  0  0  0  0  0  0  0  0  0  0
  -12.2458   -6.7853   26.5300 C   0  0  0  0  0  0  0  0  0  0  0  0
  -11.9252   -7.6348   25.4781 C   0  0  0  0  0  0  0  0  0  0  0  0
  -10.8005   -8.3453   25.5138 N   0  0  0  0  0  0  0  0  0  0  0  0
  -11.6095   -6.4963   27.6855 N   0  0  0  0  0  0  0  0  0  0  0  0
  -12.3456   -5.5897   28.3704 C   0  0  0  0  0  0  0  0  0  0  0  0
  -13.4741   -5.3015   27.6491 N   0  0  0  0  0  0  0  0  0  0  0  0
  2  1  1  6  0  0  0
  2  3  1  0  0  0  0
  2  5  1  0  0  0  0
  3  4  1  0  0  0  0
  3 17  1  0  0  0  0
  5  6  1  0  0  0  0
  7  6  1  1  0  0  0
  7  8  1  0  0  0  0
  7  9  1  0  0  0  0
 10  9  1  1  0  0  0
 10 11  1  0  0  0  0
 10 12  1  0  0  0  0
 11 16  1  0  0  0  0
 12 13  1  6  0  0  0
 12 14  1  0  0  0  0
 14 15  1  6  0  0  0
 14 16  1  0  0  0  0
 16 27  1  1  0  0  0
 18 19  2  0  0  0  0
 18 23  1  0  0  0  0
 19 20  1  0  0  0  0
 20 21  2  0  0  0  0
 21 22  1  0  0  0  0
 21 27  1  0  0  0  0
 22 23  2  0  0  0  0
 22 25  1  0  0  0  0
 23 24  1  0  0  0  0
 25 26  2  0  0  0  0
 26 27  1  0  0  0  0
M  END
>  <CHROM.1>
-10.38136261,54.17533239,168.76215901,-87.70233567,-75.93308233,-42.50263149
-164.64402082,-13.76727881,-5.78318590,29.70775379,-1.71282050,0.92730622
-1.52234198

>  <Name>
ligand

>  <RI>
0

>  <Rbt.Current_Directory>
/home/itssahil/PROJECTS/Mol_Feturizer/New_Systems/rnas/3GX6

>  <Rbt.Executable>
rbdock ($Id: //depot/dev/client3/rdock/2013.1/src/exe/rbdock.cxx#4 $)

>  <Rbt.Library>
libRbt.so (2013.1, Build901 2013/11/27)

>  <Rbt.Parameter_File>
/export/apps/rDock/src/rDock_2013.1_src/data/scripts/dock_solv.prm

>  <Rbt.Receptor>
prm/pocket_docking_5.prm

>  <SCORE>
-22.452

>  <SCORE.INTER>
-12.9079

>  <SCORE.INTER.CONST>
1

>  <SCORE.INTER.POLAR>
0

>  <SCORE.INTER.ROT>
7

>  <SCORE.INTER.SOLV>
9.0672

>  <SCORE.INTER.VDW>
-19.8944

>  <SCORE.INTER.norm>
-0.478072

>  <SCORE.INTRA>
-9.54406

>  <SCORE.INTRA.DIHEDRAL>
-8.97934

>  <SCORE.INTRA.DIHEDRAL.0>
15.0182

>  <SCORE.INTRA.POLAR>
0

>  <SCORE.INTRA.POLAR.0>
0

>  <SCORE.INTRA.REPUL>
0

>  <SCORE.INTRA.REPUL.0>
0

>  <SCORE.INTRA.SOLV>
-0.716963

>  <SCORE.INTRA.SOLV.lig_0>
-47.9129

>  <SCORE.INTRA.VDW>
-4.6959

>  <SCORE.INTRA.VDW.0>
2.00851

>  <SCORE.INTRA.norm>
-0.353484

>  <SCORE.RESTR>
0

>  <SCORE.RESTR.CAVITY>
0

>  <SCORE.RESTR.norm>
0

>  <SCORE.SYSTEM>
0

>  <SCORE.SYSTEM.CONST>
0

>  <SCORE.SYSTEM.DIHEDRAL>
0

>  <SCORE.SYSTEM.SOLV>
0

>  <SCORE.SYSTEM.norm>
0

>  <SCORE.heavy>
27

>  <SCORE.norm>
-0.831556

>  <RMSD>
6.839

$$$$
ligand
 OpenBabel11021811483D
libRbt.so/2013.1/901 2013/11/27
 27 29  0  0  0  0  0  0  0  0999 V2000
  -15.9554   -7.7266   34.1766 N   0  0  0  0  0  0  0  0  0  0  0  0
  -14.5528   -7.4227   33.9060 C   0  0  2  0  0  0  0  0  0  0  0  0
  -13.6674   -7.6927   35.1197 C   0  0  0  0  0  0  0  0  0  0  0  0
  -13.5588   -8.8278   35.5889 O   0  0  0  0  0  0  0  0  0  0  0  0
  -14.3923   -5.9891   33.4090 C   0  0  0  0  0  0  0  0  0  0  0  0
  -13.1139   -5.7659   32.6160 C   0  0  0  0  0  0  0  0  0  0  0  0
  -12.8673   -4.0509   32.0925 S   0  0  2  0  0  0  0  0  0  0  0  0
  -12.6741   -3.2417   33.7001 C   0  0  0  0  0  0  0  0  0  0  0  0
  -14.5626   -3.5760   31.6577 C   0  0  0  0  0  0  0  0  0  0  0  0
  -14.7030   -3.5380   30.1427 C   0  0  1  0  0  0  0  0  0  0  0  0
  -13.7099   -4.3654   29.5852 O   0  0  0  0  0  0  0  0  0  0  0  0
  -16.0068   -4.0813   29.5888 C   0  0  1  0  0  0  0  0  0  0  0  0
  -16.9260   -3.0389   29.3497 O   0  0  0  0  0  0  0  0  0  0  0  0
  -15.5844   -4.7128   28.2778 C   0  0  1  0  0  0  0  0  0  0  0  0
  -16.0063   -3.8796   27.2263 O   0  0  0  0  0  0  0  0  0  0  0  0
  -14.0634   -4.7829   28.2914 C   0  0  2  0  0  0  0  0  0  0  0  0
  -13.0462   -6.7764   35.6583 O   0  0  0  0  0  0  0  0  0  0  0  0
  -14.1896   -9.6880   30.2148 N   0  0  0  0  0  0  0  0  0  0  0  0
  -14.7697   -8.5510   30.7419 C   0  0  0  0  0  0  0  0  0  0  0  0
  -14.6351   -7.3323   30.1040 N   0  0  0  0  0  0  0  0  0  0  0  0
  -13.9266   -7.2375   28.9538 C   0  0  0  0  0  0  0  0  0  0  0  0
  -13.3430   -8.3722   28.4041 C   0  0  0  0  0  0  0  0  0  0  0  0
  -13.4722   -9.6002   29.0415 C   0  0  0  0  0  0  0  0  0  0  0  0
  -12.9051  -10.6853   28.5198 N   0  0  0  0  0  0  0  0  0  0  0  0
  -12.7110   -8.0044   27.2688 N   0  0  0  0  0  0  0  0  0  0  0  0
  -12.8955   -6.6765   27.0810 C   0  0  0  0  0  0  0  0  0  0  0  0
  -13.6470   -6.1843   28.1153 N   0  0  0  0  0  0  0  0  0  0  0  0
  2  1  1  1  0  0  0
  2  3  1  0  0  0  0
  2  5  1  0  0  0  0
  3  4  1  0  0  0  0
  3 17  1  0  0  0  0
  5  6  1  0  0  0  0
  7  6  1  1  0  0  0
  7  8  1  0  0  0  0
  7  9  1  0  0  0  0
 10  9  1  1  0  0  0
 10 11  1  0  0  0  0
 10 12  1  0  0  0  0
 11 16  1  0  0  0  0
 12 13  1  6  0  0  0
 12 14  1  0  0  0  0
 14 15  1  6  0  0  0
 14 16  1  0  0  0  0
 16 27  1  1  0  0  0
 18 19  2  0  0  0  0
 18 23  1  0  0  0  0
 19 20  1  0  0  0  0
 20 21  2  0  0  0  0
 21 22  1  0  0  0  0
 21 27  1  0  0  0  0
 22 23  2  0  0  0  0
 22 25  1  0  0  0  0
 23 24  1  0  0  0  0
 25 26  2  0  0  0  0
 26 27  1  0  0  0  0
M  END
>  <CHROM.1>
62.22931505,-157.61213774,-177.01517027,64.93749670,-104.75987065,23.28228078
51.17395133,-14.09753606,-6.19002713,30.82326574,-1.01568932,1.35858726,-1.94549931

>  <Name>
ligand

>  <RI>
0

>  <Rbt.Current_Directory>
/home/itssahil/PROJECTS/Mol_Feturizer/New_Systems/rnas/3GX6

>  <Rbt.Executable>
rbdock ($Id: //depot/dev/client3/rdock/2013.1/src/exe/rbdock.cxx#4 $)

>  <Rbt.Library>
libRbt.so (2013.1, Build901 2013/11/27)

>  <Rbt.Parameter_File>
/export/apps/rDock/src/rDock_2013.1_src/data/scripts/dock_solv.prm

>  <Rbt.Receptor>
prm/pocket_docking_2.prm

>  <SCORE>
-8.21164

>  <SCORE.INTER>
-3.8786

>  <SCORE.INTER.CONST>
1

>  <SCORE.INTER.POLAR>
0

>  <SCORE.INTER.ROT>
7

>  <SCORE.INTER.SOLV>
17.2786

>  <SCORE.INTER.VDW>
-16.6119

>  <SCORE.INTER.norm>
-0.143652

>  <SCORE.INTRA>
-5.6479

>  <SCORE.INTRA.DIHEDRAL>
-3.22245

>  <SCORE.INTRA.DIHEDRAL.0>
15.0182

>  <SCORE.INTRA.POLAR>
0

>  <SCORE.INTRA.POLAR.0>
0

>  <SCORE.INTRA.REPUL>
0

>  <SCORE.INTRA.REPUL.0>
0

>  <SCORE.INTRA.SOLV>
-1.43906

>  <SCORE.INTRA.SOLV.lig_0>
-47.9129

>  <SCORE.INTRA.VDW>
-3.31714

>  <SCORE.INTRA.VDW.0>
2.00851

>  <SCORE.INTRA.norm>
-0.209182

>  <SCORE.RESTR>
1.31487

>  <SCORE.RESTR.CAVITY>
1.31487

>  <SCORE.RESTR.norm>
0.0486989

>  <SCORE.SYSTEM>
0

>  <SCORE.SYSTEM.CONST>
0

>  <SCORE.SYSTEM.DIHEDRAL>
0

>  <SCORE.SYSTEM.SOLV>
0

>  <SCORE.SYSTEM.norm>
0

>  <SCORE.heavy>
27

>  <SCORE.norm>
-0.304135

>  <RMSD>
6.841

$$$$
ligand
 OpenBabel11021811483D
libRbt.so/2013.1/901 2013/11/27
 27 29  0  0  0  0  0  0  0  0999 V2000
  -12.0610   -7.8396   34.8460 N   0  0  0  0  0  0  0  0  0  0  0  0
  -13.0624   -7.6814   33.7948 C   0  0  2  0  0  0  0  0  0  0  0  0
  -13.4938   -9.0250   33.2128 C   0  0  0  0  0  0  0  0  0  0  0  0
  -13.6046   -9.1857   31.9953 O   0  0  0  0  0  0  0  0  0  0  0  0
  -12.5631   -6.7382   32.7044 C   0  0  0  0  0  0  0  0  0  0  0  0
  -12.7618   -5.2686   33.0418 C   0  0  0  0  0  0  0  0  0  0  0  0
  -14.1921   -4.5172   32.2256 S   0  0  2  0  0  0  0  0  0  0  0  0
  -13.8923   -2.7682   32.5828 C   0  0  0  0  0  0  0  0  0  0  0  0
  -15.5078   -4.9015   33.4129 C   0  0  0  0  0  0  0  0  0  0  0  0
  -16.1552   -6.2266   33.0371 C   0  0  1  0  0  0  0  0  0  0  0  0
  -15.7041   -7.2107   33.9369 O   0  0  0  0  0  0  0  0  0  0  0  0
  -17.6677   -6.2746   33.1467 C   0  0  1  0  0  0  0  0  0  0  0  0
  -18.2717   -6.0256   31.8970 O   0  0  0  0  0  0  0  0  0  0  0  0
  -17.9340   -7.7027   33.5776 C   0  0  1  0  0  0  0  0  0  0  0  0
  -18.4409   -8.4130   32.4747 O   0  0  0  0  0  0  0  0  0  0  0  0
  -16.5942   -8.2960   33.9916 C   0  0  2  0  0  0  0  0  0  0  0  0
  -13.7455   -9.9763   33.9526 O   0  0  0  0  0  0  0  0  0  0  0  0
  -14.1027   -8.9597   38.5881 N   0  0  0  0  0  0  0  0  0  0  0  0
  -13.6003   -8.4316   37.4152 C   0  0  0  0  0  0  0  0  0  0  0  0
  -14.3976   -8.3312   36.2907 N   0  0  0  0  0  0  0  0  0  0  0  0
  -15.6833   -8.7551   36.3244 C   0  0  0  0  0  0  0  0  0  0  0  0
  -16.2087   -9.2814   37.4981 C   0  0  0  0  0  0  0  0  0  0  0  0
  -15.4119   -9.3877   38.6316 C   0  0  0  0  0  0  0  0  0  0  0  0
  -15.9125   -9.9006   39.7529 N   0  0  0  0  0  0  0  0  0  0  0  0
  -17.4960   -9.6146   37.2629 N   0  0  0  0  0  0  0  0  0  0  0  0
  -17.7986   -9.2971   35.9821 C   0  0  0  0  0  0  0  0  0  0  0  0
  -16.6874   -8.7627   35.3852 N   0  0  0  0  0  0  0  0  0  0  0  0
  2  1  1  1  0  0  0
  2  3  1  0  0  0  0
  2  5  1  0  0  0  0
  3  4  1  0  0  0  0
  3 17  1  0  0  0  0
  5  6  1  0  0  0  0
  7  6  1  1  0  0  0
  7  8  1  0  0  0  0
  7  9  1  0  0  0  0
 10  9  1  1  0  0  0
 10 11  1  0  0  0  0
 10 12  1  0  0  0  0
 11 16  1  0  0  0  0
 12 13  1  6  0  0  0
 12 14  1  0  0  0  0
 14 15  1  6  0  0  0
 14 16  1  0  0  0  0
 16 27  1  1  0  0  0
 18 19  2  0  0  0  0
 18 23  1  0  0  0  0
 19 20  1  0  0  0  0
 20 21  2  0  0  0  0
 21 22  1  0  0  0  0
 21 27  1  0  0  0  0
 22 23  2  0  0  0  0
 22 25  1  0  0  0  0
 23 24  1  0  0  0  0
 25 26  2  0  0  0  0
 26 27  1  0  0  0  0
M  END
>  <CHROM.1>
-135.38541919,-82.84515696,-100.99168587,-168.86212785,-91.42616767,104.87592969
-33.42450616,-15.24167891,-7.54768790,34.49429669,-1.41233391,0.14880051
2.21516372

>  <Name>
ligand

>  <RI>
0

>  <Rbt.Current_Directory>
/home/itssahil/PROJECTS/Mol_Feturizer/New_Systems/rnas/3GX6

>  <Rbt.Executable>
rbdock ($Id: //depot/dev/client3/rdock/2013.1/src/exe/rbdock.cxx#4 $)

>  <Rbt.Library>
libRbt.so (2013.1, Build901 2013/11/27)

>  <Rbt.Parameter_File>
/export/apps/rDock/src/rDock_2013.1_src/data/scripts/dock_solv.prm

>  <Rbt.Receptor>
prm/pocket_docking_8.prm

>  <SCORE>
-22.3801

>  <SCORE.INTER>
-17.3021

>  <SCORE.INTER.CONST>
1

>  <SCORE.INTER.POLAR>
0

>  <SCORE.INTER.ROT>
7

>  <SCORE.INTER.SOLV>
15.1123

>  <SCORE.INTER.VDW>
-24.8388

>  <SCORE.INTER.norm>
-0.640819

>  <SCORE.INTRA>
-5.07796

>  <SCORE.INTRA.DIHEDRAL>
1.14593

>  <SCORE.INTRA.DIHEDRAL.0>
15.0182

>  <SCORE.INTRA.POLAR>
0

>  <SCORE.INTRA.POLAR.0>
0

>  <SCORE.INTRA.REPUL>
0

>  <SCORE.INTRA.REPUL.0>
0

>  <SCORE.INTRA.SOLV>
0.784205

>  <SCORE.INTRA.SOLV.lig_0>
-47.9129

>  <SCORE.INTRA.VDW>
-6.04303

>  <SCORE.INTRA.VDW.0>
2.00851

>  <SCORE.INTRA.norm>
-0.188073

>  <SCORE.RESTR>
0

>  <SCORE.RESTR.CAVITY>
0

>  <SCORE.RESTR.norm>
0

>  <SCORE.SYSTEM>
0

>  <SCORE.SYSTEM.CONST>
0

>  <SCORE.SYSTEM.DIHEDRAL>
0

>  <SCORE.SYSTEM.SOLV>
0

>  <SCORE.SYSTEM.norm>
0

>  <SCORE.heavy>
27

>  <SCORE.norm>
-0.828892

>  <RMSD>
6.844

$$$$
ligand
 OpenBabel11021811483D
libRbt.so/2013.1/901 2013/11/27
 27 29  0  0  0  0  0  0  0  0999 V2000
  -15.6816   -8.6652   34.9932 N   0  0  0  0  0  0  0  0  0  0  0  0
  -14.4653   -8.8792   35.7729 C   0  0  2  0  0  0  0  0  0  0  0  0
  -14.7615   -9.0144   37.2642 C   0  0  0  0  0  0  0  0  0  0  0  0
  -13.8553   -8.9772   38.0995 O   0  0  0  0  0  0  0  0  0  0  0  0
  -13.4465   -7.7751   35.5066 C   0  0  0  0  0  0  0  0  0  0  0  0
  -12.8400   -7.8382   34.1133 C   0  0  0  0  0  0  0  0  0  0  0  0
  -13.5863   -6.6823   32.9372 S   0  0  2  0  0  0  0  0  0  0  0  0
  -12.8342   -7.2539   31.3932 C   0  0  0  0  0  0  0  0  0  0  0  0
  -12.6216   -5.1829   33.2682 C   0  0  0  0  0  0  0  0  0  0  0  0
  -13.0757   -4.0736   32.3303 C   0  0  1  0  0  0  0  0  0  0  0  0
  -12.5885   -4.3572   31.0404 O   0  0  0  0  0  0  0  0  0  0  0  0
  -14.5760   -3.9377   32.1496 C   0  0  1  0  0  0  0  0  0  0  0  0
  -15.0993   -2.9482   33.0073 O   0  0  0  0  0  0  0  0  0  0  0  0
  -14.7078   -3.4968   30.7059 C   0  0  1  0  0  0  0  0  0  0  0  0
  -15.0347   -2.1291   30.6864 O   0  0  0  0  0  0  0  0  0  0  0  0
  -13.3466   -3.7031   30.0554 C   0  0  2  0  0  0  0  0  0  0  0  0
  -15.9163   -9.1692   37.6619 O   0  0  0  0  0  0  0  0  0  0  0  0
  -11.2010   -7.5409   27.1496 N   0  0  0  0  0  0  0  0  0  0  0  0
  -10.6712   -6.9167   28.2617 C   0  0  0  0  0  0  0  0  0  0  0  0
  -11.3734   -5.9177   28.9090 N   0  0  0  0  0  0  0  0  0  0  0  0
  -12.5910   -5.5347   28.4564 C   0  0  0  0  0  0  0  0  0  0  0  0
  -13.1439   -6.1573   27.3441 C   0  0  0  0  0  0  0  0  0  0  0  0
  -12.4421   -7.1606   26.6869 C   0  0  0  0  0  0  0  0  0  0  0  0
  -12.9677   -7.7501   25.6158 N   0  0  0  0  0  0  0  0  0  0  0  0
  -14.3513   -5.5982   27.1139 N   0  0  0  0  0  0  0  0  0  0  0  0
  -14.5796   -4.6559   28.0587 C   0  0  0  0  0  0  0  0  0  0  0  0
  -13.4996   -4.6029   28.8998 N   0  0  0  0  0  0  0  0  0  0  0  0
  2  1  1  6  0  0  0
  2  3  1  0  0  0  0
  2  5  1  0  0  0  0
  3  4  1  0  0  0  0
  3 17  1  0  0  0  0
  5  6  1  0  0  0  0
  7  6  1  1  0  0  0
  7  8  1  0  0  0  0
  7  9  1  0  0  0  0
 10  9  1  1  0  0  0
 10 11  1  0  0  0  0
 10 12  1  0  0  0  0
 11 16  1  0  0  0  0
 12 13  1  1  0  0  0
 12 14  1  0  0  0  0
 14 15  1  1  0  0  0
 14 16  1  0  0  0  0
 16 27  1  6  0  0  0
 18 19  2  0  0  0  0
 18 23  1  0  0  0  0
 19 20  1  0  0  0  0
 20 21  2  0  0  0  0
 21 22  1  0  0  0  0
 21 27  1  0  0  0  0
 22 23  2  0  0  0  0
 22 25  1  0  0  0  0
 23 24  1  0  0  0  0
 25 26  2  0  0  0  0
 26 27  1  0  0  0  0
M  END
>  <CHROM.1>
-167.83801279,-70.07472554,99.59953842,-170.44194479,178.31267189,-73.52774774
-32.62809674,-13.56246117,-6.16060516,31.58185823,-2.06507274,1.18559540
-0.81093902

>  <Name>
ligand

>  <RI>
0

>  <Rbt.Current_Directory>
/home/itssahil/PROJECTS/Mol_Feturizer/New_Systems/rnas/3GX6

>  <Rbt.Executable>
rbdock ($Id: //depot/dev/client3/rdock/2013.1/src/exe/rbdock.cxx#4 $)

>  <Rbt.Library>
libRbt.so (2013.1, Build901 2013/11/27)

>  <Rbt.Parameter_File>
/export/apps/rDock/src/rDock_2013.1_src/data/scripts/dock_solv.prm

>  <Rbt.Receptor>
prm/pocket_docking_6.prm

>  <SCORE>
-24.7457

>  <SCORE.INTER>
-17.6458

>  <SCORE.INTER.CONST>
1

>  <SCORE.INTER.POLAR>
0

>  <SCORE.INTER.ROT>
7

>  <SCORE.INTER.SOLV>
10.6025

>  <SCORE.INTER.VDW>
-23.5647

>  <SCORE.INTER.norm>
-0.653548

>  <SCORE.INTRA>
-7.10787

>  <SCORE.INTRA.DIHEDRAL>
-5.72692

>  <SCORE.INTRA.DIHEDRAL.0>
15.0182

>  <SCORE.INTRA.POLAR>
0

>  <SCORE.INTRA.POLAR.0>
0

>  <SCORE.INTRA.REPUL>
0

>  <SCORE.INTRA.REPUL.0>
0

>  <SCORE.INTRA.SOLV>
-0.119166

>  <SCORE.INTRA.SOLV.lig_0>
-47.9129

>  <SCORE.INTRA.VDW>
-4.18482

>  <SCORE.INTRA.VDW.0>
2.00851

>  <SCORE.INTRA.norm>
-0.263254

>  <SCORE.RESTR>
0.00799935

>  <SCORE.RESTR.CAVITY>
0.00799935

>  <SCORE.RESTR.norm>
0.000296272

>  <SCORE.SYSTEM>
0

>  <SCORE.SYSTEM.CONST>
0

>  <SCORE.SYSTEM.DIHEDRAL>
0

>  <SCORE.SYSTEM.SOLV>
0

>  <SCORE.SYSTEM.norm>
0

>  <SCORE.heavy>
27

>  <SCORE.norm>
-0.916506

>  <RMSD>
6.867

$$$$
ligand
 OpenBabel11021811483D
libRbt.so/2013.1/901 2013/11/27
 27 29  0  0  0  0  0  0  0  0999 V2000
  -12.6206   -3.0890   33.7304 N   0  0  0  0  0  0  0  0  0  0  0  0
  -12.5527   -3.8115   32.4630 C   0  0  2  0  0  0  0  0  0  0  0  0
  -13.1146   -2.9877   31.3074 C   0  0  0  0  0  0  0  0  0  0  0  0
  -13.1800   -3.4520   30.1670 O   0  0  0  0  0  0  0  0  0  0  0  0
  -13.2480   -5.1654   32.5701 C   0  0  0  0  0  0  0  0  0  0  0  0
  -12.6279   -6.0801   33.6150 C   0  0  0  0  0  0  0  0  0  0  0  0
  -13.5178   -7.6397   33.8429 S   0  0  2  0  0  0  0  0  0  0  0  0
  -13.4193   -8.3214   32.1689 C   0  0  0  0  0  0  0  0  0  0  0  0
  -15.2335   -7.0544   33.8873 C   0  0  0  0  0  0  0  0  0  0  0  0
  -16.1646   -8.2377   34.1093 C   0  0  1  0  0  0  0  0  0  0  0  0
  -15.8014   -8.8668   35.3151 O   0  0  0  0  0  0  0  0  0  0  0  0
  -17.6324   -7.8962   34.2848 C   0  0  1  0  0  0  0  0  0  0  0  0
  -18.3291   -8.0253   33.0655 O   0  0  0  0  0  0  0  0  0  0  0  0
  -18.1114   -8.9426   35.2705 C   0  0  1  0  0  0  0  0  0  0  0  0
  -18.8789   -9.8926   34.5731 O   0  0  0  0  0  0  0  0  0  0  0  0
  -16.8689   -9.6132   35.8408 C   0  0  2  0  0  0  0  0  0  0  0  0
  -13.5102   -1.8367   31.4928 O   0  0  0  0  0  0  0  0  0  0  0  0
  -14.1131   -8.3338   40.1471 N   0  0  0  0  0  0  0  0  0  0  0  0
  -13.6880   -8.3363   38.8332 C   0  0  0  0  0  0  0  0  0  0  0  0
  -14.5483   -8.7054   37.8163 N   0  0  0  0  0  0  0  0  0  0  0  0
  -15.8205   -9.0743   38.0976 C   0  0  0  0  0  0  0  0  0  0  0  0
  -16.2685   -9.0696   39.4128 C   0  0  0  0  0  0  0  0  0  0  0  0
  -15.4081   -8.7023   40.4403 C   0  0  0  0  0  0  0  0  0  0  0  0
  -15.8346   -8.7070   41.7009 N   0  0  0  0  0  0  0  0  0  0  0  0
  -17.5593   -9.4665   39.4122 N   0  0  0  0  0  0  0  0  0  0  0  0
  -17.9391   -9.7033   38.1346 C   0  0  0  0  0  0  0  0  0  0  0  0
  -16.8746   -9.4650   37.3059 N   0  0  0  0  0  0  0  0  0  0  0  0
  2  1  1  1  0  0  0
  2  3  1  0  0  0  0
  2  5  1  0  0  0  0
  3  4  1  0  0  0  0
  3 17  1  0  0  0  0
  5  6  1  0  0  0  0
  7  6  1  6  0  0  0
  7  8  1  0  0  0  0
  7  9  1  0  0  0  0
 10  9  1  1  0  0  0
 10 11  1  0  0  0  0
 10 12  1  0  0  0  0
 11 16  1  0  0  0  0
 12 13  1  6  0  0  0
 12 14  1  0  0  0  0
 14 15  1  6  0  0  0
 14 16  1  0  0  0  0
 16 27  1  1  0  0  0
 18 19  2  0  0  0  0
 18 23  1  0  0  0  0
 19 20  1  0  0  0  0
 20 21  2  0  0  0  0
 21 22  1  0  0  0  0
 21 27  1  0  0  0  0
 22 23  2  0  0  0  0
 22 25  1  0  0  0  0
 23 24  1  0  0  0  0
 25 26  2  0  0  0  0
 26 27  1  0  0  0  0
M  END
>  <CHROM.1>
-177.61873576,-60.59735479,175.58554143,59.24512420,-178.70297094,58.22118443
-20.44813305,-15.20583288,-7.39084404,35.31296200,-1.10196941,0.67859217
1.89802614

>  <Name>
ligand

>  <RI>
0

>  <Rbt.Current_Directory>
/home/itssahil/PROJECTS/Mol_Feturizer/New_Systems/rnas/3GX6

>  <Rbt.Executable>
rbdock ($Id: //depot/dev/client3/rdock/2013.1/src/exe/rbdock.cxx#4 $)

>  <Rbt.Library>
libRbt.so (2013.1, Build901 2013/11/27)

>  <Rbt.Parameter_File>
/export/apps/rDock/src/rDock_2013.1_src/data/scripts/dock_solv.prm

>  <Rbt.Receptor>
prm/pocket_docking_8.prm

>  <SCORE>
-26.3205

>  <SCORE.INTER>
-17.2999

>  <SCORE.INTER.CONST>
1

>  <SCORE.INTER.POLAR>
0

>  <SCORE.INTER.ROT>
7

>  <SCORE.INTER.SOLV>
17.1089

>  <SCORE.INTER.VDW>
-25.5029

>  <SCORE.INTER.norm>
-0.640736

>  <SCORE.INTRA>
-9.02067

>  <SCORE.INTRA.DIHEDRAL>
-11.3232

>  <SCORE.INTRA.DIHEDRAL.0>
15.0182

>  <SCORE.INTRA.POLAR>
0

>  <SCORE.INTRA.POLAR.0>
0

>  <SCORE.INTRA.REPUL>
0

>  <SCORE.INTRA.REPUL.0>
0

>  <SCORE.INTRA.SOLV>
-1.09307

>  <SCORE.INTRA.SOLV.lig_0>
-47.9129

>  <SCORE.INTRA.VDW>
-2.81254

>  <SCORE.INTRA.VDW.0>
2.00851

>  <SCORE.INTRA.norm>
-0.334099

>  <SCORE.RESTR>
0

>  <SCORE.RESTR.CAVITY>
0

>  <SCORE.RESTR.norm>
0

>  <SCORE.SYSTEM>
0

>  <SCORE.SYSTEM.CONST>
0

>  <SCORE.SYSTEM.DIHEDRAL>
0

>  <SCORE.SYSTEM.SOLV>
0

>  <SCORE.SYSTEM.norm>
0

>  <SCORE.heavy>
27

>  <SCORE.norm>
-0.974835

>  <RMSD>
6.889

$$$$
ligand
 OpenBabel11021811483D
libRbt.so/2013.1/901 2013/11/27
 27 29  0  0  0  0  0  0  0  0999 V2000
  -15.9250   -7.5727   34.1965 N   0  0  0  0  0  0  0  0  0  0  0  0
  -14.8197   -7.9973   33.3416 C   0  0  2  0  0  0  0  0  0  0  0  0
  -14.1373   -9.2539   33.8755 C   0  0  0  0  0  0  0  0  0  0  0  0
  -13.1918   -9.7693   33.2749 O   0  0  0  0  0  0  0  0  0  0  0  0
  -13.8186   -6.8633   33.1423 C   0  0  0  0  0  0  0  0  0  0  0  0
  -14.4313   -5.6228   32.5106 C   0  0  0  0  0  0  0  0  0  0  0  0
  -13.2120   -4.4044   31.9585 S   0  0  2  0  0  0  0  0  0  0  0  0
  -12.5644   -3.8426   33.5527 C   0  0  0  0  0  0  0  0  0  0  0  0
  -14.2902   -3.0187   31.5051 C   0  0  0  0  0  0  0  0  0  0  0  0
  -14.9036   -3.2832   30.1376 C   0  0  1  0  0  0  0  0  0  0  0  0
  -13.8632   -3.5686   29.2334 O   0  0  0  0  0  0  0  0  0  0  0  0
  -15.8244   -4.4859   30.0509 C   0  0  1  0  0  0  0  0  0  0  0  0
  -17.1731   -4.0992   30.1929 O   0  0  0  0  0  0  0  0  0  0  0  0
  -15.5773   -5.0052   28.6490 C   0  0  1  0  0  0  0  0  0  0  0  0
  -16.6824   -4.6666   27.8479 O   0  0  0  0  0  0  0  0  0  0  0  0
  -14.3354   -4.2950   28.1277 C   0  0  2  0  0  0  0  0  0  0  0  0
  -14.5239   -9.7816   34.9185 O   0  0  0  0  0  0  0  0  0  0  0  0
  -12.7602   -7.8418   24.5621 N   0  0  0  0  0  0  0  0  0  0  0  0
  -13.8731   -7.0254   24.5175 C   0  0  0  0  0  0  0  0  0  0  0  0
  -14.1415   -6.1453   25.5489 N   0  0  0  0  0  0  0  0  0  0  0  0
  -13.3167   -6.0764   26.6207 C   0  0  0  0  0  0  0  0  0  0  0  0
  -12.1876   -6.8840   26.6790 C   0  0  0  0  0  0  0  0  0  0  0  0
  -11.9131   -7.7729   25.6468 C   0  0  0  0  0  0  0  0  0  0  0  0
  -10.8367   -8.5532   25.7073 N   0  0  0  0  0  0  0  0  0  0  0  0
  -11.5440   -6.6135   27.8349 N   0  0  0  0  0  0  0  0  0  0  0  0
  -12.2262   -5.6482   28.4949 C   0  0  0  0  0  0  0  0  0  0  0  0
  -13.3275   -5.3027   27.7572 N   0  0  0  0  0  0  0  0  0  0  0  0
  2  1  1  1  0  0  0
  2  3  1  0  0  0  0
  2  5  1  0  0  0  0
  3  4  1  0  0  0  0
  3 17  1  0  0  0  0
  5  6  1  0  0  0  0
  7  6  1  1  0  0  0
  7  8  1  0  0  0  0
  7  9  1  0  0  0  0
 10  9  1  1  0  0  0
 10 11  1  0  0  0  0
 10 12  1  0  0  0  0
 11 16  1  0  0  0  0
 12 13  1  6  0  0  0
 12 14  1  0  0  0  0
 14 15  1  6  0  0  0
 14 16  1  0  0  0  0
 16 27  1  1  0  0  0
 18 19  2  0  0  0  0
 18 23  1  0  0  0  0
 19 20  1  0  0  0  0
 20 21  2  0  0  0  0
 21 22  1  0  0  0  0
 21 27  1  0  0  0  0
 22 23  2  0  0  0  0
 22 25  1  0  0  0  0
 23 24  1  0  0  0  0
 25 26  2  0  0  0  0
 26 27  1  0  0  0  0
M  END
>  <CHROM.1>
179.08501779,-59.11741797,-168.18581258,-68.47206892,-78.95653500,-53.07359255
-169.73559556,-13.91288767,-6.03022550,29.83692527,-1.98161636,1.13459290
-1.13328646

>  <Name>
ligand

>  <RI>
0

>  <Rbt.Current_Directory>
/home/itssahil/PROJECTS/Mol_Feturizer/New_Systems/rnas/3GX6

>  <Rbt.Executable>
rbdock ($Id: //depot/dev/client3/rdock/2013.1/src/exe/rbdock.cxx#4 $)

>  <Rbt.Library>
libRbt.so (2013.1, Build901 2013/11/27)

>  <Rbt.Parameter_File>
/export/apps/rDock/src/rDock_2013.1_src/data/scripts/dock_solv.prm

>  <Rbt.Receptor>
prm/pocket_docking_6.prm

>  <SCORE>
-22.7198

>  <SCORE.INTER>
-12.8967

>  <SCORE.INTER.CONST>
1

>  <SCORE.INTER.POLAR>
0

>  <SCORE.INTER.ROT>
7

>  <SCORE.INTER.SOLV>
9.79623

>  <SCORE.INTER.VDW>
-20.1299

>  <SCORE.INTER.norm>
-0.477657

>  <SCORE.INTRA>
-9.82305

>  <SCORE.INTRA.DIHEDRAL>
-10.8278

>  <SCORE.INTRA.DIHEDRAL.0>
15.0182

>  <SCORE.INTRA.POLAR>
0

>  <SCORE.INTRA.POLAR.0>
0

>  <SCORE.INTRA.REPUL>
0

>  <SCORE.INTRA.REPUL.0>
0

>  <SCORE.INTRA.SOLV>
-0.81485

>  <SCORE.INTRA.SOLV.lig_0>
-47.9129

>  <SCORE.INTRA.VDW>
-4.00171

>  <SCORE.INTRA.VDW.0>
2.00851

>  <SCORE.INTRA.norm>
-0.363817

>  <SCORE.RESTR>
0

>  <SCORE.RESTR.CAVITY>
0

>  <SCORE.RESTR.norm>
0

>  <SCORE.SYSTEM>
0

>  <SCORE.SYSTEM.CONST>
0

>  <SCORE.SYSTEM.DIHEDRAL>
0

>  <SCORE.SYSTEM.SOLV>
0

>  <SCORE.SYSTEM.norm>
0

>  <SCORE.heavy>
27

>  <SCORE.norm>
-0.841473

>  <RMSD>
6.904

$$$$
ligand
 OpenBabel11021811483D
libRbt.so/2013.1/901 2013/11/27
 27 29  0  0  0  0  0  0  0  0999 V2000
  -15.5834   -0.6238   30.8847 N   0  0  0  0  0  0  0  0  0  0  0  0
  -15.5974   -1.8575   31.6662 C   0  0  2  0  0  0  0  0  0  0  0  0
  -14.2068   -2.2223   32.1791 C   0  0  0  0  0  0  0  0  0  0  0  0
  -14.0474   -2.6936   33.3073 O   0  0  0  0  0  0  0  0  0  0  0  0
  -16.2127   -3.0019   30.8664 C   0  0  0  0  0  0  0  0  0  0  0  0
  -16.6816   -4.1595   31.7342 C   0  0  0  0  0  0  0  0  0  0  0  0
  -16.9279   -5.7041   30.8233 S   0  0  2  0  0  0  0  0  0  0  0  0
  -18.3485   -5.2557   29.7951 C   0  0  0  0  0  0  0  0  0  0  0  0
  -17.7181   -6.7305   32.0924 C   0  0  0  0  0  0  0  0  0  0  0  0
  -16.6734   -7.1703   33.1080 C   0  0  1  0  0  0  0  0  0  0  0  0
  -17.3257   -7.4385   34.3263 O   0  0  0  0  0  0  0  0  0  0  0  0
  -15.9362   -8.4550   32.7797 C   0  0  1  0  0  0  0  0  0  0  0  0
  -14.7032   -8.1822   32.1521 O   0  0  0  0  0  0  0  0  0  0  0  0
  -15.7003   -9.0719   34.1434 C   0  0  1  0  0  0  0  0  0  0  0  0
  -14.3440   -8.9081   34.4772 O   0  0  0  0  0  0  0  0  0  0  0  0
  -16.5635   -8.3002   35.1322 C   0  0  2  0  0  0  0  0  0  0  0  0
  -13.2131   -2.0468   31.4738 O   0  0  0  0  0  0  0  0  0  0  0  0
  -20.7621  -11.4560   34.6988 N   0  0  0  0  0  0  0  0  0  0  0  0
  -20.1794  -10.6743   33.7209 C   0  0  0  0  0  0  0  0  0  0  0  0
  -19.0733   -9.8969   34.0082 N   0  0  0  0  0  0  0  0  0  0  0  0
  -18.5492   -9.8888   35.2569 C   0  0  0  0  0  0  0  0  0  0  0  0
  -19.1169  -10.6756   36.2515 C   0  0  0  0  0  0  0  0  0  0  0  0
  -20.2306  -11.4575   35.9703 C   0  0  0  0  0  0  0  0  0  0  0  0
  -20.7800  -12.2037   36.9255 N   0  0  0  0  0  0  0  0  0  0  0  0
  -18.4051  -10.4892   37.3838 N   0  0  0  0  0  0  0  0  0  0  0  0
  -17.3977   -9.6228   37.1246 C   0  0  0  0  0  0  0  0  0  0  0  0
  -17.4710   -9.2404   35.8112 N   0  0  0  0  0  0  0  0  0  0  0  0
  2  1  1  6  0  0  0
  2  3  1  0  0  0  0
  2  5  1  0  0  0  0
  3  4  1  0  0  0  0
  3 17  1  0  0  0  0
  5  6  1  0  0  0  0
  7  6  1  1  0  0  0
  7  8  1  0  0  0  0
  7  9  1  0  0  0  0
 10  9  1  6  0  0  0
 10 11  1  0  0  0  0
 10 12  1  0  0  0  0
 11 16  1  0  0  0  0
 12 13  1  1  0  0  0
 12 14  1  0  0  0  0
 14 15  1  1  0  0  0
 14 16  1  0  0  0  0
 16 27  1  6  0  0  0
 18 19  2  0  0  0  0
 18 23  1  0  0  0  0
 19 20  1  0  0  0  0
 20 21  2  0  0  0  0
 21 22  1  0  0  0  0
 21 27  1  0  0  0  0
 22 23  2  0  0  0  0
 22 25  1  0  0  0  0
 23 24  1  0  0  0  0
 25 26  2  0  0  0  0
 26 27  1  0  0  0  0
M  END
>  <CHROM.1>
141.14039845,-160.77067318,-161.97500203,-67.51897280,-74.62171361,154.92181866
42.39034371,-17.01297834,-7.14446038,33.43919528,1.10040661,-0.51843327,-0.74969269

>  <Name>
ligand

>  <RI>
0

>  <Rbt.Current_Directory>
/home/itssahil/PROJECTS/Mol_Feturizer/New_Systems/rnas/3GX6

>  <Rbt.Executable>
rbdock ($Id: //depot/dev/client3/rdock/2013.1/src/exe/rbdock.cxx#4 $)

>  <Rbt.Library>
libRbt.so (2013.1, Build901 2013/11/27)

>  <Rbt.Parameter_File>
/export/apps/rDock/src/rDock_2013.1_src/data/scripts/dock_solv.prm

>  <Rbt.Receptor>
prm/pocket_docking_8.prm

>  <SCORE>
-20.8377

>  <SCORE.INTER>
-11.3319

>  <SCORE.INTER.CONST>
1

>  <SCORE.INTER.POLAR>
0

>  <SCORE.INTER.ROT>
7

>  <SCORE.INTER.SOLV>
13.6894

>  <SCORE.INTER.VDW>
-20.3844

>  <SCORE.INTER.norm>
-0.4197

>  <SCORE.INTRA>
-9.50578

>  <SCORE.INTRA.DIHEDRAL>
-7.33465

>  <SCORE.INTRA.DIHEDRAL.0>
15.0182

>  <SCORE.INTRA.POLAR>
0

>  <SCORE.INTRA.POLAR.0>
0

>  <SCORE.INTRA.REPUL>
0

>  <SCORE.INTRA.REPUL.0>
0

>  <SCORE.INTRA.SOLV>
-1.70092

>  <SCORE.INTRA.SOLV.lig_0>
-47.9129

>  <SCORE.INTRA.VDW>
-4.988

>  <SCORE.INTRA.VDW.0>
2.00851

>  <SCORE.INTRA.norm>
-0.352066

>  <SCORE.RESTR>
0

>  <SCORE.RESTR.CAVITY>
0

>  <SCORE.RESTR.norm>
0

>  <SCORE.SYSTEM>
0

>  <SCORE.SYSTEM.CONST>
0

>  <SCORE.SYSTEM.DIHEDRAL>
0

>  <SCORE.SYSTEM.SOLV>
0

>  <SCORE.SYSTEM.norm>
0

>  <SCORE.heavy>
27

>  <SCORE.norm>
-0.771766

>  <RMSD>
6.931

$$$$
ligand
 OpenBabel11021811483D
libRbt.so/2013.1/901 2013/11/27
 27 29  0  0  0  0  0  0  0  0999 V2000
  -17.9528   -6.2722   32.0397 N   0  0  0  0  0  0  0  0  0  0  0  0
  -16.8463   -6.8739   32.7789 C   0  0  2  0  0  0  0  0  0  0  0  0
  -17.2948   -8.0904   33.5845 C   0  0  0  0  0  0  0  0  0  0  0  0
  -16.5613   -9.0728   33.7160 O   0  0  0  0  0  0  0  0  0  0  0  0
  -16.1597   -5.8412   33.6677 C   0  0  0  0  0  0  0  0  0  0  0  0
  -15.5448   -4.6891   32.8882 C   0  0  0  0  0  0  0  0  0  0  0  0
  -14.0147   -5.1240   32.0246 S   0  0  2  0  0  0  0  0  0  0  0  0
  -12.8523   -5.1544   33.4118 C   0  0  0  0  0  0  0  0  0  0  0  0
  -13.5964   -3.5407   31.2458 C   0  0  0  0  0  0  0  0  0  0  0  0
  -14.4123   -3.3740   29.9719 C   0  0  1  0  0  0  0  0  0  0  0  0
  -13.6375   -3.8269   28.8874 O   0  0  0  0  0  0  0  0  0  0  0  0
  -15.6884   -4.1911   29.8960 C   0  0  1  0  0  0  0  0  0  0  0  0
  -16.8026   -3.4236   30.2935 O   0  0  0  0  0  0  0  0  0  0  0  0
  -15.7898   -4.5307   28.4228 C   0  0  1  0  0  0  0  0  0  0  0  0
  -16.7984   -3.7345   27.8511 O   0  0  0  0  0  0  0  0  0  0  0  0
  -14.4478   -4.1785   27.7953 C   0  0  2  0  0  0  0  0  0  0  0  0
  -18.4049   -8.1151   34.1162 O   0  0  0  0  0  0  0  0  0  0  0  0
  -10.3890   -7.5286   27.5164 N   0  0  0  0  0  0  0  0  0  0  0  0
  -10.5268   -6.4233   28.3326 C   0  0  0  0  0  0  0  0  0  0  0  0
  -11.6670   -5.6443   28.2753 N   0  0  0  0  0  0  0  0  0  0  0  0
  -12.6636   -5.9540   27.4123 C   0  0  0  0  0  0  0  0  0  0  0  0
  -12.5464   -7.0673   26.5894 C   0  0  0  0  0  0  0  0  0  0  0  0
  -11.4016   -7.8533   26.6399 C   0  0  0  0  0  0  0  0  0  0  0  0
  -11.2854   -8.9142   25.8448 N   0  0  0  0  0  0  0  0  0  0  0  0
  -13.6687   -7.1508   25.8430 N   0  0  0  0  0  0  0  0  0  0  0  0
  -14.4934   -6.1333   26.1855 C   0  0  0  0  0  0  0  0  0  0  0  0
  -13.8873   -5.3814   27.1571 N   0  0  0  0  0  0  0  0  0  0  0  0
  2  1  1  1  0  0  0
  2  3  1  0  0  0  0
  2  5  1  0  0  0  0
  3  4  1  0  0  0  0
  3 17  1  0  0  0  0
  5  6  1  0  0  0  0
  7  6  1  1  0  0  0
  7  8  1  0  0  0  0
  7  9  1  0  0  0  0
 10  9  1  1  0  0  0
 10 11  1  0  0  0  0
 10 12  1  0  0  0  0
 11 16  1  0  0  0  0
 12 13  1  6  0  0  0
 12 14  1  0  0  0  0
 14 15  1  6  0  0  0
 14 16  1  0  0  0  0
 16 27  1  1  0  0  0
 18 19  2  0  0  0  0
 18 23  1  0  0  0  0
 19 20  1  0  0  0  0
 20 21  2  0  0  0  0
 21 22  1  0  0  0  0
 21 27  1  0  0  0  0
 22 23  2  0  0  0  0
 22 25  1  0  0  0  0
 23 24  1  0  0  0  0
 25 26  2  0  0  0  0
 26 27  1  0  0  0  0
M  END
>  <CHROM.1>
143.69637575,-61.70102059,-74.79322872,-75.89399100,-81.10664186,-94.65410707
-10.34119638,-14.47455782,-5.79631761,29.91512771,2.59989709,-0.83824228
2.44151062

>  <Name>
ligand

>  <RI>
0

>  <Rbt.Current_Directory>
/home/itssahil/PROJECTS/Mol_Feturizer/New_Systems/rnas/3GX6

>  <Rbt.Executable>
rbdock ($Id: //depot/dev/client3/rdock/2013.1/src/exe/rbdock.cxx#4 $)

>  <Rbt.Library>
libRbt.so (2013.1, Build901 2013/11/27)

>  <Rbt.Parameter_File>
/export/apps/rDock/src/rDock_2013.1_src/data/scripts/dock_solv.prm

>  <Rbt.Receptor>
prm/pocket_docking_5.prm

>  <SCORE>
-19.3224

>  <SCORE.INTER>
-12.747

>  <SCORE.INTER.CONST>
1

>  <SCORE.INTER.POLAR>
0

>  <SCORE.INTER.ROT>
7

>  <SCORE.INTER.SOLV>
7.96227

>  <SCORE.INTER.VDW>
-19.4188

>  <SCORE.INTER.norm>
-0.472112

>  <SCORE.INTRA>
-6.5754

>  <SCORE.INTRA.DIHEDRAL>
-7.15661

>  <SCORE.INTRA.DIHEDRAL.0>
15.0182

>  <SCORE.INTRA.POLAR>
0

>  <SCORE.INTRA.POLAR.0>
0

>  <SCORE.INTRA.REPUL>
0

>  <SCORE.INTRA.REPUL.0>
0

>  <SCORE.INTRA.SOLV>
0.994379

>  <SCORE.INTRA.SOLV.lig_0>
-47.9129

>  <SCORE.INTRA.VDW>
-3.49428

>  <SCORE.INTRA.VDW.0>
2.00851

>  <SCORE.INTRA.norm>
-0.243533

>  <SCORE.RESTR>
0

>  <SCORE.RESTR.CAVITY>
0

>  <SCORE.RESTR.norm>
0

>  <SCORE.SYSTEM>
0

>  <SCORE.SYSTEM.CONST>
0

>  <SCORE.SYSTEM.DIHEDRAL>
0

>  <SCORE.SYSTEM.SOLV>
0

>  <SCORE.SYSTEM.norm>
0

>  <SCORE.heavy>
27

>  <SCORE.norm>
-0.715645

>  <RMSD>
6.936

$$$$
ligand
 OpenBabel11021811483D
libRbt.so/2013.1/901 2013/11/27
 27 29  0  0  0  0  0  0  0  0999 V2000
  -15.1280   -2.1836   32.2114 N   0  0  0  0  0  0  0  0  0  0  0  0
  -14.0074   -2.9844   32.6972 C   0  0  2  0  0  0  0  0  0  0  0  0
  -12.9044   -3.1142   31.6502 C   0  0  0  0  0  0  0  0  0  0  0  0
  -11.7163   -3.1517   31.9780 O   0  0  0  0  0  0  0  0  0  0  0  0
  -14.4831   -4.3527   33.1760 C   0  0  0  0  0  0  0  0  0  0  0  0
  -13.3450   -5.2857   33.5598 C   0  0  0  0  0  0  0  0  0  0  0  0
  -13.8813   -6.7647   34.4550 S   0  0  2  0  0  0  0  0  0  0  0  0
  -12.3255   -7.6872   34.5264 C   0  0  0  0  0  0  0  0  0  0  0  0
  -14.7640   -7.6582   33.1471 C   0  0  0  0  0  0  0  0  0  0  0  0
  -15.7812   -8.5990   33.7769 C   0  0  1  0  0  0  0  0  0  0  0  0
  -15.1615   -9.2669   34.8500 O   0  0  0  0  0  0  0  0  0  0  0  0
  -16.9983   -7.9352   34.3931 C   0  0  1  0  0  0  0  0  0  0  0  0
  -18.0818   -7.9322   33.4905 O   0  0  0  0  0  0  0  0  0  0  0  0
  -17.3110   -8.8268   35.5777 C   0  0  1  0  0  0  0  0  0  0  0  0
  -18.4463   -9.5966   35.2677 O   0  0  0  0  0  0  0  0  0  0  0  0
  -16.1112   -9.7449   35.7679 C   0  0  2  0  0  0  0  0  0  0  0  0
  -13.1820   -3.1790   30.4525 O   0  0  0  0  0  0  0  0  0  0  0  0
  -17.2266   -8.8021   40.8317 N   0  0  0  0  0  0  0  0  0  0  0  0
  -18.1042   -8.8998   39.7700 C   0  0  0  0  0  0  0  0  0  0  0  0
  -17.6383   -9.1515   38.4933 N   0  0  0  0  0  0  0  0  0  0  0  0
  -16.3116   -9.3010   38.2670 C   0  0  0  0  0  0  0  0  0  0  0  0
  -15.4144   -9.2145   39.3244 C   0  0  0  0  0  0  0  0  0  0  0  0
  -15.8756   -8.9591   40.6100 C   0  0  0  0  0  0  0  0  0  0  0  0
  -15.0152   -8.8668   41.6211 N   0  0  0  0  0  0  0  0  0  0  0  0
  -14.1723   -9.4069   38.8305 N   0  0  0  0  0  0  0  0  0  0  0  0
  -14.2653   -9.6287   37.4983 C   0  0  0  0  0  0  0  0  0  0  0  0
  -15.5837   -9.5673   37.1313 N   0  0  0  0  0  0  0  0  0  0  0  0
  2  1  1  6  0  0  0
  2  3  1  0  0  0  0
  2  5  1  0  0  0  0
  3  4  1  0  0  0  0
  3 17  1  0  0  0  0
  5  6  1  0  0  0  0
  7  6  1  6  0  0  0
  7  8  1  0  0  0  0
  7  9  1  0  0  0  0
 10  9  1  1  0  0  0
 10 11  1  0  0  0  0
 10 12  1  0  0  0  0
 11 16  1  0  0  0  0
 12 13  1  6  0  0  0
 12 14  1  0  0  0  0
 14 15  1  6  0  0  0
 14 16  1  0  0  0  0
 16 27  1  1  0  0  0
 18 19  2  0  0  0  0
 18 23  1  0  0  0  0
 19 20  1  0  0  0  0
 20 21  2  0  0  0  0
 21 22  1  0  0  0  0
 21 27  1  0  0  0  0
 22 23  2  0  0  0  0
 22 25  1  0  0  0  0
 23 24  1  0  0  0  0
 25 26  2  0  0  0  0
 26 27  1  0  0  0  0
M  END
>  <CHROM.1>
145.12463303,174.03975019,167.59593542,172.85552735,-155.78137419,-44.88235359
147.42496964,-15.21682057,-7.33382766,35.50564522,1.16918765,-0.64823751
-1.15830509

>  <Name>
ligand

>  <RI>
0

>  <Rbt.Current_Directory>
/home/itssahil/PROJECTS/Mol_Feturizer/New_Systems/rnas/3GX6

>  <Rbt.Executable>
rbdock ($Id: //depot/dev/client3/rdock/2013.1/src/exe/rbdock.cxx#4 $)

>  <Rbt.Library>
libRbt.so (2013.1, Build901 2013/11/27)

>  <Rbt.Parameter_File>
/export/apps/rDock/src/rDock_2013.1_src/data/scripts/dock_solv.prm

>  <Rbt.Receptor>
prm/pocket_docking_8.prm

>  <SCORE>
-28.0747

>  <SCORE.INTER>
-19.3553

>  <SCORE.INTER.CONST>
1

>  <SCORE.INTER.POLAR>
0

>  <SCORE.INTER.ROT>
7

>  <SCORE.INTER.SOLV>
12.7835

>  <SCORE.INTER.VDW>
-25.4314

>  <SCORE.INTER.norm>
-0.716862

>  <SCORE.INTRA>
-8.71944

>  <SCORE.INTRA.DIHEDRAL>
-7.82532

>  <SCORE.INTRA.DIHEDRAL.0>
15.0182

>  <SCORE.INTRA.POLAR>
0

>  <SCORE.INTRA.POLAR.0>
0

>  <SCORE.INTRA.REPUL>
0

>  <SCORE.INTRA.REPUL.0>
0

>  <SCORE.INTRA.SOLV>
-1.56883

>  <SCORE.INTRA.SOLV.lig_0>
-47.9129

>  <SCORE.INTRA.VDW>
-4.02236

>  <SCORE.INTRA.VDW.0>
2.00851

>  <SCORE.INTRA.norm>
-0.322942

>  <SCORE.RESTR>
0

>  <SCORE.RESTR.CAVITY>
0

>  <SCORE.RESTR.norm>
0

>  <SCORE.SYSTEM>
0

>  <SCORE.SYSTEM.CONST>
0

>  <SCORE.SYSTEM.DIHEDRAL>
0

>  <SCORE.SYSTEM.SOLV>
0

>  <SCORE.SYSTEM.norm>
0

>  <SCORE.heavy>
27

>  <SCORE.norm>
-1.0398

>  <RMSD>
6.956

$$$$
ligand
 OpenBabel11021811483D
libRbt.so/2013.1/901 2013/11/27
 27 29  0  0  0  0  0  0  0  0999 V2000
  -13.1760   -5.3187   33.2813 N   0  0  0  0  0  0  0  0  0  0  0  0
  -13.6033   -4.8458   31.9673 C   0  0  2  0  0  0  0  0  0  0  0  0
  -13.2606   -5.8435   30.8641 C   0  0  0  0  0  0  0  0  0  0  0  0
  -14.1413   -6.4961   30.2994 O   0  0  0  0  0  0  0  0  0  0  0  0
  -13.0226   -3.4667   31.6695 C   0  0  0  0  0  0  0  0  0  0  0  0
  -13.9068   -2.3249   32.1463 C   0  0  0  0  0  0  0  0  0  0  0  0
  -15.2905   -1.9589   31.0383 S   0  0  2  0  0  0  0  0  0  0  0  0
  -16.0221   -0.5365   31.8857 C   0  0  0  0  0  0  0  0  0  0  0  0
  -16.4516   -3.2767   31.4898 C   0  0  0  0  0  0  0  0  0  0  0  0
  -16.2558   -4.4630   30.5568 C   0  0  1  0  0  0  0  0  0  0  0  0
  -17.3218   -5.3612   30.7530 O   0  0  0  0  0  0  0  0  0  0  0  0
  -16.2923   -4.1466   29.0734 C   0  0  1  0  0  0  0  0  0  0  0  0
  -14.9891   -3.9769   28.5621 O   0  0  0  0  0  0  0  0  0  0  0  0
  -16.9283   -5.3851   28.4752 C   0  0  1  0  0  0  0  0  0  0  0  0
  -15.9260   -6.1337   27.8326 O   0  0  0  0  0  0  0  0  0  0  0  0
  -17.5002   -6.1910   29.6337 C   0  0  2  0  0  0  0  0  0  0  0  0
  -12.0918   -6.0195   30.5197 O   0  0  0  0  0  0  0  0  0  0  0  0
  -21.5553   -9.5547   29.7619 N   0  0  0  0  0  0  0  0  0  0  0  0
  -20.2339   -9.8009   30.0782 C   0  0  0  0  0  0  0  0  0  0  0  0
  -19.2896   -8.7959   29.9865 N   0  0  0  0  0  0  0  0  0  0  0  0
  -19.6492   -7.5553   29.5797 C   0  0  0  0  0  0  0  0  0  0  0  0
  -20.9757   -7.2866   29.2655 C   0  0  0  0  0  0  0  0  0  0  0  0
  -21.9297   -8.2931   29.3529 C   0  0  0  0  0  0  0  0  0  0  0  0
  -23.1985   -8.0380   29.0427 N   0  0  0  0  0  0  0  0  0  0  0  0
  -21.0606   -5.9889   28.9017 N   0  0  0  0  0  0  0  0  0  0  0  0
  -19.8304   -5.4315   28.9951 C   0  0  0  0  0  0  0  0  0  0  0  0
  -18.9430   -6.3872   29.4143 N   0  0  0  0  0  0  0  0  0  0  0  0
  2  1  1  1  0  0  0
  2  3  1  0  0  0  0
  2  5  1  0  0  0  0
  3  4  1  0  0  0  0
  3 17  1  0  0  0  0
  5  6  1  0  0  0  0
  7  6  1  1  0  0  0
  7  8  1  0  0  0  0
  7  9  1  0  0  0  0
 10  9  1  1  0  0  0
 10 11  1  0  0  0  0
 10 12  1  0  0  0  0
 11 16  1  0  0  0  0
 12 13  1  6  0  0  0
 12 14  1  0  0  0  0
 14 15  1  1  0  0  0
 14 16  1  0  0  0  0
 16 27  1  6  0  0  0
 18 19  2  0  0  0  0
 18 23  1  0  0  0  0
 19 20  1  0  0  0  0
 20 21  2  0  0  0  0
 21 22  1  0  0  0  0
 21 27  1  0  0  0  0
 22 23  2  0  0  0  0
 22 25  1  0  0  0  0
 23 24  1  0  0  0  0
 25 26  2  0  0  0  0
 26 27  1  0  0  0  0
M  END
>  <CHROM.1>
108.87868238,-89.31532633,-79.78753321,-177.26061798,-93.48809021,-168.94647672
-111.54809113,-16.94243158,-5.43124948,30.21198363,-0.58216827,0.19028177
-3.00759912

>  <Name>
ligand

>  <RI>
0

>  <Rbt.Current_Directory>
/home/itssahil/PROJECTS/Mol_Feturizer/New_Systems/rnas/3GX6

>  <Rbt.Executable>
rbdock ($Id: //depot/dev/client3/rdock/2013.1/src/exe/rbdock.cxx#4 $)

>  <Rbt.Library>
libRbt.so (2013.1, Build901 2013/11/27)

>  <Rbt.Parameter_File>
/export/apps/rDock/src/rDock_2013.1_src/data/scripts/dock_solv.prm

>  <Rbt.Receptor>
prm/pocket_docking_8.prm

>  <SCORE>
-22.4897

>  <SCORE.INTER>
-13.9798

>  <SCORE.INTER.CONST>
1

>  <SCORE.INTER.POLAR>
0

>  <SCORE.INTER.ROT>
7

>  <SCORE.INTER.SOLV>
11.7089

>  <SCORE.INTER.VDW>
-21.4895

>  <SCORE.INTER.norm>
-0.517772

>  <SCORE.INTRA>
-8.635

>  <SCORE.INTRA.DIHEDRAL>
-5.27782

>  <SCORE.INTRA.DIHEDRAL.0>
15.0182

>  <SCORE.INTRA.POLAR>
0

>  <SCORE.INTRA.POLAR.0>
0

>  <SCORE.INTRA.REPUL>
0

>  <SCORE.INTRA.REPUL.0>
0

>  <SCORE.INTRA.SOLV>
0.145056

>  <SCORE.INTRA.SOLV.lig_0>
-47.9129

>  <SCORE.INTRA.VDW>
-6.06862

>  <SCORE.INTRA.VDW.0>
2.00851

>  <SCORE.INTRA.norm>
-0.319815

>  <SCORE.RESTR>
0.125184

>  <SCORE.RESTR.CAVITY>
0.125184

>  <SCORE.RESTR.norm>
0.00463643

>  <SCORE.SYSTEM>
0

>  <SCORE.SYSTEM.CONST>
0

>  <SCORE.SYSTEM.DIHEDRAL>
0

>  <SCORE.SYSTEM.SOLV>
0

>  <SCORE.SYSTEM.norm>
0

>  <SCORE.heavy>
27

>  <SCORE.norm>
-0.83295

>  <RMSD>
6.984

$$$$
ligand
 OpenBabel11021811483D
libRbt.so/2013.1/901 2013/11/27
 27 29  0  0  0  0  0  0  0  0999 V2000
  -21.1318   -9.6783   35.7496 N   0  0  0  0  0  0  0  0  0  0  0  0
  -19.8890  -10.2386   35.2257 C   0  0  2  0  0  0  0  0  0  0  0  0
  -18.6991   -9.9289   36.1303 C   0  0  0  0  0  0  0  0  0  0  0  0
  -17.5971  -10.4454   35.9323 O   0  0  0  0  0  0  0  0  0  0  0  0
  -19.6385   -9.7662   33.7967 C   0  0  0  0  0  0  0  0  0  0  0  0
  -19.3637   -8.2738   33.6950 C   0  0  0  0  0  0  0  0  0  0  0  0
  -17.6820   -7.8050   34.1726 S   0  0  2  0  0  0  0  0  0  0  0  0
  -17.6905   -6.0512   33.7247 C   0  0  0  0  0  0  0  0  0  0  0  0
  -16.7248   -8.5156   32.8061 C   0  0  0  0  0  0  0  0  0  0  0  0
  -15.2783   -8.6960   33.2437 C   0  0  1  0  0  0  0  0  0  0  0  0
  -14.4971   -8.9438   32.0992 O   0  0  0  0  0  0  0  0  0  0  0  0
  -14.6312   -7.4866   33.8922 C   0  0  1  0  0  0  0  0  0  0  0  0
  -14.7002   -7.5715   35.2982 O   0  0  0  0  0  0  0  0  0  0  0  0
  -13.1897   -7.5842   33.4356 C   0  0  1  0  0  0  0  0  0  0  0  0
  -12.4082   -8.0216   34.5199 O   0  0  0  0  0  0  0  0  0  0  0  0
  -13.1477   -8.6262   32.3261 C   0  0  2  0  0  0  0  0  0  0  0  0
  -18.8200   -9.1577   37.0823 O   0  0  0  0  0  0  0  0  0  0  0  0
  -11.6507   -9.3280   27.3219 N   0  0  0  0  0  0  0  0  0  0  0  0
  -12.1676  -10.2641   28.1958 C   0  0  0  0  0  0  0  0  0  0  0  0
  -12.5088   -9.9080   29.4869 N   0  0  0  0  0  0  0  0  0  0  0  0
  -12.3355   -8.6343   29.9131 C   0  0  0  0  0  0  0  0  0  0  0  0
  -11.8247   -7.6769   29.0453 C   0  0  0  0  0  0  0  0  0  0  0  0
  -11.4771   -8.0286   27.7467 C   0  0  0  0  0  0  0  0  0  0  0  0
  -10.9790   -7.1136   26.9187 N   0  0  0  0  0  0  0  0  0  0  0  0
  -11.7624   -6.5044   29.7124 N   0  0  0  0  0  0  0  0  0  0  0  0
  -12.2349   -6.6939   30.9667 C   0  0  0  0  0  0  0  0  0  0  0  0
  -12.5952   -8.0079   31.1092 N   0  0  0  0  0  0  0  0  0  0  0  0
  2  1  1  1  0  0  0
  2  3  1  0  0  0  0
  2  5  1  0  0  0  0
  3  4  1  0  0  0  0
  3 17  1  0  0  0  0
  5  6  1  0  0  0  0
  7  6  1  6  0  0  0
  7  8  1  0  0  0  0
  7  9  1  0  0  0  0
 10  9  1  6  0  0  0
 10 11  1  0  0  0  0
 10 12  1  0  0  0  0
 11 16  1  0  0  0  0
 12 13  1  1  0  0  0
 12 14  1  0  0  0  0
 14 15  1  1  0  0  0
 14 16  1  0  0  0  0
 16 27  1  6  0  0  0
 18 19  2  0  0  0  0
 18 23  1  0  0  0  0
 19 20  1  0  0  0  0
 20 21  2  0  0  0  0
 21 22  1  0  0  0  0
 21 27  1  0  0  0  0
 22 23  2  0  0  0  0
 22 25  1  0  0  0  0
 23 24  1  0  0  0  0
 25 26  2  0  0  0  0
 26 27  1  0  0  0  0
M  END
>  <CHROM.1>
171.71608001,66.63924506,78.00251713,173.21229599,-159.08275322,-166.35520588
-70.38277318,-15.18832951,-8.44861922,32.55460046,2.49149066,0.37038881,1.26905438

>  <Name>
ligand

>  <RI>
0

>  <Rbt.Current_Directory>
/home/itssahil/PROJECTS/Mol_Feturizer/New_Systems/rnas/3GX6

>  <Rbt.Executable>
rbdock ($Id: //depot/dev/client3/rdock/2013.1/src/exe/rbdock.cxx#4 $)

>  <Rbt.Library>
libRbt.so (2013.1, Build901 2013/11/27)

>  <Rbt.Parameter_File>
/export/apps/rDock/src/rDock_2013.1_src/data/scripts/dock_solv.prm

>  <Rbt.Receptor>
prm/pocket_docking_8.prm

>  <SCORE>
-19.9007

>  <SCORE.INTER>
-11.6541

>  <SCORE.INTER.CONST>
1

>  <SCORE.INTER.POLAR>
0

>  <SCORE.INTER.ROT>
7

>  <SCORE.INTER.SOLV>
10.8861

>  <SCORE.INTER.VDW>
-19.6647

>  <SCORE.INTER.norm>
-0.431632

>  <SCORE.INTRA>
-8.24662

>  <SCORE.INTRA.DIHEDRAL>
-7.77178

>  <SCORE.INTRA.DIHEDRAL.0>
15.0182

>  <SCORE.INTRA.POLAR>
0

>  <SCORE.INTRA.POLAR.0>
0

>  <SCORE.INTRA.REPUL>
0

>  <SCORE.INTRA.REPUL.0>
0

>  <SCORE.INTRA.SOLV>
-0.515196

>  <SCORE.INTRA.SOLV.lig_0>
-47.9129

>  <SCORE.INTRA.VDW>
-4.10314

>  <SCORE.INTRA.VDW.0>
2.00851

>  <SCORE.INTRA.norm>
-0.30543

>  <SCORE.RESTR>
0

>  <SCORE.RESTR.CAVITY>
0

>  <SCORE.RESTR.norm>
0

>  <SCORE.SYSTEM>
0

>  <SCORE.SYSTEM.CONST>
0

>  <SCORE.SYSTEM.DIHEDRAL>
0

>  <SCORE.SYSTEM.SOLV>
0

>  <SCORE.SYSTEM.norm>
0

>  <SCORE.heavy>
27

>  <SCORE.norm>
-0.737062

>  <RMSD>
7.011

$$$$
ligand
 OpenBabel11021811483D
libRbt.so/2013.1/901 2013/11/27
 27 29  0  0  0  0  0  0  0  0999 V2000
  -12.1645   -6.7606   33.4892 N   0  0  0  0  0  0  0  0  0  0  0  0
  -13.2836   -6.6445   34.4204 C   0  0  2  0  0  0  0  0  0  0  0  0
  -13.3756   -7.8495   35.3528 C   0  0  0  0  0  0  0  0  0  0  0  0
  -13.6410   -8.9724   34.9181 O   0  0  0  0  0  0  0  0  0  0  0  0
  -14.5939   -6.4196   33.6718 C   0  0  0  0  0  0  0  0  0  0  0  0
  -14.7999   -4.9766   33.2379 C   0  0  0  0  0  0  0  0  0  0  0  0
  -13.4775   -4.3340   32.1821 S   0  0  2  0  0  0  0  0  0  0  0  0
  -12.3755   -3.6255   33.4312 C   0  0  0  0  0  0  0  0  0  0  0  0
  -14.2633   -2.8421   31.5150 C   0  0  0  0  0  0  0  0  0  0  0  0
  -14.9469   -3.1782   30.1973 C   0  0  1  0  0  0  0  0  0  0  0  0
  -13.9527   -3.4743   29.2457 O   0  0  0  0  0  0  0  0  0  0  0  0
  -15.8376   -4.4063   30.2125 C   0  0  1  0  0  0  0  0  0  0  0  0
  -17.1861   -4.0483   30.4179 O   0  0  0  0  0  0  0  0  0  0  0  0
  -15.6574   -4.9766   28.8203 C   0  0  1  0  0  0  0  0  0  0  0  0
  -16.8157   -4.6993   28.0726 O   0  0  0  0  0  0  0  0  0  0  0  0
  -14.4675   -4.2573   28.1994 C   0  0  2  0  0  0  0  0  0  0  0  0
  -13.1907   -7.7206   36.5631 O   0  0  0  0  0  0  0  0  0  0  0  0
  -12.8754   -7.7301   24.5689 N   0  0  0  0  0  0  0  0  0  0  0  0
  -13.9915   -6.9175   24.5389 C   0  0  0  0  0  0  0  0  0  0  0  0
  -14.2643   -6.0582   25.5864 N   0  0  0  0  0  0  0  0  0  0  0  0
  -13.4405   -6.0059   26.6599 C   0  0  0  0  0  0  0  0  0  0  0  0
  -12.3081   -6.8098   26.7038 C   0  0  0  0  0  0  0  0  0  0  0  0
  -12.0292   -7.6781   25.6553 C   0  0  0  0  0  0  0  0  0  0  0  0
  -10.9497   -8.4549   25.7020 N   0  0  0  0  0  0  0  0  0  0  0  0
  -11.6664   -6.5584   27.8651 N   0  0  0  0  0  0  0  0  0  0  0  0
  -12.3530   -5.6085   28.5426 C   0  0  0  0  0  0  0  0  0  0  0  0
  -13.4553   -5.2537   27.8107 N   0  0  0  0  0  0  0  0  0  0  0  0
  2  1  1  6  0  0  0
  2  3  1  0  0  0  0
  2  5  1  0  0  0  0
  3  4  1  0  0  0  0
  3 17  1  0  0  0  0
  5  6  1  0  0  0  0
  7  6  1  1  0  0  0
  7  8  1  0  0  0  0
  7  9  1  0  0  0  0
 10  9  1  1  0  0  0
 10 11  1  0  0  0  0
 10 12  1  0  0  0  0
 11 16  1  0  0  0  0
 12 13  1  6  0  0  0
 12 14  1  0  0  0  0
 14 15  1  6  0  0  0
 14 16  1  0  0  0  0
 16 27  1  1  0  0  0
 18 19  2  0  0  0  0
 18 23  1  0  0  0  0
 19 20  1  0  0  0  0
 20 21  2  0  0  0  0
 21 22  1  0  0  0  0
 21 27  1  0  0  0  0
 22 23  2  0  0  0  0
 22 25  1  0  0  0  0
 23 24  1  0  0  0  0
 25 26  2  0  0  0  0
 26 27  1  0  0  0  0
M  END
>  <CHROM.1>
-65.85685112,-80.33098632,57.67222258,-91.19418747,-92.19216561,-68.05952565
-164.78171235,-13.78056810,-5.69669668,30.13011424,-1.63908579,0.91863157
-1.53806227

>  <Name>
ligand

>  <RI>
0

>  <Rbt.Current_Directory>
/home/itssahil/PROJECTS/Mol_Feturizer/New_Systems/rnas/3GX6

>  <Rbt.Executable>
rbdock ($Id: //depot/dev/client3/rdock/2013.1/src/exe/rbdock.cxx#4 $)

>  <Rbt.Library>
libRbt.so (2013.1, Build901 2013/11/27)

>  <Rbt.Parameter_File>
/export/apps/rDock/src/rDock_2013.1_src/data/scripts/dock_solv.prm

>  <Rbt.Receptor>
prm/pocket_docking_5.prm

>  <SCORE>
-22.968

>  <SCORE.INTER>
-15.3537

>  <SCORE.INTER.CONST>
1

>  <SCORE.INTER.POLAR>
0

>  <SCORE.INTER.ROT>
7

>  <SCORE.INTER.SOLV>
12.205

>  <SCORE.INTER.VDW>
-22.5708

>  <SCORE.INTER.norm>
-0.568654

>  <SCORE.INTRA>
-7.61438

>  <SCORE.INTRA.DIHEDRAL>
-7.19534

>  <SCORE.INTRA.DIHEDRAL.0>
15.0182

>  <SCORE.INTRA.POLAR>
0

>  <SCORE.INTRA.POLAR.0>
0

>  <SCORE.INTRA.REPUL>
0

>  <SCORE.INTRA.REPUL.0>
0

>  <SCORE.INTRA.SOLV>
1.35513

>  <SCORE.INTRA.SOLV.lig_0>
-47.9129

>  <SCORE.INTRA.VDW>
-4.69428

>  <SCORE.INTRA.VDW.0>
2.00851

>  <SCORE.INTRA.norm>
-0.282014

>  <SCORE.RESTR>
0

>  <SCORE.RESTR.CAVITY>
0

>  <SCORE.RESTR.norm>
0

>  <SCORE.SYSTEM>
0

>  <SCORE.SYSTEM.CONST>
0

>  <SCORE.SYSTEM.DIHEDRAL>
0

>  <SCORE.SYSTEM.SOLV>
0

>  <SCORE.SYSTEM.norm>
0

>  <SCORE.heavy>
27

>  <SCORE.norm>
-0.850668

>  <RMSD>
7.015

$$$$
ligand
 OpenBabel11021811483D
libRbt.so/2013.1/901 2013/11/27
 27 29  0  0  0  0  0  0  0  0999 V2000
  -13.6940   -1.9850   31.7906 N   0  0  0  0  0  0  0  0  0  0  0  0
  -14.0334   -3.0120   32.7718 C   0  0  2  0  0  0  0  0  0  0  0  0
  -12.7885   -3.6324   33.4004 C   0  0  0  0  0  0  0  0  0  0  0  0
  -11.6759   -3.4842   32.8898 O   0  0  0  0  0  0  0  0  0  0  0  0
  -14.9345   -4.0777   32.1552 C   0  0  0  0  0  0  0  0  0  0  0  0
  -15.6647   -4.9210   33.1890 C   0  0  0  0  0  0  0  0  0  0  0  0
  -16.7395   -6.1888   32.4723 S   0  0  2  0  0  0  0  0  0  0  0  0
  -17.8228   -5.1607   31.4496 C   0  0  0  0  0  0  0  0  0  0  0  0
  -17.8236   -6.5569   33.8786 C   0  0  0  0  0  0  0  0  0  0  0  0
  -17.6535   -8.0156   34.2784 C   0  0  1  0  0  0  0  0  0  0  0  0
  -16.3362   -8.1974   34.7403 O   0  0  0  0  0  0  0  0  0  0  0  0
  -18.5278   -8.4902   35.4239 C   0  0  1  0  0  0  0  0  0  0  0  0
  -19.6922   -9.1223   34.9408 O   0  0  0  0  0  0  0  0  0  0  0  0
  -17.6454   -9.4976   36.1327 C   0  0  1  0  0  0  0  0  0  0  0  0
  -18.1148  -10.7890   35.8329 O   0  0  0  0  0  0  0  0  0  0  0  0
  -16.2402   -9.3250   35.5722 C   0  0  2  0  0  0  0  0  0  0  0  0
  -12.8736   -4.2999   34.4314 O   0  0  0  0  0  0  0  0  0  0  0  0
  -15.6477   -8.7392   40.7761 N   0  0  0  0  0  0  0  0  0  0  0  0
  -16.7962   -9.0615   40.0804 C   0  0  0  0  0  0  0  0  0  0  0  0
  -16.7761   -9.1735   38.7030 N   0  0  0  0  0  0  0  0  0  0  0  0
  -15.6276   -8.9634   38.0169 C   0  0  0  0  0  0  0  0  0  0  0  0
  -14.4602   -8.6467   38.7006 C   0  0  0  0  0  0  0  0  0  0  0  0
  -14.4739   -8.5299   40.0851 C   0  0  0  0  0  0  0  0  0  0  0  0
  -13.3578   -8.2172   40.7390 N   0  0  0  0  0  0  0  0  0  0  0  0
  -13.4740   -8.4991   37.7900 N   0  0  0  0  0  0  0  0  0  0  0  0
  -13.9839   -8.7308   36.5576 C   0  0  0  0  0  0  0  0  0  0  0  0
  -15.3174   -9.0205   36.6786 N   0  0  0  0  0  0  0  0  0  0  0  0
  2  1  1  6  0  0  0
  2  3  1  0  0  0  0
  2  5  1  0  0  0  0
  3  4  1  0  0  0  0
  3 17  1  0  0  0  0
  5  6  1  0  0  0  0
  7  6  1  1  0  0  0
  7  8  1  0  0  0  0
  7  9  1  0  0  0  0
 10  9  1  1  0  0  0
 10 11  1  0  0  0  0
 10 12  1  0  0  0  0
 11 16  1  0  0  0  0
 12 13  1  6  0  0  0
 12 14  1  0  0  0  0
 14 15  1  6  0  0  0
 14 16  1  0  0  0  0
 16 27  1  1  0  0  0
 18 19  2  0  0  0  0
 18 23  1  0  0  0  0
 19 20  1  0  0  0  0
 20 21  2  0  0  0  0
 21 22  1  0  0  0  0
 21 27  1  0  0  0  0
 22 23  2  0  0  0  0
 22 25  1  0  0  0  0
 23 24  1  0  0  0  0
 25 26  2  0  0  0  0
 26 27  1  0  0  0  0
M  END
>  <CHROM.1>
-15.63889199,-162.24198201,179.93011461,-57.37346882,-118.21449743,64.68051481
116.21486945,-15.70970268,-7.11653955,35.44135376,-1.36272318,0.56859390
2.16556596

>  <Name>
ligand

>  <RI>
0

>  <Rbt.Current_Directory>
/home/itssahil/PROJECTS/Mol_Feturizer/New_Systems/rnas/3GX6

>  <Rbt.Executable>
rbdock ($Id: //depot/dev/client3/rdock/2013.1/src/exe/rbdock.cxx#4 $)

>  <Rbt.Library>
libRbt.so (2013.1, Build901 2013/11/27)

>  <Rbt.Parameter_File>
/export/apps/rDock/src/rDock_2013.1_src/data/scripts/dock_solv.prm

>  <Rbt.Receptor>
prm/pocket_docking_8.prm

>  <SCORE>
-25.9823

>  <SCORE.INTER>
-18.9026

>  <SCORE.INTER.CONST>
1

>  <SCORE.INTER.POLAR>
0

>  <SCORE.INTER.ROT>
7

>  <SCORE.INTER.SOLV>
17.983

>  <SCORE.INTER.VDW>
-26.8627

>  <SCORE.INTER.norm>
-0.700095

>  <SCORE.INTRA>
-7.07977

>  <SCORE.INTRA.DIHEDRAL>
-6.27776

>  <SCORE.INTRA.DIHEDRAL.0>
15.0182

>  <SCORE.INTRA.POLAR>
0

>  <SCORE.INTRA.POLAR.0>
0

>  <SCORE.INTRA.REPUL>
0

>  <SCORE.INTRA.REPUL.0>
0

>  <SCORE.INTRA.SOLV>
-1.76196

>  <SCORE.INTRA.SOLV.lig_0>
-47.9129

>  <SCORE.INTRA.VDW>
-3.05991

>  <SCORE.INTRA.VDW.0>
2.00851

>  <SCORE.INTRA.norm>
-0.262214

>  <SCORE.RESTR>
0

>  <SCORE.RESTR.CAVITY>
0

>  <SCORE.RESTR.norm>
0

>  <SCORE.SYSTEM>
0

>  <SCORE.SYSTEM.CONST>
0

>  <SCORE.SYSTEM.DIHEDRAL>
0

>  <SCORE.SYSTEM.SOLV>
0

>  <SCORE.SYSTEM.norm>
0

>  <SCORE.heavy>
27

>  <SCORE.norm>
-0.962309

>  <RMSD>
7.019

$$$$
ligand
 OpenBabel11021811483D
libRbt.so/2013.1/901 2013/11/27
 27 29  0  0  0  0  0  0  0  0999 V2000
  -21.3844  -10.4343   32.5687 N   0  0  0  0  0  0  0  0  0  0  0  0
  -20.9608   -9.1560   32.0034 C   0  0  2  0  0  0  0  0  0  0  0  0
  -19.7433   -9.3105   31.0958 C   0  0  0  0  0  0  0  0  0  0  0  0
  -19.5871  -10.3204   30.4059 O   0  0  0  0  0  0  0  0  0  0  0  0
  -20.7067   -8.1310   33.1046 C   0  0  0  0  0  0  0  0  0  0  0  0
  -20.0471   -8.7247   34.3397 C   0  0  0  0  0  0  0  0  0  0  0  0
  -18.3822   -9.3693   34.0419 S   0  0  2  0  0  0  0  0  0  0  0  0
  -17.8644   -9.7362   35.7371 C   0  0  0  0  0  0  0  0  0  0  0  0
  -17.4716   -7.8351   33.7169 C   0  0  0  0  0  0  0  0  0  0  0  0
  -16.0228   -8.1679   33.3902 C   0  0  1  0  0  0  0  0  0  0  0  0
  -16.0094   -9.0903   32.3269 O   0  0  0  0  0  0  0  0  0  0  0  0
  -15.1757   -7.0087   32.8999 C   0  0  1  0  0  0  0  0  0  0  0  0
  -14.4396   -6.4390   33.9592 O   0  0  0  0  0  0  0  0  0  0  0  0
  -14.2368   -7.6665   31.9091 C   0  0  1  0  0  0  0  0  0  0  0  0
  -12.9634   -7.7613   32.4984 O   0  0  0  0  0  0  0  0  0  0  0  0
  -14.7805   -9.0645   31.6469 C   0  0  2  0  0  0  0  0  0  0  0  0
  -18.8877   -8.4270   31.0398 O   0  0  0  0  0  0  0  0  0  0  0  0
  -12.7508  -10.1930   26.9160 N   0  0  0  0  0  0  0  0  0  0  0  0
  -12.1034  -10.1617   28.1354 C   0  0  0  0  0  0  0  0  0  0  0  0
  -12.7925   -9.8407   29.2896 N   0  0  0  0  0  0  0  0  0  0  0  0
  -14.1136   -9.5476   29.2378 C   0  0  0  0  0  0  0  0  0  0  0  0
  -14.7837   -9.5823   28.0211 C   0  0  0  0  0  0  0  0  0  0  0  0
  -14.0964   -9.9017   26.8564 C   0  0  0  0  0  0  0  0  0  0  0  0
  -14.7363   -9.9256   25.6897 N   0  0  0  0  0  0  0  0  0  0  0  0
  -16.0752   -9.2616   28.2502 N   0  0  0  0  0  0  0  0  0  0  0  0
  -16.2389   -9.0438   29.5763 C   0  0  0  0  0  0  0  0  0  0  0  0
  -15.0338   -9.2170   30.2044 N   0  0  0  0  0  0  0  0  0  0  0  0
  2  1  1  1  0  0  0
  2  3  1  0  0  0  0
  2  5  1  0  0  0  0
  3  4  1  0  0  0  0
  3 17  1  0  0  0  0
  5  6  1  0  0  0  0
  7  6  1  1  0  0  0
  7  8  1  0  0  0  0
  7  9  1  0  0  0  0
 10  9  1  6  0  0  0
 10 11  1  0  0  0  0
 10 12  1  0  0  0  0
 11 16  1  0  0  0  0
 12 13  1  1  0  0  0
 12 14  1  0  0  0  0
 14 15  1  1  0  0  0
 14 16  1  0  0  0  0
 16 27  1  6  0  0  0
 18 19  2  0  0  0  0
 18 23  1  0  0  0  0
 19 20  1  0  0  0  0
 20 21  2  0  0  0  0
 21 22  1  0  0  0  0
 21 27  1  0  0  0  0
 22 23  2  0  0  0  0
 22 25  1  0  0  0  0
 23 24  1  0  0  0  0
 25 26  2  0  0  0  0
 26 27  1  0  0  0  0
M  END
>  <CHROM.1>
34.31485591,38.45997770,64.24148235,171.89376790,-178.13459731,54.63244738
-163.90996660,-16.48425784,-9.00699630,31.29657508,2.40712956,0.19214409
1.25464669

>  <Name>
ligand

>  <RI>
0

>  <Rbt.Current_Directory>
/home/itssahil/PROJECTS/Mol_Feturizer/New_Systems/rnas/3GX6

>  <Rbt.Executable>
rbdock ($Id: //depot/dev/client3/rdock/2013.1/src/exe/rbdock.cxx#4 $)

>  <Rbt.Library>
libRbt.so (2013.1, Build901 2013/11/27)

>  <Rbt.Parameter_File>
/export/apps/rDock/src/rDock_2013.1_src/data/scripts/dock_solv.prm

>  <Rbt.Receptor>
prm/pocket_docking_7.prm

>  <SCORE>
-16.1714

>  <SCORE.INTER>
-6.51449

>  <SCORE.INTER.CONST>
1

>  <SCORE.INTER.POLAR>
0

>  <SCORE.INTER.ROT>
7

>  <SCORE.INTER.SOLV>
7.53127

>  <SCORE.INTER.VDW>
-15.1201

>  <SCORE.INTER.norm>
-0.241277

>  <SCORE.INTRA>
-9.65691

>  <SCORE.INTRA.DIHEDRAL>
-9.68019

>  <SCORE.INTRA.DIHEDRAL.0>
15.0182

>  <SCORE.INTRA.POLAR>
0

>  <SCORE.INTRA.POLAR.0>
0

>  <SCORE.INTRA.REPUL>
0

>  <SCORE.INTRA.REPUL.0>
0

>  <SCORE.INTRA.SOLV>
-0.0181922

>  <SCORE.INTRA.SOLV.lig_0>
-47.9129

>  <SCORE.INTRA.VDW>
-4.80772

>  <SCORE.INTRA.VDW.0>
2.00851

>  <SCORE.INTRA.norm>
-0.357663

>  <SCORE.RESTR>
0

>  <SCORE.RESTR.CAVITY>
0

>  <SCORE.RESTR.norm>
0

>  <SCORE.SYSTEM>
0

>  <SCORE.SYSTEM.CONST>
0

>  <SCORE.SYSTEM.DIHEDRAL>
0

>  <SCORE.SYSTEM.SOLV>
0

>  <SCORE.SYSTEM.norm>
0

>  <SCORE.heavy>
27

>  <SCORE.norm>
-0.598941

>  <RMSD>
7.025

$$$$
ligand
 OpenBabel11021811483D
libRbt.so/2013.1/901 2013/11/27
 27 29  0  0  0  0  0  0  0  0999 V2000
  -16.5423   -3.7379   32.6261 N   0  0  0  0  0  0  0  0  0  0  0  0
  -16.4326   -2.8817   31.4480 C   0  0  2  0  0  0  0  0  0  0  0  0
  -16.8843   -3.5992   30.1787 C   0  0  0  0  0  0  0  0  0  0  0  0
  -17.0382   -4.8225   30.1591 O   0  0  0  0  0  0  0  0  0  0  0  0
  -15.0158   -2.3344   31.3027 C   0  0  0  0  0  0  0  0  0  0  0  0
  -14.0180   -3.3695   30.8067 C   0  0  0  0  0  0  0  0  0  0  0  0
  -13.7236   -4.7206   31.9745 S   0  0  2  0  0  0  0  0  0  0  0  0
  -12.5265   -3.9394   33.0851 C   0  0  0  0  0  0  0  0  0  0  0  0
  -12.6455   -5.7974   30.9913 C   0  0  0  0  0  0  0  0  0  0  0  0
  -13.4910   -6.8437   30.2797 C   0  0  1  0  0  0  0  0  0  0  0  0
  -12.9213   -7.0886   29.0159 O   0  0  0  0  0  0  0  0  0  0  0  0
  -13.5469   -8.2071   30.9431 C   0  0  1  0  0  0  0  0  0  0  0  0
  -14.6993   -8.3297   31.7466 O   0  0  0  0  0  0  0  0  0  0  0  0
  -13.6307   -9.1571   29.7656 C   0  0  1  0  0  0  0  0  0  0  0  0
  -14.9473   -9.6437   29.6794 O   0  0  0  0  0  0  0  0  0  0  0  0
  -13.3068   -8.3446   28.5191 C   0  0  2  0  0  0  0  0  0  0  0  0
  -17.0995   -2.9669   29.1446 O   0  0  0  0  0  0  0  0  0  0  0  0
  -11.6724  -11.7705   24.8630 N   0  0  0  0  0  0  0  0  0  0  0  0
  -12.9695  -11.4665   25.2263 C   0  0  0  0  0  0  0  0  0  0  0  0
  -13.2229  -10.5362   26.2165 N   0  0  0  0  0  0  0  0  0  0  0  0
  -12.1992   -9.9133   26.8473 C   0  0  0  0  0  0  0  0  0  0  0  0
  -10.8877  -10.2001   26.4892 C   0  0  0  0  0  0  0  0  0  0  0  0
  -10.6257  -11.1363   25.4964 C   0  0  0  0  0  0  0  0  0  0  0  0
   -9.3691  -11.4178   25.1602 N   0  0  0  0  0  0  0  0  0  0  0  0
  -10.0738   -9.4448   27.2578 N   0  0  0  0  0  0  0  0  0  0  0  0
  -10.8360   -8.6804   28.0748 C   0  0  0  0  0  0  0  0  0  0  0  0
  -12.1559   -8.9569   27.8341 N   0  0  0  0  0  0  0  0  0  0  0  0
  2  1  1  1  0  0  0
  2  3  1  0  0  0  0
  2  5  1  0  0  0  0
  3  4  1  0  0  0  0
  3 17  1  0  0  0  0
  5  6  1  0  0  0  0
  7  6  1  6  0  0  0
  7  8  1  0  0  0  0
  7  9  1  0  0  0  0
 10  9  1  1  0  0  0
 10 11  1  0  0  0  0
 10 12  1  0  0  0  0
 11 16  1  0  0  0  0
 12 13  1  1  0  0  0
 12 14  1  0  0  0  0
 14 15  1  6  0  0  0
 14 16  1  0  0  0  0
 16 27  1  1  0  0  0
 18 19  2  0  0  0  0
 18 23  1  0  0  0  0
 19 20  1  0  0  0  0
 20 21  2  0  0  0  0
 21 22  1  0  0  0  0
 21 27  1  0  0  0  0
 22 23  2  0  0  0  0
 22 25  1  0  0  0  0
 23 24  1  0  0  0  0
 25 26  2  0  0  0  0
 26 27  1  0  0  0  0
M  END
>  <CHROM.1>
-14.05366351,74.58542122,-66.23957128,-81.48187511,-93.59832274,144.20366508
-155.80228672,-13.50879836,-7.17733999,29.29402015,2.02642971,-0.33031151
0.80190498

>  <Name>
ligand

>  <RI>
0

>  <Rbt.Current_Directory>
/home/itssahil/PROJECTS/Mol_Feturizer/New_Systems/rnas/3GX6

>  <Rbt.Executable>
rbdock ($Id: //depot/dev/client3/rdock/2013.1/src/exe/rbdock.cxx#4 $)

>  <Rbt.Library>
libRbt.so (2013.1, Build901 2013/11/27)

>  <Rbt.Parameter_File>
/export/apps/rDock/src/rDock_2013.1_src/data/scripts/dock_solv.prm

>  <Rbt.Receptor>
prm/pocket_docking_8.prm

>  <SCORE>
-17.6489

>  <SCORE.INTER>
-10.3187

>  <SCORE.INTER.CONST>
1

>  <SCORE.INTER.POLAR>
0

>  <SCORE.INTER.ROT>
7

>  <SCORE.INTER.SOLV>
13.8761

>  <SCORE.INTER.VDW>
-19.7712

>  <SCORE.INTER.norm>
-0.382175

>  <SCORE.INTRA>
-7.33013

>  <SCORE.INTRA.DIHEDRAL>
-5.42624

>  <SCORE.INTRA.DIHEDRAL.0>
15.0182

>  <SCORE.INTRA.POLAR>
0

>  <SCORE.INTRA.POLAR.0>
0

>  <SCORE.INTRA.REPUL>
0

>  <SCORE.INTRA.REPUL.0>
0

>  <SCORE.INTRA.SOLV>
0.466339

>  <SCORE.INTRA.SOLV.lig_0>
-47.9129

>  <SCORE.INTRA.VDW>
-4.85018

>  <SCORE.INTRA.VDW.0>
2.00851

>  <SCORE.INTRA.norm>
-0.271486

>  <SCORE.RESTR>
0

>  <SCORE.RESTR.CAVITY>
0

>  <SCORE.RESTR.norm>
0

>  <SCORE.SYSTEM>
0

>  <SCORE.SYSTEM.CONST>
0

>  <SCORE.SYSTEM.DIHEDRAL>
0

>  <SCORE.SYSTEM.SOLV>
0

>  <SCORE.SYSTEM.norm>
0

>  <SCORE.heavy>
27

>  <SCORE.norm>
-0.653661

>  <RMSD>
7.065

$$$$
ligand
 OpenBabel11021811483D
libRbt.so/2013.1/901 2013/11/27
 27 29  0  0  0  0  0  0  0  0999 V2000
  -16.7541   -3.2295   29.7128 N   0  0  0  0  0  0  0  0  0  0  0  0
  -15.9046   -3.2178   30.9007 C   0  0  2  0  0  0  0  0  0  0  0  0
  -16.1566   -1.9877   31.7686 C   0  0  0  0  0  0  0  0  0  0  0  0
  -15.2207   -1.3450   32.2496 O   0  0  0  0  0  0  0  0  0  0  0  0
  -14.4323   -3.3361   30.5184 C   0  0  0  0  0  0  0  0  0  0  0  0
  -13.5973   -4.0692   31.5568 C   0  0  0  0  0  0  0  0  0  0  0  0
  -13.7523   -5.8711   31.4812 S   0  0  2  0  0  0  0  0  0  0  0  0
  -12.5530   -6.3570   32.7470 C   0  0  0  0  0  0  0  0  0  0  0  0
  -12.8309   -6.2329   29.9618 C   0  0  0  0  0  0  0  0  0  0  0  0
  -12.7418   -7.7404   29.7728 C   0  0  1  0  0  0  0  0  0  0  0  0
  -14.0444   -8.2413   29.5885 O   0  0  0  0  0  0  0  0  0  0  0  0
  -11.9777   -8.2060   28.5475 C   0  0  1  0  0  0  0  0  0  0  0  0
  -10.6427   -8.5203   28.8755 O   0  0  0  0  0  0  0  0  0  0  0  0
  -12.7215   -9.4608   28.1372 C   0  0  1  0  0  0  0  0  0  0  0  0
  -11.9420  -10.5762   28.4923 O   0  0  0  0  0  0  0  0  0  0  0  0
  -14.0240   -9.4795   28.9257 C   0  0  2  0  0  0  0  0  0  0  0  0
  -17.3052   -1.6158   32.0097 O   0  0  0  0  0  0  0  0  0  0  0  0
  -15.5647  -10.1862   23.9355 N   0  0  0  0  0  0  0  0  0  0  0  0
  -14.2818  -10.2267   24.4448 C   0  0  0  0  0  0  0  0  0  0  0  0
  -14.0525  -10.0148   25.7912 N   0  0  0  0  0  0  0  0  0  0  0  0
  -15.0858   -9.7595   26.6286 C   0  0  0  0  0  0  0  0  0  0  0  0
  -16.3843   -9.7233   26.1356 C   0  0  0  0  0  0  0  0  0  0  0  0
  -16.6217   -9.9329   24.7826 C   0  0  0  0  0  0  0  0  0  0  0  0
  -17.8646   -9.8888   24.3089 N   0  0  0  0  0  0  0  0  0  0  0  0
  -17.2127   -9.4607   27.1692 N   0  0  0  0  0  0  0  0  0  0  0  0
  -16.4743   -9.3483   28.2983 C   0  0  0  0  0  0  0  0  0  0  0  0
  -15.1538   -9.5310   27.9826 N   0  0  0  0  0  0  0  0  0  0  0  0
  2  1  1  6  0  0  0
  2  3  1  0  0  0  0
  2  5  1  0  0  0  0
  3  4  1  0  0  0  0
  3 17  1  0  0  0  0
  5  6  1  0  0  0  0
  7  6  1  1  0  0  0
  7  8  1  0  0  0  0
  7  9  1  0  0  0  0
 10  9  1  6  0  0  0
 10 11  1  0  0  0  0
 10 12  1  0  0  0  0
 11 16  1  0  0  0  0
 12 13  1  1  0  0  0
 12 14  1  0  0  0  0
 14 15  1  1  0  0  0
 14 16  1  0  0  0  0
 16 27  1  6  0  0  0
 18 19  2  0  0  0  0
 18 23  1  0  0  0  0
 19 20  1  0  0  0  0
 20 21  2  0  0  0  0
 21 22  1  0  0  0  0
 21 27  1  0  0  0  0
 22 23  2  0  0  0  0
 22 25  1  0  0  0  0
 23 24  1  0  0  0  0
 25 26  2  0  0  0  0
 26 27  1  0  0  0  0
M  END
>  <CHROM.1>
-135.88284079,-148.25973074,79.35204758,176.03669002,175.32324529,63.91790991
123.56521683,-14.55138756,-7.17504734,28.91744041,1.57567496,-0.50395710
0.68774799

>  <Name>
ligand

>  <RI>
0

>  <Rbt.Current_Directory>
/home/itssahil/PROJECTS/Mol_Feturizer/New_Systems/rnas/3GX6

>  <Rbt.Executable>
rbdock ($Id: //depot/dev/client3/rdock/2013.1/src/exe/rbdock.cxx#4 $)

>  <Rbt.Library>
libRbt.so (2013.1, Build901 2013/11/27)

>  <Rbt.Parameter_File>
/export/apps/rDock/src/rDock_2013.1_src/data/scripts/dock_solv.prm

>  <Rbt.Receptor>
prm/pocket_docking_7.prm

>  <SCORE>
-16.3316

>  <SCORE.INTER>
-8.77798

>  <SCORE.INTER.CONST>
1

>  <SCORE.INTER.POLAR>
0

>  <SCORE.INTER.ROT>
7

>  <SCORE.INTER.SOLV>
19.1296

>  <SCORE.INTER.VDW>
-20.4952

>  <SCORE.INTER.norm>
-0.32511

>  <SCORE.INTRA>
-7.55361

>  <SCORE.INTRA.DIHEDRAL>
-7.31394

>  <SCORE.INTRA.DIHEDRAL.0>
15.0182

>  <SCORE.INTRA.POLAR>
0

>  <SCORE.INTRA.POLAR.0>
0

>  <SCORE.INTRA.REPUL>
0

>  <SCORE.INTRA.REPUL.0>
0

>  <SCORE.INTRA.SOLV>
-1.4923

>  <SCORE.INTRA.SOLV.lig_0>
-47.9129

>  <SCORE.INTRA.VDW>
-3.15049

>  <SCORE.INTRA.VDW.0>
2.00851

>  <SCORE.INTRA.norm>
-0.279763

>  <SCORE.RESTR>
0

>  <SCORE.RESTR.CAVITY>
0

>  <SCORE.RESTR.norm>
0

>  <SCORE.SYSTEM>
0

>  <SCORE.SYSTEM.CONST>
0

>  <SCORE.SYSTEM.DIHEDRAL>
0

>  <SCORE.SYSTEM.SOLV>
0

>  <SCORE.SYSTEM.norm>
0

>  <SCORE.heavy>
27

>  <SCORE.norm>
-0.604874

>  <RMSD>
7.080

$$$$
ligand
 OpenBabel11021811483D
libRbt.so/2013.1/901 2013/11/27
 27 29  0  0  0  0  0  0  0  0999 V2000
  -14.6265   -7.5669   33.4016 N   0  0  0  0  0  0  0  0  0  0  0  0
  -13.3590   -7.6537   34.1219 C   0  0  2  0  0  0  0  0  0  0  0  0
  -13.5658   -7.7100   35.6332 C   0  0  0  0  0  0  0  0  0  0  0  0
  -12.8344   -7.0796   36.4000 O   0  0  0  0  0  0  0  0  0  0  0  0
  -12.4305   -6.5080   33.7303 C   0  0  0  0  0  0  0  0  0  0  0  0
  -13.0707   -5.1364   33.8781 C   0  0  0  0  0  0  0  0  0  0  0  0
  -13.1939   -4.2151   32.3249 S   0  0  2  0  0  0  0  0  0  0  0  0
  -13.5662   -2.5592   32.9543 C   0  0  0  0  0  0  0  0  0  0  0  0
  -14.8252   -4.7464   31.7374 C   0  0  0  0  0  0  0  0  0  0  0  0
  -15.0110   -4.3012   30.2939 C   0  0  1  0  0  0  0  0  0  0  0  0
  -13.9982   -4.8914   29.5145 O   0  0  0  0  0  0  0  0  0  0  0  0
  -16.3045   -4.7378   29.6319 C   0  0  1  0  0  0  0  0  0  0  0  0
  -17.2764   -3.7185   29.7038 O   0  0  0  0  0  0  0  0  0  0  0  0
  -15.8923   -4.9624   28.1912 C   0  0  1  0  0  0  0  0  0  0  0  0
  -16.3817   -3.8954   27.4169 O   0  0  0  0  0  0  0  0  0  0  0  0
  -14.3699   -4.9552   28.1615 C   0  0  2  0  0  0  0  0  0  0  0  0
  -14.4681   -8.3937   36.1169 O   0  0  0  0  0  0  0  0  0  0  0  0
  -13.8680  -10.1554   28.8550 N   0  0  0  0  0  0  0  0  0  0  0  0
  -14.4303   -9.2318   29.7139 C   0  0  0  0  0  0  0  0  0  0  0  0
  -14.4786   -7.8931   29.3735 N   0  0  0  0  0  0  0  0  0  0  0  0
  -13.9694   -7.4694   28.1924 C   0  0  0  0  0  0  0  0  0  0  0  0
  -13.4074   -8.3855   27.3117 C   0  0  0  0  0  0  0  0  0  0  0  0
  -13.3532   -9.7325   27.6488 C   0  0  0  0  0  0  0  0  0  0  0  0
  -12.8062  -10.6084   26.8093 N   0  0  0  0  0  0  0  0  0  0  0  0
  -12.9890   -7.7084   26.2208 N   0  0  0  0  0  0  0  0  0  0  0  0
  -13.2874   -6.3980   26.3834 C   0  0  0  0  0  0  0  0  0  0  0  0
  -13.8959   -6.2311   27.5994 N   0  0  0  0  0  0  0  0  0  0  0  0
  2  1  1  6  0  0  0
  2  3  1  0  0  0  0
  2  5  1  0  0  0  0
  3  4  1  0  0  0  0
  3 17  1  0  0  0  0
  5  6  1  0  0  0  0
  7  6  1  1  0  0  0
  7  8  1  0  0  0  0
  7  9  1  0  0  0  0
 10  9  1  1  0  0  0
 10 11  1  0  0  0  0
 10 12  1  0  0  0  0
 11 16  1  0  0  0  0
 12 13  1  6  0  0  0
 12 14  1  0  0  0  0
 14 15  1  6  0  0  0
 14 16  1  0  0  0  0
 16 27  1  1  0  0  0
 18 19  2  0  0  0  0
 18 23  1  0  0  0  0
 19 20  1  0  0  0  0
 20 21  2  0  0  0  0
 21 22  1  0  0  0  0
 21 27  1  0  0  0  0
 22 23  2  0  0  0  0
 22 25  1  0  0  0  0
 23 24  1  0  0  0  0
 25 26  2  0  0  0  0
 26 27  1  0  0  0  0
M  END
>  <CHROM.1>
-138.87565703,53.31583600,-118.50901143,-165.82206456,-168.60950754,59.89544484
43.18669912,-14.11578939,-6.37310245,30.59382730,-1.29651142,1.24320289,-1.95408043

>  <Name>
ligand

>  <RI>
0

>  <Rbt.Current_Directory>
/home/itssahil/PROJECTS/Mol_Feturizer/New_Systems/rnas/3GX6

>  <Rbt.Executable>
rbdock ($Id: //depot/dev/client3/rdock/2013.1/src/exe/rbdock.cxx#4 $)

>  <Rbt.Library>
libRbt.so (2013.1, Build901 2013/11/27)

>  <Rbt.Parameter_File>
/export/apps/rDock/src/rDock_2013.1_src/data/scripts/dock_solv.prm

>  <Rbt.Receptor>
prm/pocket_docking_2.prm

>  <SCORE>
-14.2686

>  <SCORE.INTER>
-9.42899

>  <SCORE.INTER.CONST>
1

>  <SCORE.INTER.POLAR>
0

>  <SCORE.INTER.ROT>
7

>  <SCORE.INTER.SOLV>
11.5196

>  <SCORE.INTER.VDW>
-18.3925

>  <SCORE.INTER.norm>
-0.349222

>  <SCORE.INTRA>
-6.24777

>  <SCORE.INTRA.DIHEDRAL>
-3.73069

>  <SCORE.INTRA.DIHEDRAL.0>
15.0182

>  <SCORE.INTRA.POLAR>
0

>  <SCORE.INTRA.POLAR.0>
0

>  <SCORE.INTRA.REPUL>
0

>  <SCORE.INTRA.REPUL.0>
0

>  <SCORE.INTRA.SOLV>
0.573145

>  <SCORE.INTRA.SOLV.lig_0>
-47.9129

>  <SCORE.INTRA.VDW>
-4.669

>  <SCORE.INTRA.VDW.0>
2.00851

>  <SCORE.INTRA.norm>
-0.231399

>  <SCORE.RESTR>
1.40813

>  <SCORE.RESTR.CAVITY>
1.40813

>  <SCORE.RESTR.norm>
0.0521529

>  <SCORE.SYSTEM>
0

>  <SCORE.SYSTEM.CONST>
0

>  <SCORE.SYSTEM.DIHEDRAL>
0

>  <SCORE.SYSTEM.SOLV>
0

>  <SCORE.SYSTEM.norm>
0

>  <SCORE.heavy>
27

>  <SCORE.norm>
-0.528468

>  <RMSD>
7.082

$$$$
ligand
 OpenBabel11021811483D
libRbt.so/2013.1/901 2013/11/27
 27 29  0  0  0  0  0  0  0  0999 V2000
  -13.2576   -9.0010   34.0474 N   0  0  0  0  0  0  0  0  0  0  0  0
  -12.9672   -7.9377   35.0055 C   0  0  2  0  0  0  0  0  0  0  0  0
  -13.7744   -8.0942   36.2915 C   0  0  0  0  0  0  0  0  0  0  0  0
  -14.9203   -8.5489   36.2728 O   0  0  0  0  0  0  0  0  0  0  0  0
  -13.1836   -6.5644   34.3770 C   0  0  0  0  0  0  0  0  0  0  0  0
  -12.2614   -6.2886   33.1995 C   0  0  0  0  0  0  0  0  0  0  0  0
  -12.7873   -4.8969   32.1684 S   0  0  2  0  0  0  0  0  0  0  0  0
  -12.9137   -3.5927   33.4172 C   0  0  0  0  0  0  0  0  0  0  0  0
  -14.5341   -5.3050   31.9033 C   0  0  0  0  0  0  0  0  0  0  0  0
  -15.1116   -4.3833   30.8387 C   0  0  1  0  0  0  0  0  0  0  0  0
  -14.5512   -4.7361   29.5964 O   0  0  0  0  0  0  0  0  0  0  0  0
  -16.6100   -4.4843   30.6232 C   0  0  1  0  0  0  0  0  0  0  0  0
  -17.2924   -3.4906   31.3550 O   0  0  0  0  0  0  0  0  0  0  0  0
  -16.7595   -4.2301   29.1369 C   0  0  1  0  0  0  0  0  0  0  0  0
  -17.2746   -2.9340   28.9568 O   0  0  0  0  0  0  0  0  0  0  0  0
  -15.3641   -4.3107   28.5328 C   0  0  2  0  0  0  0  0  0  0  0  0
  -13.2953   -7.7625   37.3760 O   0  0  0  0  0  0  0  0  0  0  0  0
  -16.6769   -9.2382   27.2018 N   0  0  0  0  0  0  0  0  0  0  0  0
  -16.8908   -8.5950   28.4050 C   0  0  0  0  0  0  0  0  0  0  0  0
  -16.4764   -7.2892   28.5879 N   0  0  0  0  0  0  0  0  0  0  0  0
  -15.8498   -6.6246   27.5882 C   0  0  0  0  0  0  0  0  0  0  0  0
  -15.6336   -7.2527   26.3678 C   0  0  0  0  0  0  0  0  0  0  0  0
  -16.0452   -8.5662   26.1779 C   0  0  0  0  0  0  0  0  0  0  0  0
  -15.8294   -9.1708   25.0121 N   0  0  0  0  0  0  0  0  0  0  0  0
  -15.0056   -6.3752   25.5558 N   0  0  0  0  0  0  0  0  0  0  0  0
  -14.8371   -5.2102   26.2246 C   0  0  0  0  0  0  0  0  0  0  0  0
  -15.3547   -5.3460   27.4857 N   0  0  0  0  0  0  0  0  0  0  0  0
  2  1  1  6  0  0  0
  2  3  1  0  0  0  0
  2  5  1  0  0  0  0
  3  4  1  0  0  0  0
  3 17  1  0  0  0  0
  5  6  1  0  0  0  0
  7  6  1  1  0  0  0
  7  8  1  0  0  0  0
  7  9  1  0  0  0  0
 10  9  1  1  0  0  0
 10 11  1  0  0  0  0
 10 12  1  0  0  0  0
 11 16  1  0  0  0  0
 12 13  1  1  0  0  0
 12 14  1  0  0  0  0
 14 15  1  1  0  0  0
 14 16  1  0  0  0  0
 16 27  1  6  0  0  0
 18 19  2  0  0  0  0
 18 23  1  0  0  0  0
 19 20  1  0  0  0  0
 20 21  2  0  0  0  0
 21 22  1  0  0  0  0
 21 27  1  0  0  0  0
 22 23  2  0  0  0  0
 22 25  1  0  0  0  0
 23 24  1  0  0  0  0
 25 26  2  0  0  0  0
 26 27  1  0  0  0  0
M  END
>  <CHROM.1>
-34.35485723,-62.45493437,164.11482746,54.75129163,-169.68183577,70.27158291
64.85311294,-14.90017702,-6.19413824,30.63423372,-0.13062022,1.26575758,-2.95662286

>  <Name>
ligand

>  <RI>
0

>  <Rbt.Current_Directory>
/home/itssahil/PROJECTS/Mol_Feturizer/New_Systems/rnas/3GX6

>  <Rbt.Executable>
rbdock ($Id: //depot/dev/client3/rdock/2013.1/src/exe/rbdock.cxx#4 $)

>  <Rbt.Library>
libRbt.so (2013.1, Build901 2013/11/27)

>  <Rbt.Parameter_File>
/export/apps/rDock/src/rDock_2013.1_src/data/scripts/dock_solv.prm

>  <Rbt.Receptor>
prm/pocket_docking_7.prm

>  <SCORE>
-21.0976

>  <SCORE.INTER>
-12.2203

>  <SCORE.INTER.CONST>
1

>  <SCORE.INTER.POLAR>
0

>  <SCORE.INTER.ROT>
7

>  <SCORE.INTER.SOLV>
15.558

>  <SCORE.INTER.VDW>
-21.5995

>  <SCORE.INTER.norm>
-0.452603

>  <SCORE.INTRA>
-8.87731

>  <SCORE.INTRA.DIHEDRAL>
-9.54533

>  <SCORE.INTRA.DIHEDRAL.0>
15.0182

>  <SCORE.INTRA.POLAR>
0

>  <SCORE.INTRA.POLAR.0>
0

>  <SCORE.INTRA.REPUL>
0

>  <SCORE.INTRA.REPUL.0>
0

>  <SCORE.INTRA.SOLV>
-0.959108

>  <SCORE.INTRA.SOLV.lig_0>
-47.9129

>  <SCORE.INTRA.VDW>
-3.62509

>  <SCORE.INTRA.VDW.0>
2.00851

>  <SCORE.INTRA.norm>
-0.328789

>  <SCORE.RESTR>
0

>  <SCORE.RESTR.CAVITY>
0

>  <SCORE.RESTR.norm>
0

>  <SCORE.SYSTEM>
0

>  <SCORE.SYSTEM.CONST>
0

>  <SCORE.SYSTEM.DIHEDRAL>
0

>  <SCORE.SYSTEM.SOLV>
0

>  <SCORE.SYSTEM.norm>
0

>  <SCORE.heavy>
27

>  <SCORE.norm>
-0.781392

>  <RMSD>
7.082

$$$$
ligand
 OpenBabel11021811483D
libRbt.so/2013.1/901 2013/11/27
 27 29  0  0  0  0  0  0  0  0999 V2000
  -16.4499   -7.3311   34.2080 N   0  0  0  0  0  0  0  0  0  0  0  0
  -17.2161   -6.1807   33.7364 C   0  0  2  0  0  0  0  0  0  0  0  0
  -18.2972   -6.5871   32.7384 C   0  0  0  0  0  0  0  0  0  0  0  0
  -19.4494   -6.8232   33.1085 O   0  0  0  0  0  0  0  0  0  0  0  0
  -16.2939   -5.1142   33.1532 C   0  0  0  0  0  0  0  0  0  0  0  0
  -17.0223   -3.8393   32.7568 C   0  0  0  0  0  0  0  0  0  0  0  0
  -15.9730   -2.6287   31.9144 S   0  0  2  0  0  0  0  0  0  0  0  0
  -17.1606   -1.2868   31.6585 C   0  0  0  0  0  0  0  0  0  0  0  0
  -15.8851   -3.3467   30.2515 C   0  0  0  0  0  0  0  0  0  0  0  0
  -14.9047   -4.5108   30.2558 C   0  0  1  0  0  0  0  0  0  0  0  0
  -15.3200   -5.4430   29.2861 O   0  0  0  0  0  0  0  0  0  0  0  0
  -13.4773   -4.1705   29.8704 C   0  0  1  0  0  0  0  0  0  0  0  0
  -12.6840   -3.9541   31.0161 O   0  0  0  0  0  0  0  0  0  0  0  0
  -13.0129   -5.4167   29.1443 C   0  0  1  0  0  0  0  0  0  0  0  0
  -12.1397   -6.1247   29.9893 O   0  0  0  0  0  0  0  0  0  0  0  0
  -14.2528   -6.2585   28.8749 C   0  0  2  0  0  0  0  0  0  0  0  0
  -18.0357   -6.6922   31.5399 O   0  0  0  0  0  0  0  0  0  0  0  0
  -14.3383   -9.8117   24.9835 N   0  0  0  0  0  0  0  0  0  0  0  0
  -14.2007  -10.0360   26.3392 C   0  0  0  0  0  0  0  0  0  0  0  0
  -14.1964   -8.9794   27.2301 N   0  0  0  0  0  0  0  0  0  0  0  0
  -14.3228   -7.7075   26.7826 C   0  0  0  0  0  0  0  0  0  0  0  0
  -14.4709   -7.4631   25.4229 C   0  0  0  0  0  0  0  0  0  0  0  0
  -14.4734   -8.5205   24.5214 C   0  0  0  0  0  0  0  0  0  0  0  0
  -14.6057   -8.2854   23.2181 N   0  0  0  0  0  0  0  0  0  0  0  0
  -14.5832   -6.1283   25.2518 N   0  0  0  0  0  0  0  0  0  0  0  0
  -14.5274   -5.5298   26.4648 C   0  0  0  0  0  0  0  0  0  0  0  0
  -14.3667   -6.4930   27.4256 N   0  0  0  0  0  0  0  0  0  0  0  0
  2  1  1  6  0  0  0
  2  3  1  0  0  0  0
  2  5  1  0  0  0  0
  3  4  1  0  0  0  0
  3 17  1  0  0  0  0
  5  6  1  0  0  0  0
  7  6  1  1  0  0  0
  7  8  1  0  0  0  0
  7  9  1  0  0  0  0
 10  9  1  6  0  0  0
 10 11  1  0  0  0  0
 10 12  1  0  0  0  0
 11 16  1  0  0  0  0
 12 13  1  1  0  0  0
 12 14  1  0  0  0  0
 14 15  1  1  0  0  0
 14 16  1  0  0  0  0
 16 27  1  6  0  0  0
 18 19  2  0  0  0  0
 18 23  1  0  0  0  0
 19 20  1  0  0  0  0
 20 21  2  0  0  0  0
 21 22  1  0  0  0  0
 21 27  1  0  0  0  0
 22 23  2  0  0  0  0
 22 25  1  0  0  0  0
 23 24  1  0  0  0  0
 25 26  2  0  0  0  0
 26 27  1  0  0  0  0
M  END
>  <CHROM.1>
93.60188569,-174.92374614,-174.28076744,-178.61694042,-77.37371117,149.95679945
-129.39459951,-15.30720206,-5.88045798,29.52771068,2.08006905,0.87328770
0.69690521

>  <Name>
ligand

>  <RI>
0

>  <Rbt.Current_Directory>
/home/itssahil/PROJECTS/Mol_Feturizer/New_Systems/rnas/3GX6

>  <Rbt.Executable>
rbdock ($Id: //depot/dev/client3/rdock/2013.1/src/exe/rbdock.cxx#4 $)

>  <Rbt.Library>
libRbt.so (2013.1, Build901 2013/11/27)

>  <Rbt.Parameter_File>
/export/apps/rDock/src/rDock_2013.1_src/data/scripts/dock_solv.prm

>  <Rbt.Receptor>
prm/pocket_docking_7.prm

>  <SCORE>
-21.045

>  <SCORE.INTER>
-11.1869

>  <SCORE.INTER.CONST>
1

>  <SCORE.INTER.POLAR>
0

>  <SCORE.INTER.ROT>
7

>  <SCORE.INTER.SOLV>
11.6357

>  <SCORE.INTER.VDW>
-19.6032

>  <SCORE.INTER.norm>
-0.41433

>  <SCORE.INTRA>
-9.85808

>  <SCORE.INTRA.DIHEDRAL>
-8.53687

>  <SCORE.INTRA.DIHEDRAL.0>
15.0182

>  <SCORE.INTRA.POLAR>
0

>  <SCORE.INTRA.POLAR.0>
0

>  <SCORE.INTRA.REPUL>
0

>  <SCORE.INTRA.REPUL.0>
0

>  <SCORE.INTRA.SOLV>
-1.7128

>  <SCORE.INTRA.SOLV.lig_0>
-47.9129

>  <SCORE.INTRA.VDW>
-4.73324

>  <SCORE.INTRA.VDW.0>
2.00851

>  <SCORE.INTRA.norm>
-0.365114

>  <SCORE.RESTR>
0

>  <SCORE.RESTR.CAVITY>
0

>  <SCORE.RESTR.norm>
0

>  <SCORE.SYSTEM>
0

>  <SCORE.SYSTEM.CONST>
0

>  <SCORE.SYSTEM.DIHEDRAL>
0

>  <SCORE.SYSTEM.SOLV>
0

>  <SCORE.SYSTEM.norm>
0

>  <SCORE.heavy>
27

>  <SCORE.norm>
-0.779444

>  <RMSD>
7.097

$$$$
ligand
 OpenBabel11021811483D
libRbt.so/2013.1/901 2013/11/27
 27 29  0  0  0  0  0  0  0  0999 V2000
  -14.2577   -1.4542   31.5623 N   0  0  0  0  0  0  0  0  0  0  0  0
  -15.5766   -1.5007   30.9367 C   0  0  2  0  0  0  0  0  0  0  0  0
  -16.6014   -0.6721   31.7069 C   0  0  0  0  0  0  0  0  0  0  0  0
  -17.7596   -1.0685   31.8545 O   0  0  0  0  0  0  0  0  0  0  0  0
  -16.0458   -2.9419   30.7615 C   0  0  0  0  0  0  0  0  0  0  0  0
  -16.2056   -3.6876   32.0774 C   0  0  0  0  0  0  0  0  0  0  0  0
  -16.4296   -5.4733   31.8841 S   0  0  2  0  0  0  0  0  0  0  0  0
  -18.0702   -5.5173   31.1203 C   0  0  0  0  0  0  0  0  0  0  0  0
  -16.8182   -5.9584   33.5877 C   0  0  0  0  0  0  0  0  0  0  0  0
  -17.2035   -7.4304   33.6176 C   0  0  1  0  0  0  0  0  0  0  0  0
  -16.4641   -8.0611   34.6360 O   0  0  0  0  0  0  0  0  0  0  0  0
  -18.6519   -7.7248   33.9602 C   0  0  1  0  0  0  0  0  0  0  0  0
  -19.4191   -7.9083   32.7912 O   0  0  0  0  0  0  0  0  0  0  0  0
  -18.5630   -9.0250   34.7331 C   0  0  1  0  0  0  0  0  0  0  0  0
  -19.0166  -10.0670   33.9047 O   0  0  0  0  0  0  0  0  0  0  0  0
  -17.0925   -9.2423   35.0636 C   0  0  2  0  0  0  0  0  0  0  0  0
  -16.2901    0.4154   32.1928 O   0  0  0  0  0  0  0  0  0  0  0  0
  -13.8834   -8.7289   39.2124 N   0  0  0  0  0  0  0  0  0  0  0  0
  -13.5994   -8.4941   37.8815 C   0  0  0  0  0  0  0  0  0  0  0  0
  -14.5663   -8.6828   36.9121 N   0  0  0  0  0  0  0  0  0  0  0  0
  -15.8058   -9.1059   37.2564 C   0  0  0  0  0  0  0  0  0  0  0  0
  -16.1124   -9.3390   38.5914 C   0  0  0  0  0  0  0  0  0  0  0  0
  -15.1443   -9.1538   39.5708 C   0  0  0  0  0  0  0  0  0  0  0  0
  -15.4354   -9.3863   40.8485 N   0  0  0  0  0  0  0  0  0  0  0  0
  -17.4004   -9.7395   38.6568 N   0  0  0  0  0  0  0  0  0  0  0  0
  -17.9156   -9.7478   37.4049 C   0  0  0  0  0  0  0  0  0  0  0  0
  -16.9419   -9.3575   36.5239 N   0  0  0  0  0  0  0  0  0  0  0  0
  2  1  1  1  0  0  0
  2  3  1  0  0  0  0
  2  5  1  0  0  0  0
  3  4  1  0  0  0  0
  3 17  1  0  0  0  0
  5  6  1  0  0  0  0
  7  6  1  1  0  0  0
  7  8  1  0  0  0  0
  7  9  1  0  0  0  0
 10  9  1  1  0  0  0
 10 11  1  0  0  0  0
 10 12  1  0  0  0  0
 11 16  1  0  0  0  0
 12 13  1  6  0  0  0
 12 14  1  0  0  0  0
 14 15  1  6  0  0  0
 14 16  1  0  0  0  0
 16 27  1  1  0  0  0
 18 19  2  0  0  0  0
 18 23  1  0  0  0  0
 19 20  1  0  0  0  0
 20 21  2  0  0  0  0
 21 22  1  0  0  0  0
 21 27  1  0  0  0  0
 22 23  2  0  0  0  0
 22 25  1  0  0  0  0
 23 24  1  0  0  0  0
 25 26  2  0  0  0  0
 26 27  1  0  0  0  0
M  END
>  <CHROM.1>
-140.66888278,62.08988284,-168.20158892,-68.39429720,173.56757792,130.59177689
-43.08039988,-16.60523629,-6.50284988,34.54326703,-1.61282300,0.82524451
2.44438092

>  <Name>
ligand

>  <RI>
0

>  <Rbt.Current_Directory>
/home/itssahil/PROJECTS/Mol_Feturizer/New_Systems/rnas/3GX6

>  <Rbt.Executable>
rbdock ($Id: //depot/dev/client3/rdock/2013.1/src/exe/rbdock.cxx#4 $)

>  <Rbt.Library>
libRbt.so (2013.1, Build901 2013/11/27)

>  <Rbt.Parameter_File>
/export/apps/rDock/src/rDock_2013.1_src/data/scripts/dock_solv.prm

>  <Rbt.Receptor>
prm/pocket_docking_7.prm

>  <SCORE>
-26.2818

>  <SCORE.INTER>
-19.7033

>  <SCORE.INTER.CONST>
1

>  <SCORE.INTER.POLAR>
0

>  <SCORE.INTER.ROT>
7

>  <SCORE.INTER.SOLV>
15.1255

>  <SCORE.INTER.VDW>
-26.4441

>  <SCORE.INTER.norm>
-0.729753

>  <SCORE.INTRA>
-6.57847

>  <SCORE.INTRA.DIHEDRAL>
-6.48641

>  <SCORE.INTRA.DIHEDRAL.0>
15.0182

>  <SCORE.INTRA.POLAR>
0

>  <SCORE.INTRA.POLAR.0>
0

>  <SCORE.INTRA.REPUL>
0

>  <SCORE.INTRA.REPUL.0>
0

>  <SCORE.INTRA.SOLV>
-0.958546

>  <SCORE.INTRA.SOLV.lig_0>
-47.9129

>  <SCORE.INTRA.VDW>
-2.85599

>  <SCORE.INTRA.VDW.0>
2.00851

>  <SCORE.INTRA.norm>
-0.243647

>  <SCORE.RESTR>
0

>  <SCORE.RESTR.CAVITY>
0

>  <SCORE.RESTR.norm>
0

>  <SCORE.SYSTEM>
0

>  <SCORE.SYSTEM.CONST>
0

>  <SCORE.SYSTEM.DIHEDRAL>
0

>  <SCORE.SYSTEM.SOLV>
0

>  <SCORE.SYSTEM.norm>
0

>  <SCORE.heavy>
27

>  <SCORE.norm>
-0.9734

>  <RMSD>
7.101

$$$$
ligand
 OpenBabel11021811483D
libRbt.so/2013.1/901 2013/11/27
 27 29  0  0  0  0  0  0  0  0999 V2000
  -16.0421   -7.5378   32.8213 N   0  0  0  0  0  0  0  0  0  0  0  0
  -14.5851   -7.5711   32.9151 C   0  0  2  0  0  0  0  0  0  0  0  0
  -14.0803   -8.9026   33.4651 C   0  0  0  0  0  0  0  0  0  0  0  0
  -14.5641   -9.3937   34.4874 O   0  0  0  0  0  0  0  0  0  0  0  0
  -14.0654   -6.3967   33.7388 C   0  0  0  0  0  0  0  0  0  0  0  0
  -14.2881   -5.0480   33.0721 C   0  0  0  0  0  0  0  0  0  0  0  0
  -12.9790   -4.5794   31.9132 S   0  0  2  0  0  0  0  0  0  0  0  0
  -13.0645   -2.7753   32.0338 C   0  0  0  0  0  0  0  0  0  0  0  0
  -13.8050   -4.8684   30.3249 C   0  0  0  0  0  0  0  0  0  0  0  0
  -13.8237   -6.3615   30.0305 C   0  0  1  0  0  0  0  0  0  0  0  0
  -14.4385   -6.5584   28.7795 O   0  0  0  0  0  0  0  0  0  0  0  0
  -12.4649   -7.0228   29.8955 C   0  0  1  0  0  0  0  0  0  0  0  0
  -12.0736   -7.6228   31.1103 O   0  0  0  0  0  0  0  0  0  0  0  0
  -12.7055   -8.0869   28.8439 C   0  0  1  0  0  0  0  0  0  0  0  0
  -12.7516   -9.3397   29.4811 O   0  0  0  0  0  0  0  0  0  0  0  0
  -14.0591   -7.7870   28.2143 C   0  0  2  0  0  0  0  0  0  0  0  0
  -13.1727   -9.5110   32.8979 O   0  0  0  0  0  0  0  0  0  0  0  0
  -15.3712   -9.4325   23.3825 N   0  0  0  0  0  0  0  0  0  0  0  0
  -15.8086   -9.9223   24.5973 C   0  0  0  0  0  0  0  0  0  0  0  0
  -15.3576   -9.3707   25.7816 N   0  0  0  0  0  0  0  0  0  0  0  0
  -14.4754   -8.3435   25.7649 C   0  0  0  0  0  0  0  0  0  0  0  0
  -14.0308   -7.8319   24.5520 C   0  0  0  0  0  0  0  0  0  0  0  0
  -14.4780   -8.3834   23.3576 C   0  0  0  0  0  0  0  0  0  0  0  0
  -14.0447   -7.8995   22.1960 N   0  0  0  0  0  0  0  0  0  0  0  0
  -13.1753   -6.8212   24.8173 N   0  0  0  0  0  0  0  0  0  0  0  0
  -13.0836   -6.6724   26.1598 C   0  0  0  0  0  0  0  0  0  0  0  0
  -13.8829   -7.6070   26.7634 N   0  0  0  0  0  0  0  0  0  0  0  0
  2  1  1  1  0  0  0
  2  3  1  0  0  0  0
  2  5  1  0  0  0  0
  3  4  1  0  0  0  0
  3 17  1  0  0  0  0
  5  6  1  0  0  0  0
  7  6  1  1  0  0  0
  7  8  1  0  0  0  0
  7  9  1  0  0  0  0
 10  9  1  6  0  0  0
 10 11  1  0  0  0  0
 10 12  1  0  0  0  0
 11 16  1  0  0  0  0
 12 13  1  1  0  0  0
 12 14  1  0  0  0  0
 14 15  1  1  0  0  0
 14 16  1  0  0  0  0
 16 27  1  6  0  0  0
 18 19  2  0  0  0  0
 18 23  1  0  0  0  0
 19 20  1  0  0  0  0
 20 21  2  0  0  0  0
 21 22  1  0  0  0  0
 21 27  1  0  0  0  0
 22 23  2  0  0  0  0
 22 25  1  0  0  0  0
 23 24  1  0  0  0  0
 25 26  2  0  0  0  0
 26 27  1  0  0  0  0
M  END
>  <CHROM.1>
-48.95855019,-66.94678154,-85.88881927,-151.21183540,-77.40217912,-178.54444370
-126.55296500,-13.88331938,-7.32258390,29.21567634,1.27639187,1.32373756
1.65218687

>  <Name>
ligand

>  <RI>
0

>  <Rbt.Current_Directory>
/home/itssahil/PROJECTS/Mol_Feturizer/New_Systems/rnas/3GX6

>  <Rbt.Executable>
rbdock ($Id: //depot/dev/client3/rdock/2013.1/src/exe/rbdock.cxx#4 $)

>  <Rbt.Library>
libRbt.so (2013.1, Build901 2013/11/27)

>  <Rbt.Parameter_File>
/export/apps/rDock/src/rDock_2013.1_src/data/scripts/dock_solv.prm

>  <Rbt.Receptor>
prm/pocket_docking_6.prm

>  <SCORE>
-17.861

>  <SCORE.INTER>
-8.826

>  <SCORE.INTER.CONST>
1

>  <SCORE.INTER.POLAR>
0

>  <SCORE.INTER.ROT>
7

>  <SCORE.INTER.SOLV>
6.53835

>  <SCORE.INTER.VDW>
-16.3301

>  <SCORE.INTER.norm>
-0.326889

>  <SCORE.INTRA>
-9.03497

>  <SCORE.INTRA.DIHEDRAL>
-6.26318

>  <SCORE.INTRA.DIHEDRAL.0>
15.0182

>  <SCORE.INTRA.POLAR>
0

>  <SCORE.INTRA.POLAR.0>
0

>  <SCORE.INTRA.REPUL>
0

>  <SCORE.INTRA.REPUL.0>
0

>  <SCORE.INTRA.SOLV>
0.794953

>  <SCORE.INTRA.SOLV.lig_0>
-47.9129

>  <SCORE.INTRA.VDW>
-6.30086

>  <SCORE.INTRA.VDW.0>
2.00851

>  <SCORE.INTRA.norm>
-0.334629

>  <SCORE.RESTR>
0

>  <SCORE.RESTR.CAVITY>
0

>  <SCORE.RESTR.norm>
0

>  <SCORE.SYSTEM>
0

>  <SCORE.SYSTEM.CONST>
0

>  <SCORE.SYSTEM.DIHEDRAL>
0

>  <SCORE.SYSTEM.SOLV>
0

>  <SCORE.SYSTEM.norm>
0

>  <SCORE.heavy>
27

>  <SCORE.norm>
-0.661518

>  <RMSD>
7.157

$$$$
ligand
 OpenBabel11021811483D
libRbt.so/2013.1/901 2013/11/27
 27 29  0  0  0  0  0  0  0  0999 V2000
  -18.2947   -9.3414   36.6209 N   0  0  0  0  0  0  0  0  0  0  0  0
  -17.3398   -9.8588   35.6446 C   0  0  2  0  0  0  0  0  0  0  0  0
  -15.9036   -9.7796   36.1557 C   0  0  0  0  0  0  0  0  0  0  0  0
  -14.9653  -10.2228   35.4898 O   0  0  0  0  0  0  0  0  0  0  0  0
  -17.4924   -9.1473   34.3036 C   0  0  0  0  0  0  0  0  0  0  0  0
  -17.1507   -7.6665   34.3650 C   0  0  0  0  0  0  0  0  0  0  0  0
  -17.3223   -6.8095   32.7799 S   0  0  2  0  0  0  0  0  0  0  0  0
  -19.0343   -7.2265   32.3652 C   0  0  0  0  0  0  0  0  0  0  0  0
  -16.4089   -7.9277   31.6827 C   0  0  0  0  0  0  0  0  0  0  0  0
  -14.9257   -7.8626   32.0174 C   0  0  1  0  0  0  0  0  0  0  0  0
  -14.2607   -8.8589   31.2780 O   0  0  0  0  0  0  0  0  0  0  0  0
  -14.2215   -6.5732   31.6386 C   0  0  1  0  0  0  0  0  0  0  0  0
  -14.1507   -5.6953   32.7399 O   0  0  0  0  0  0  0  0  0  0  0  0
  -12.8320   -7.0418   31.2571 C   0  0  1  0  0  0  0  0  0  0  0  0
  -11.9456   -6.6945   32.2922 O   0  0  0  0  0  0  0  0  0  0  0  0
  -12.8966   -8.5579   31.1311 C   0  0  2  0  0  0  0  0  0  0  0  0
  -15.6553   -9.2738   37.2503 O   0  0  0  0  0  0  0  0  0  0  0  0
  -10.1808   -7.2117   26.8198 N   0  0  0  0  0  0  0  0  0  0  0  0
  -10.3405   -6.4896   27.9860 C   0  0  0  0  0  0  0  0  0  0  0  0
  -11.0952   -6.9945   29.0281 N   0  0  0  0  0  0  0  0  0  0  0  0
  -11.6924   -8.2047   28.9158 C   0  0  0  0  0  0  0  0  0  0  0  0
  -11.5358   -8.9493   27.7532 C   0  0  0  0  0  0  0  0  0  0  0  0
  -10.7807   -8.4465   26.7006 C   0  0  0  0  0  0  0  0  0  0  0  0
  -10.6387   -9.1557   25.5834 N   0  0  0  0  0  0  0  0  0  0  0  0
  -12.2194  -10.1039   27.9055 N   0  0  0  0  0  0  0  0  0  0  0  0
  -12.7855  -10.1132   29.1351 C   0  0  0  0  0  0  0  0  0  0  0  0
  -12.4693   -8.9443   29.7759 N   0  0  0  0  0  0  0  0  0  0  0  0
  2  1  1  1  0  0  0
  2  3  1  0  0  0  0
  2  5  1  0  0  0  0
  3  4  1  0  0  0  0
  3 17  1  0  0  0  0
  5  6  1  0  0  0  0
  7  6  1  1  0  0  0
  7  8  1  0  0  0  0
  7  9  1  0  0  0  0
 10  9  1  6  0  0  0
 10 11  1  0  0  0  0
 10 12  1  0  0  0  0
 11 16  1  0  0  0  0
 12 13  1  1  0  0  0
 12 14  1  0  0  0  0
 14 15  1  1  0  0  0
 14 16  1  0  0  0  0
 16 27  1  6  0  0  0
 18 19  2  0  0  0  0
 18 23  1  0  0  0  0
 19 20  1  0  0  0  0
 20 21  2  0  0  0  0
 21 22  1  0  0  0  0
 21 27  1  0  0  0  0
 22 23  2  0  0  0  0
 22 25  1  0  0  0  0
 23 24  1  0  0  0  0
 25 26  2  0  0  0  0
 26 27  1  0  0  0  0
M  END
>  <CHROM.1>
176.93291066,64.71231396,179.82457874,54.73628579,-69.27940693,172.49695418
135.05128153,-14.24211584,-8.18325797,31.60566724,-2.41603451,0.57290706
-0.96243323

>  <Name>
ligand

>  <RI>
0

>  <Rbt.Current_Directory>
/home/itssahil/PROJECTS/Mol_Feturizer/New_Systems/rnas/3GX6

>  <Rbt.Executable>
rbdock ($Id: //depot/dev/client3/rdock/2013.1/src/exe/rbdock.cxx#4 $)

>  <Rbt.Library>
libRbt.so (2013.1, Build901 2013/11/27)

>  <Rbt.Parameter_File>
/export/apps/rDock/src/rDock_2013.1_src/data/scripts/dock_solv.prm

>  <Rbt.Receptor>
prm/pocket_docking_7.prm

>  <SCORE>
-20.5298

>  <SCORE.INTER>
-11.5576

>  <SCORE.INTER.CONST>
1

>  <SCORE.INTER.POLAR>
0

>  <SCORE.INTER.ROT>
7

>  <SCORE.INTER.SOLV>
8.43462

>  <SCORE.INTER.VDW>
-18.7833

>  <SCORE.INTER.norm>
-0.42806

>  <SCORE.INTRA>
-8.97217

>  <SCORE.INTRA.DIHEDRAL>
-11.5248

>  <SCORE.INTRA.DIHEDRAL.0>
15.0182

>  <SCORE.INTRA.POLAR>
0

>  <SCORE.INTRA.POLAR.0>
0

>  <SCORE.INTRA.REPUL>
0

>  <SCORE.INTRA.REPUL.0>
0

>  <SCORE.INTRA.SOLV>
-0.911182

>  <SCORE.INTRA.SOLV.lig_0>
-47.9129

>  <SCORE.INTRA.VDW>
-2.75419

>  <SCORE.INTRA.VDW.0>
2.00851

>  <SCORE.INTRA.norm>
-0.332302

>  <SCORE.RESTR>
0

>  <SCORE.RESTR.CAVITY>
0

>  <SCORE.RESTR.norm>
0

>  <SCORE.SYSTEM>
0

>  <SCORE.SYSTEM.CONST>
0

>  <SCORE.SYSTEM.DIHEDRAL>
0

>  <SCORE.SYSTEM.SOLV>
0

>  <SCORE.SYSTEM.norm>
0

>  <SCORE.heavy>
27

>  <SCORE.norm>
-0.760362

>  <RMSD>
7.220

$$$$
ligand
 OpenBabel11021811483D
libRbt.so/2013.1/901 2013/11/27
 27 29  0  0  0  0  0  0  0  0999 V2000
  -13.1018   -8.9039   33.9392 N   0  0  0  0  0  0  0  0  0  0  0  0
  -12.9599   -7.8112   34.8977 C   0  0  2  0  0  0  0  0  0  0  0  0
  -13.8060   -8.0372   36.1479 C   0  0  0  0  0  0  0  0  0  0  0  0
  -14.9860   -8.3849   36.0641 O   0  0  0  0  0  0  0  0  0  0  0  0
  -13.2797   -6.4695   34.2453 C   0  0  0  0  0  0  0  0  0  0  0  0
  -12.2683   -6.0582   33.1865 C   0  0  0  0  0  0  0  0  0  0  0  0
  -12.8354   -4.7134   32.1159 S   0  0  2  0  0  0  0  0  0  0  0  0
  -13.2603   -3.4644   33.3552 C   0  0  0  0  0  0  0  0  0  0  0  0
  -14.4785   -5.3182   31.6438 C   0  0  0  0  0  0  0  0  0  0  0  0
  -14.9750   -4.5381   30.4350 C   0  0  1  0  0  0  0  0  0  0  0  0
  -14.0215   -4.6609   29.4067 O   0  0  0  0  0  0  0  0  0  0  0  0
  -16.2683   -5.0353   29.8168 C   0  0  1  0  0  0  0  0  0  0  0  0
  -17.3725   -4.3049   30.3025 O   0  0  0  0  0  0  0  0  0  0  0  0
  -16.0703   -4.7578   28.3404 C   0  0  1  0  0  0  0  0  0  0  0  0
  -16.8550   -3.6453   27.9876 O   0  0  0  0  0  0  0  0  0  0  0  0
  -14.5975   -4.4221   28.1480 C   0  0  2  0  0  0  0  0  0  0  0  0
  -13.3246   -7.8705   37.2687 O   0  0  0  0  0  0  0  0  0  0  0  0
  -10.5595   -7.5950   26.9638 N   0  0  0  0  0  0  0  0  0  0  0  0
  -10.7293   -6.8172   28.0922 C   0  0  0  0  0  0  0  0  0  0  0  0
  -11.8582   -6.0342   28.2434 N   0  0  0  0  0  0  0  0  0  0  0  0
  -12.8117   -6.0169   27.2819 C   0  0  0  0  0  0  0  0  0  0  0  0
  -12.6621   -6.7995   26.1437 C   0  0  0  0  0  0  0  0  0  0  0  0
  -11.5284   -7.5870   25.9840 C   0  0  0  0  0  0  0  0  0  0  0  0
  -11.3808   -8.3292   24.8893 N   0  0  0  0  0  0  0  0  0  0  0  0
  -13.7452   -6.6039   25.3612 N   0  0  0  0  0  0  0  0  0  0  0  0
  -14.5774   -5.7355   25.9825 C   0  0  0  0  0  0  0  0  0  0  0  0
  -14.0155   -5.3614   27.1746 N   0  0  0  0  0  0  0  0  0  0  0  0
  2  1  1  6  0  0  0
  2  3  1  0  0  0  0
  2  5  1  0  0  0  0
  3  4  1  0  0  0  0
  3 17  1  0  0  0  0
  5  6  1  0  0  0  0
  7  6  1  1  0  0  0
  7  8  1  0  0  0  0
  7  9  1  0  0  0  0
 10  9  1  1  0  0  0
 10 11  1  0  0  0  0
 10 12  1  0  0  0  0
 11 16  1  0  0  0  0
 12 13  1  1  0  0  0
 12 14  1  0  0  0  0
 14 15  1  1  0  0  0
 14 16  1  0  0  0  0
 16 27  1  6  0  0  0
 18 19  2  0  0  0  0
 18 23  1  0  0  0  0
 19 20  1  0  0  0  0
 20 21  2  0  0  0  0
 21 22  1  0  0  0  0
 21 27  1  0  0  0  0
 22 23  2  0  0  0  0
 22 25  1  0  0  0  0
 23 24  1  0  0  0  0
 25 26  2  0  0  0  0
 26 27  1  0  0  0  0
M  END
>  <CHROM.1>
-47.06254029,-67.27646694,165.14516058,54.73079973,-163.86886363,56.16184281
-22.11639925,-13.65856309,-6.02873302,30.33495296,-1.63273389,0.68276304
-1.42930908

>  <Name>
ligand

>  <RI>
0

>  <Rbt.Current_Directory>
/home/itssahil/PROJECTS/Mol_Feturizer/New_Systems/rnas/3GX6

>  <Rbt.Executable>
rbdock ($Id: //depot/dev/client3/rdock/2013.1/src/exe/rbdock.cxx#4 $)

>  <Rbt.Library>
libRbt.so (2013.1, Build901 2013/11/27)

>  <Rbt.Parameter_File>
/export/apps/rDock/src/rDock_2013.1_src/data/scripts/dock_solv.prm

>  <Rbt.Receptor>
prm/pocket_docking_8.prm

>  <SCORE>
-23.7724

>  <SCORE.INTER>
-15.4583

>  <SCORE.INTER.CONST>
1

>  <SCORE.INTER.POLAR>
0

>  <SCORE.INTER.ROT>
7

>  <SCORE.INTER.SOLV>
11.867

>  <SCORE.INTER.VDW>
-22.5278

>  <SCORE.INTER.norm>
-0.572528

>  <SCORE.INTRA>
-8.3141

>  <SCORE.INTRA.DIHEDRAL>
-9.19986

>  <SCORE.INTRA.DIHEDRAL.0>
15.0182

>  <SCORE.INTRA.POLAR>
0

>  <SCORE.INTRA.POLAR.0>
0

>  <SCORE.INTRA.REPUL>
0

>  <SCORE.INTRA.REPUL.0>
0

>  <SCORE.INTRA.SOLV>
-0.992472

>  <SCORE.INTRA.SOLV.lig_0>
-47.9129

>  <SCORE.INTRA.VDW>
-3.21793

>  <SCORE.INTRA.VDW.0>
2.00851

>  <SCORE.INTRA.norm>
-0.30793

>  <SCORE.RESTR>
0

>  <SCORE.RESTR.CAVITY>
0

>  <SCORE.RESTR.norm>
0

>  <SCORE.SYSTEM>
0

>  <SCORE.SYSTEM.CONST>
0

>  <SCORE.SYSTEM.DIHEDRAL>
0

>  <SCORE.SYSTEM.SOLV>
0

>  <SCORE.SYSTEM.norm>
0

>  <SCORE.heavy>
27

>  <SCORE.norm>
-0.880458

>  <RMSD>
7.233

$$$$
ligand
 OpenBabel11021811483D
libRbt.so/2013.1/901 2013/11/27
 27 29  0  0  0  0  0  0  0  0999 V2000
  -13.5220   -6.8723   33.4337 N   0  0  0  0  0  0  0  0  0  0  0  0
  -14.5339   -7.3409   34.3768 C   0  0  2  0  0  0  0  0  0  0  0  0
  -14.1642   -8.6917   34.9839 C   0  0  0  0  0  0  0  0  0  0  0  0
  -13.9635   -9.6771   34.2704 O   0  0  0  0  0  0  0  0  0  0  0  0
  -15.9109   -7.3845   33.7210 C   0  0  0  0  0  0  0  0  0  0  0  0
  -16.5440   -6.0114   33.5576 C   0  0  0  0  0  0  0  0  0  0  0  0
  -15.7139   -4.9632   32.3375 S   0  0  2  0  0  0  0  0  0  0  0  0
  -16.8181   -3.5288   32.3319 C   0  0  0  0  0  0  0  0  0  0  0  0
  -16.1926   -5.7856   30.7938 C   0  0  0  0  0  0  0  0  0  0  0  0
  -15.7168   -4.9544   29.6109 C   0  0  1  0  0  0  0  0  0  0  0  0
  -14.3197   -5.0918   29.5067 O   0  0  0  0  0  0  0  0  0  0  0  0
  -16.2439   -5.3798   28.2533 C   0  0  1  0  0  0  0  0  0  0  0  0
  -17.3713   -4.6154   27.8883 O   0  0  0  0  0  0  0  0  0  0  0  0
  -15.0856   -5.0736   27.3257 C   0  0  1  0  0  0  0  0  0  0  0  0
  -15.4011   -3.9199   26.5859 O   0  0  0  0  0  0  0  0  0  0  0  0
  -13.8754   -4.7966   28.2073 C   0  0  2  0  0  0  0  0  0  0  0  0
  -14.0642   -8.8239   36.2038 O   0  0  0  0  0  0  0  0  0  0  0  0
  -11.7982   -7.9085   24.4956 N   0  0  0  0  0  0  0  0  0  0  0  0
  -12.9282   -7.1192   24.4111 C   0  0  0  0  0  0  0  0  0  0  0  0
  -13.3379   -6.3596   25.4907 N   0  0  0  0  0  0  0  0  0  0  0  0
  -12.6367   -6.3840   26.6490 C   0  0  0  0  0  0  0  0  0  0  0  0
  -11.4924   -7.1655   26.7497 C   0  0  0  0  0  0  0  0  0  0  0  0
  -11.0763   -7.9338   25.6692 C   0  0  0  0  0  0  0  0  0  0  0  0
   -9.9856   -8.6897   25.7691 N   0  0  0  0  0  0  0  0  0  0  0  0
  -10.9876   -7.0028   27.9916 N   0  0  0  0  0  0  0  0  0  0  0  0
  -11.7712   -6.1294   28.6667 C   0  0  0  0  0  0  0  0  0  0  0  0
  -12.7980   -5.7348   27.8502 N   0  0  0  0  0  0  0  0  0  0  0  0
  2  1  1  6  0  0  0
  2  3  1  0  0  0  0
  2  5  1  0  0  0  0
  3  4  1  0  0  0  0
  3 17  1  0  0  0  0
  5  6  1  0  0  0  0
  7  6  1  1  0  0  0
  7  8  1  0  0  0  0
  7  9  1  0  0  0  0
 10  9  1  1  0  0  0
 10 11  1  0  0  0  0
 10 12  1  0  0  0  0
 11 16  1  0  0  0  0
 12 13  1  6  0  0  0
 12 14  1  0  0  0  0
 14 15  1  1  0  0  0
 14 16  1  0  0  0  0
 16 27  1  6  0  0  0
 18 19  2  0  0  0  0
 18 23  1  0  0  0  0
 19 20  1  0  0  0  0
 20 21  2  0  0  0  0
 21 22  1  0  0  0  0
 21 27  1  0  0  0  0
 22 23  2  0  0  0  0
 22 25  1  0  0  0  0
 23 24  1  0  0  0  0
 25 26  2  0  0  0  0
 26 27  1  0  0  0  0
M  END
>  <CHROM.1>
-57.86012218,-75.69201180,69.00649815,175.28867865,173.58124021,73.19670160
136.86195757,-14.15922108,-6.33154246,29.74709306,-1.99192425,0.69891011
-1.24636296

>  <Name>
ligand

>  <RI>
0

>  <Rbt.Current_Directory>
/home/itssahil/PROJECTS/Mol_Feturizer/New_Systems/rnas/3GX6

>  <Rbt.Executable>
rbdock ($Id: //depot/dev/client3/rdock/2013.1/src/exe/rbdock.cxx#4 $)

>  <Rbt.Library>
libRbt.so (2013.1, Build901 2013/11/27)

>  <Rbt.Parameter_File>
/export/apps/rDock/src/rDock_2013.1_src/data/scripts/dock_solv.prm

>  <Rbt.Receptor>
prm/pocket_docking_5.prm

>  <SCORE>
-20.4917

>  <SCORE.INTER>
-11.6762

>  <SCORE.INTER.CONST>
1

>  <SCORE.INTER.POLAR>
0

>  <SCORE.INTER.ROT>
7

>  <SCORE.INTER.SOLV>
10.6791

>  <SCORE.INTER.VDW>
-19.6105

>  <SCORE.INTER.norm>
-0.432453

>  <SCORE.INTRA>
-8.81545

>  <SCORE.INTRA.DIHEDRAL>
-9.91104

>  <SCORE.INTRA.DIHEDRAL.0>
15.0182

>  <SCORE.INTRA.POLAR>
0

>  <SCORE.INTRA.POLAR.0>
0

>  <SCORE.INTRA.REPUL>
0.0143424

>  <SCORE.INTRA.REPUL.0>
0

>  <SCORE.INTRA.SOLV>
0.471221

>  <SCORE.INTRA.SOLV.lig_0>
-47.9129

>  <SCORE.INTRA.VDW>
-4.16725

>  <SCORE.INTRA.VDW.0>
2.00851

>  <SCORE.INTRA.norm>
-0.326498

>  <SCORE.RESTR>
0

>  <SCORE.RESTR.CAVITY>
0

>  <SCORE.RESTR.norm>
0

>  <SCORE.SYSTEM>
0

>  <SCORE.SYSTEM.CONST>
0

>  <SCORE.SYSTEM.DIHEDRAL>
0

>  <SCORE.SYSTEM.SOLV>
0

>  <SCORE.SYSTEM.norm>
0

>  <SCORE.heavy>
27

>  <SCORE.norm>
-0.758951

>  <RMSD>
7.260

$$$$
ligand
 OpenBabel11021811483D
libRbt.so/2013.1/901 2013/11/27
 27 29  0  0  0  0  0  0  0  0999 V2000
  -12.2402   -6.4402   32.6393 N   0  0  0  0  0  0  0  0  0  0  0  0
  -12.7308   -6.0080   33.9453 C   0  0  2  0  0  0  0  0  0  0  0  0
  -13.6580   -7.0434   34.5762 C   0  0  0  0  0  0  0  0  0  0  0  0
  -14.5920   -7.5346   33.9384 O   0  0  0  0  0  0  0  0  0  0  0  0
  -13.4056   -4.6430   33.8491 C   0  0  0  0  0  0  0  0  0  0  0  0
  -12.4711   -3.5410   33.3744 C   0  0  0  0  0  0  0  0  0  0  0  0
  -12.9507   -2.8061   31.7914 S   0  0  2  0  0  0  0  0  0  0  0  0
  -14.6350   -2.2667   32.1770 C   0  0  0  0  0  0  0  0  0  0  0  0
  -13.2715   -4.2929   30.8041 C   0  0  0  0  0  0  0  0  0  0  0  0
  -14.1938   -3.9402   29.6459 C   0  0  1  0  0  0  0  0  0  0  0  0
  -13.5298   -4.2447   28.4426 O   0  0  0  0  0  0  0  0  0  0  0  0
  -15.4904   -4.7246   29.5747 C   0  0  1  0  0  0  0  0  0  0  0  0
  -16.5464   -4.0085   30.1754 O   0  0  0  0  0  0  0  0  0  0  0  0
  -15.7310   -4.8528   28.0842 C   0  0  1  0  0  0  0  0  0  0  0  0
  -16.7675   -3.9734   27.7236 O   0  0  0  0  0  0  0  0  0  0  0  0
  -14.4425   -4.4307   27.3912 C   0  0  2  0  0  0  0  0  0  0  0  0
  -13.4925   -7.4052   35.7413 O   0  0  0  0  0  0  0  0  0  0  0  0
  -10.6800   -8.0191   26.5297 N   0  0  0  0  0  0  0  0  0  0  0  0
  -10.7451   -7.0783   27.5385 C   0  0  0  0  0  0  0  0  0  0  0  0
  -11.8122   -6.2035   27.6167 N   0  0  0  0  0  0  0  0  0  0  0  0
  -12.8073   -6.2555   26.6996 C   0  0  0  0  0  0  0  0  0  0  0  0
  -12.7632   -7.2010   25.6824 C   0  0  0  0  0  0  0  0  0  0  0  0
  -11.6919   -8.0819   25.5963 C   0  0  0  0  0  0  0  0  0  0  0  0
  -11.6451   -8.9811   24.6164 N   0  0  0  0  0  0  0  0  0  0  0  0
  -13.8672   -7.0424   24.9212 N   0  0  0  0  0  0  0  0  0  0  0  0
  -14.6108   -6.0374   25.4406 C   0  0  0  0  0  0  0  0  0  0  0  0
  -13.9697   -5.5380   26.5435 N   0  0  0  0  0  0  0  0  0  0  0  0
  2  1  1  6  0  0  0
  2  3  1  0  0  0  0
  2  5  1  0  0  0  0
  3  4  1  0  0  0  0
  3 17  1  0  0  0  0
  5  6  1  0  0  0  0
  7  6  1  1  0  0  0
  7  8  1  0  0  0  0
  7  9  1  0  0  0  0
 10  9  1  1  0  0  0
 10 11  1  0  0  0  0
 10 12  1  0  0  0  0
 11 16  1  0  0  0  0
 12 13  1  1  0  0  0
 12 14  1  0  0  0  0
 14 15  1  6  0  0  0
 14 16  1  0  0  0  0
 16 27  1  6  0  0  0
 18 19  2  0  0  0  0
 18 23  1  0  0  0  0
 19 20  1  0  0  0  0
 20 21  2  0  0  0  0
 21 22  1  0  0  0  0
 21 27  1  0  0  0  0
 22 23  2  0  0  0  0
 22 25  1  0  0  0  0
 23 24  1  0  0  0  0
 25 26  2  0  0  0  0
 26 27  1  0  0  0  0
M  END
>  <CHROM.1>
-49.25086635,-61.25953973,116.55624968,56.56334166,157.73484111,120.53994133
-2.30770497,-13.53537610,-5.47639726,29.66102956,-1.71375883,0.90586900,-1.68469083

>  <Name>
ligand

>  <RI>
0

>  <Rbt.Current_Directory>
/home/itssahil/PROJECTS/Mol_Feturizer/New_Systems/rnas/3GX6

>  <Rbt.Executable>
rbdock ($Id: //depot/dev/client3/rdock/2013.1/src/exe/rbdock.cxx#4 $)

>  <Rbt.Library>
libRbt.so (2013.1, Build901 2013/11/27)

>  <Rbt.Parameter_File>
/export/apps/rDock/src/rDock_2013.1_src/data/scripts/dock_solv.prm

>  <Rbt.Receptor>
prm/pocket_docking_5.prm

>  <SCORE>
-22.4636

>  <SCORE.INTER>
-19.5752

>  <SCORE.INTER.CONST>
1

>  <SCORE.INTER.POLAR>
0

>  <SCORE.INTER.ROT>
7

>  <SCORE.INTER.SOLV>
12.1264

>  <SCORE.INTER.VDW>
-25.3589

>  <SCORE.INTER.norm>
-0.725007

>  <SCORE.INTRA>
-2.88959

>  <SCORE.INTRA.DIHEDRAL>
-0.511738

>  <SCORE.INTRA.DIHEDRAL.0>
15.0182

>  <SCORE.INTRA.POLAR>
0

>  <SCORE.INTRA.POLAR.0>
0

>  <SCORE.INTRA.REPUL>
0

>  <SCORE.INTRA.REPUL.0>
0

>  <SCORE.INTRA.SOLV>
1.00653

>  <SCORE.INTRA.SOLV.lig_0>
-47.9129

>  <SCORE.INTRA.VDW>
-3.13699

>  <SCORE.INTRA.VDW.0>
2.00851

>  <SCORE.INTRA.norm>
-0.107022

>  <SCORE.RESTR>
0.00118111

>  <SCORE.RESTR.CAVITY>
0.00118111

>  <SCORE.RESTR.norm>
4.37449e-05

>  <SCORE.SYSTEM>
0

>  <SCORE.SYSTEM.CONST>
0

>  <SCORE.SYSTEM.DIHEDRAL>
0

>  <SCORE.SYSTEM.SOLV>
0

>  <SCORE.SYSTEM.norm>
0

>  <SCORE.heavy>
27

>  <SCORE.norm>
-0.831985

>  <RMSD>
7.274

$$$$
ligand
 OpenBabel11021811483D
libRbt.so/2013.1/901 2013/11/27
 27 29  0  0  0  0  0  0  0  0999 V2000
  -13.3956   -8.1286   21.3118 N   0  0  0  0  0  0  0  0  0  0  0  0
  -13.1261   -8.4523   22.7102 C   0  0  2  0  0  0  0  0  0  0  0  0
  -11.9937   -7.6039   23.2828 C   0  0  0  0  0  0  0  0  0  0  0  0
  -12.1332   -6.9856   24.3405 O   0  0  0  0  0  0  0  0  0  0  0  0
  -12.8447   -9.9422   22.8799 C   0  0  0  0  0  0  0  0  0  0  0  0
  -12.7222  -10.3704   24.3341 C   0  0  0  0  0  0  0  0  0  0  0  0
  -11.1235   -9.9700   25.0826 S   0  0  2  0  0  0  0  0  0  0  0  0
  -10.1044  -11.3091   24.4157 C   0  0  0  0  0  0  0  0  0  0  0  0
  -11.3875  -10.5387   26.7842 C   0  0  0  0  0  0  0  0  0  0  0  0
  -12.1138   -9.4569   27.5706 C   0  0  1  0  0  0  0  0  0  0  0  0
  -13.4063   -9.3105   27.0325 O   0  0  0  0  0  0  0  0  0  0  0  0
  -12.3445   -9.7543   29.0404 C   0  0  1  0  0  0  0  0  0  0  0  0
  -11.3394   -9.1680   29.8371 O   0  0  0  0  0  0  0  0  0  0  0  0
  -13.6794   -9.0931   29.3176 C   0  0  1  0  0  0  0  0  0  0  0  0
  -13.4491   -7.9175   30.0543 O   0  0  0  0  0  0  0  0  0  0  0  0
  -14.2839   -8.7357   27.9665 C   0  0  2  0  0  0  0  0  0  0  0  0
  -10.9164   -7.5169   22.6933 O   0  0  0  0  0  0  0  0  0  0  0  0
  -18.0215  -10.5284   24.7119 N   0  0  0  0  0  0  0  0  0  0  0  0
  -16.8214   -9.9295   24.3834 C   0  0  0  0  0  0  0  0  0  0  0  0
  -15.9497   -9.5123   25.3715 N   0  0  0  0  0  0  0  0  0  0  0  0
  -16.2650   -9.6823   26.6774 C   0  0  0  0  0  0  0  0  0  0  0  0
  -17.4642  -10.2908   27.0270 C   0  0  0  0  0  0  0  0  0  0  0  0
  -18.3465  -10.7101   26.0387 C   0  0  0  0  0  0  0  0  0  0  0  0
  -19.4993  -11.2842   26.3739 N   0  0  0  0  0  0  0  0  0  0  0  0
  -17.5251  -10.3422   28.3751 N   0  0  0  0  0  0  0  0  0  0  0  0
  -16.3925   -9.8001   28.8809 C   0  0  0  0  0  0  0  0  0  0  0  0
  -15.5994   -9.3860   27.8434 N   0  0  0  0  0  0  0  0  0  0  0  0
  2  1  1  6  0  0  0
  2  3  1  0  0  0  0
  2  5  1  0  0  0  0
  3  4  1  0  0  0  0
  3 17  1  0  0  0  0
  5  6  1  0  0  0  0
  7  6  1  6  0  0  0
  7  8  1  0  0  0  0
  7  9  1  0  0  0  0
 10  9  1  6  0  0  0
 10 11  1  0  0  0  0
 10 12  1  0  0  0  0
 11 16  1  0  0  0  0
 12 13  1  1  0  0  0
 12 14  1  0  0  0  0
 14 15  1  1  0  0  0
 14 16  1  0  0  0  0
 16 27  1  1  0  0  0
 18 19  2  0  0  0  0
 18 23  1  0  0  0  0
 19 20  1  0  0  0  0
 20 21  2  0  0  0  0
 21 22  1  0  0  0  0
 21 27  1  0  0  0  0
 22 23  2  0  0  0  0
 22 25  1  0  0  0  0
 23 24  1  0  0  0  0
 25 26  2  0  0  0  0
 26 27  1  0  0  0  0
M  END
>  <CHROM.1>
128.69445632,-173.04942120,-78.50781654,-78.98008652,-82.95740043,66.16333369
-44.36297552,-13.90754193,-9.46479840,26.03905737,0.54410726,-0.17587293
-1.52655045

>  <Name>
ligand

>  <RI>
0

>  <Rbt.Current_Directory>
/home/itssahil/PROJECTS/Mol_Feturizer/New_Systems/rnas/3GX6

>  <Rbt.Executable>
rbdock ($Id: //depot/dev/client3/rdock/2013.1/src/exe/rbdock.cxx#4 $)

>  <Rbt.Library>
libRbt.so (2013.1, Build901 2013/11/27)

>  <Rbt.Parameter_File>
/export/apps/rDock/src/rDock_2013.1_src/data/scripts/dock_solv.prm

>  <Rbt.Receptor>
prm/pocket_docking_8.prm

>  <SCORE>
-22.2391

>  <SCORE.INTER>
-11.3426

>  <SCORE.INTER.CONST>
1

>  <SCORE.INTER.POLAR>
0

>  <SCORE.INTER.ROT>
7

>  <SCORE.INTER.SOLV>
14.425

>  <SCORE.INTER.VDW>
-20.6368

>  <SCORE.INTER.norm>
-0.420098

>  <SCORE.INTRA>
-10.8965

>  <SCORE.INTRA.DIHEDRAL>
-9.38737

>  <SCORE.INTRA.DIHEDRAL.0>
15.0182

>  <SCORE.INTRA.POLAR>
0

>  <SCORE.INTRA.POLAR.0>
0

>  <SCORE.INTRA.REPUL>
0

>  <SCORE.INTRA.REPUL.0>
0

>  <SCORE.INTRA.SOLV>
-1.57442

>  <SCORE.INTRA.SOLV.lig_0>
-47.9129

>  <SCORE.INTRA.VDW>
-5.41561

>  <SCORE.INTRA.VDW.0>
2.00851

>  <SCORE.INTRA.norm>
-0.403574

>  <SCORE.RESTR>
0

>  <SCORE.RESTR.CAVITY>
0

>  <SCORE.RESTR.norm>
0

>  <SCORE.SYSTEM>
0

>  <SCORE.SYSTEM.CONST>
0

>  <SCORE.SYSTEM.DIHEDRAL>
0

>  <SCORE.SYSTEM.SOLV>
0

>  <SCORE.SYSTEM.norm>
0

>  <SCORE.heavy>
27

>  <SCORE.norm>
-0.823672

>  <RMSD>
7.299

$$$$
ligand
 OpenBabel11021811483D
libRbt.so/2013.1/901 2013/11/27
 27 29  0  0  0  0  0  0  0  0999 V2000
  -14.8001   -3.4568   31.9473 N   0  0  0  0  0  0  0  0  0  0  0  0
  -16.1815   -3.1097   31.6244 C   0  0  2  0  0  0  0  0  0  0  0  0
  -16.4821   -1.6415   31.9141 C   0  0  0  0  0  0  0  0  0  0  0  0
  -17.6377   -1.2120   31.8937 O   0  0  0  0  0  0  0  0  0  0  0  0
  -17.1581   -4.0306   32.3497 C   0  0  0  0  0  0  0  0  0  0  0  0
  -16.9825   -5.4980   31.9905 C   0  0  0  0  0  0  0  0  0  0  0  0
  -17.1692   -5.8465   30.2242 S   0  0  2  0  0  0  0  0  0  0  0  0
  -18.9605   -5.6615   30.0409 C   0  0  0  0  0  0  0  0  0  0  0  0
  -16.9954   -7.6515   30.2087 C   0  0  0  0  0  0  0  0  0  0  0  0
  -17.2838   -8.1740   28.8086 C   0  0  1  0  0  0  0  0  0  0  0  0
  -16.2177   -7.8012   27.9685 O   0  0  0  0  0  0  0  0  0  0  0  0
  -17.3659   -9.6829   28.6733 C   0  0  1  0  0  0  0  0  0  0  0  0
  -18.7045  -10.1223   28.7339 O   0  0  0  0  0  0  0  0  0  0  0  0
  -16.7986   -9.9335   27.2908 C   0  0  1  0  0  0  0  0  0  0  0  0
  -17.8607  -10.2486   26.4245 O   0  0  0  0  0  0  0  0  0  0  0  0
  -16.1439   -8.6347   26.8403 C   0  0  2  0  0  0  0  0  0  0  0  0
  -15.5709   -0.8541   32.1697 O   0  0  0  0  0  0  0  0  0  0  0  0
  -11.9801   -7.3723   23.8662 N   0  0  0  0  0  0  0  0  0  0  0  0
  -13.2501   -6.8314   23.8275 C   0  0  0  0  0  0  0  0  0  0  0  0
  -14.2343   -7.2851   24.6852 N   0  0  0  0  0  0  0  0  0  0  0  0
  -13.9655   -8.2715   25.5733 C   0  0  0  0  0  0  0  0  0  0  0  0
  -12.6911   -8.8218   25.6326 C   0  0  0  0  0  0  0  0  0  0  0  0
  -11.6976   -8.3723   24.7713 C   0  0  0  0  0  0  0  0  0  0  0  0
  -10.4796   -8.9062   24.8218 N   0  0  0  0  0  0  0  0  0  0  0  0
  -12.6926   -9.7673   26.5968 N   0  0  0  0  0  0  0  0  0  0  0  0
  -13.9248   -9.8141   27.1556 C   0  0  0  0  0  0  0  0  0  0  0  0
  -14.7269   -8.8937   26.5343 N   0  0  0  0  0  0  0  0  0  0  0  0
  2  1  1  1  0  0  0
  2  3  1  0  0  0  0
  2  5  1  0  0  0  0
  3  4  1  0  0  0  0
  3 17  1  0  0  0  0
  5  6  1  0  0  0  0
  7  6  1  1  0  0  0
  7  8  1  0  0  0  0
  7  9  1  0  0  0  0
 10  9  1  1  0  0  0
 10 11  1  0  0  0  0
 10 12  1  0  0  0  0
 11 16  1  0  0  0  0
 12 13  1  6  0  0  0
 12 14  1  0  0  0  0
 14 15  1  6  0  0  0
 14 16  1  0  0  0  0
 16 27  1  1  0  0  0
 18 19  2  0  0  0  0
 18 23  1  0  0  0  0
 19 20  1  0  0  0  0
 20 21  2  0  0  0  0
 21 22  1  0  0  0  0
 21 27  1  0  0  0  0
 22 23  2  0  0  0  0
 22 25  1  0  0  0  0
 23 24  1  0  0  0  0
 25 26  2  0  0  0  0
 26 27  1  0  0  0  0
M  END
>  <CHROM.1>
-169.14460188,-60.08840531,-58.26090659,-73.04854094,173.50714655,71.09468903
-99.81709085,-15.65067626,-6.85855348,28.41959240,-2.01672506,-0.58006214
-2.56458577

>  <Name>
ligand

>  <RI>
0

>  <Rbt.Current_Directory>
/home/itssahil/PROJECTS/Mol_Feturizer/New_Systems/rnas/3GX6

>  <Rbt.Executable>
rbdock ($Id: //depot/dev/client3/rdock/2013.1/src/exe/rbdock.cxx#4 $)

>  <Rbt.Library>
libRbt.so (2013.1, Build901 2013/11/27)

>  <Rbt.Parameter_File>
/export/apps/rDock/src/rDock_2013.1_src/data/scripts/dock_solv.prm

>  <Rbt.Receptor>
prm/pocket_docking_7.prm

>  <SCORE>
-20.1389

>  <SCORE.INTER>
-10.6198

>  <SCORE.INTER.CONST>
1

>  <SCORE.INTER.POLAR>
0

>  <SCORE.INTER.ROT>
7

>  <SCORE.INTER.SOLV>
8.09025

>  <SCORE.INTER.VDW>
-18.0433

>  <SCORE.INTER.norm>
-0.393326

>  <SCORE.INTRA>
-9.51911

>  <SCORE.INTRA.DIHEDRAL>
-11.287

>  <SCORE.INTRA.DIHEDRAL.0>
15.0182

>  <SCORE.INTRA.POLAR>
0

>  <SCORE.INTRA.POLAR.0>
0

>  <SCORE.INTRA.REPUL>
0

>  <SCORE.INTRA.REPUL.0>
0

>  <SCORE.INTRA.SOLV>
-0.511593

>  <SCORE.INTRA.SOLV.lig_0>
-47.9129

>  <SCORE.INTRA.VDW>
-3.61984

>  <SCORE.INTRA.VDW.0>
2.00851

>  <SCORE.INTRA.norm>
-0.35256

>  <SCORE.RESTR>
0

>  <SCORE.RESTR.CAVITY>
0

>  <SCORE.RESTR.norm>
0

>  <SCORE.SYSTEM>
0

>  <SCORE.SYSTEM.CONST>
0

>  <SCORE.SYSTEM.DIHEDRAL>
0

>  <SCORE.SYSTEM.SOLV>
0

>  <SCORE.SYSTEM.norm>
0

>  <SCORE.heavy>
27

>  <SCORE.norm>
-0.745886

>  <RMSD>
7.466

$$$$
ligand
 OpenBabel11021811483D
libRbt.so/2013.1/901 2013/11/27
 27 29  0  0  0  0  0  0  0  0999 V2000
  -12.9238   -2.5743   32.8503 N   0  0  0  0  0  0  0  0  0  0  0  0
  -14.2866   -2.9363   32.4701 C   0  0  2  0  0  0  0  0  0  0  0  0
  -14.7018   -4.2839   33.0547 C   0  0  0  0  0  0  0  0  0  0  0  0
  -13.8712   -5.0413   33.5615 O   0  0  0  0  0  0  0  0  0  0  0  0
  -14.4533   -2.9133   30.9537 C   0  0  0  0  0  0  0  0  0  0  0  0
  -13.4548   -3.7988   30.2244 C   0  0  0  0  0  0  0  0  0  0  0  0
  -13.8851   -5.5569   30.2437 S   0  0  2  0  0  0  0  0  0  0  0  0
  -12.2846   -6.2910   29.8240 C   0  0  0  0  0  0  0  0  0  0  0  0
  -14.7707   -5.7123   28.6689 C   0  0  0  0  0  0  0  0  0  0  0  0
  -15.4361   -7.0793   28.5971 C   0  0  1  0  0  0  0  0  0  0  0  0
  -15.9649   -7.2469   27.3034 O   0  0  0  0  0  0  0  0  0  0  0  0
  -14.5159   -8.2701   28.7898 C   0  0  1  0  0  0  0  0  0  0  0  0
  -14.5420   -8.7159   30.1274 O   0  0  0  0  0  0  0  0  0  0  0  0
  -15.1205   -9.3201   27.8799 C   0  0  1  0  0  0  0  0  0  0  0  0
  -15.7809  -10.2723   28.6768 O   0  0  0  0  0  0  0  0  0  0  0  0
  -16.1343   -8.6069   26.9956 C   0  0  2  0  0  0  0  0  0  0  0  0
  -15.8789   -4.6432   33.0260 O   0  0  0  0  0  0  0  0  0  0  0  0
  -12.8897   -7.3437   23.0393 N   0  0  0  0  0  0  0  0  0  0  0  0
  -12.8803   -6.8651   24.3346 C   0  0  0  0  0  0  0  0  0  0  0  0
  -13.8142   -7.3050   25.2537 N   0  0  0  0  0  0  0  0  0  0  0  0
  -14.7550   -8.2096   24.8927 C   0  0  0  0  0  0  0  0  0  0  0  0
  -14.7746   -8.7087   23.5961 C   0  0  0  0  0  0  0  0  0  0  0  0
  -13.8404   -8.2689   22.6663 C   0  0  0  0  0  0  0  0  0  0  0  0
  -13.8653   -8.7399   21.4219 N   0  0  0  0  0  0  0  0  0  0  0  0
  -15.7949   -9.5888   23.5065 N   0  0  0  0  0  0  0  0  0  0  0  0
  -16.4047   -9.6694   24.7124 C   0  0  0  0  0  0  0  0  0  0  0  0
  -15.7735   -8.8219   25.5841 N   0  0  0  0  0  0  0  0  0  0  0  0
  2  1  1  6  0  0  0
  2  3  1  0  0  0  0
  2  5  1  0  0  0  0
  3  4  1  0  0  0  0
  3 17  1  0  0  0  0
  5  6  1  0  0  0  0
  7  6  1  6  0  0  0
  7  8  1  0  0  0  0
  7  9  1  0  0  0  0
 10  9  1  6  0  0  0
 10 11  1  0  0  0  0
 10 12  1  0  0  0  0
 11 16  1  0  0  0  0
 12 13  1  1  0  0  0
 12 14  1  0  0  0  0
 14 15  1  1  0  0  0
 14 16  1  0  0  0  0
 16 27  1  6  0  0  0
 18 19  2  0  0  0  0
 18 23  1  0  0  0  0
 19 20  1  0  0  0  0
 20 21  2  0  0  0  0
 21 22  1  0  0  0  0
 21 27  1  0  0  0  0
 22 23  2  0  0  0  0
 22 25  1  0  0  0  0
 23 24  1  0  0  0  0
 25 26  2  0  0  0  0
 26 27  1  0  0  0  0
M  END
>  <CHROM.1>
-12.41901727,55.57774528,79.05507310,-161.81029941,-170.20109147,-172.32405973
37.35097461,-14.52092094,-6.83257768,28.10269813,-1.46586177,-1.01098936
-1.97574961

>  <Name>
ligand

>  <RI>
0

>  <Rbt.Current_Directory>
/home/itssahil/PROJECTS/Mol_Feturizer/New_Systems/rnas/3GX6

>  <Rbt.Executable>
rbdock ($Id: //depot/dev/client3/rdock/2013.1/src/exe/rbdock.cxx#4 $)

>  <Rbt.Library>
libRbt.so (2013.1, Build901 2013/11/27)

>  <Rbt.Parameter_File>
/export/apps/rDock/src/rDock_2013.1_src/data/scripts/dock_solv.prm

>  <Rbt.Receptor>
prm/pocket_docking_8.prm

>  <SCORE>
-16.7726

>  <SCORE.INTER>
-7.67234

>  <SCORE.INTER.CONST>
1

>  <SCORE.INTER.POLAR>
0

>  <SCORE.INTER.ROT>
7

>  <SCORE.INTER.SOLV>
12.3745

>  <SCORE.INTER.VDW>
-17.5064

>  <SCORE.INTER.norm>
-0.284161

>  <SCORE.INTRA>
-9.10022

>  <SCORE.INTRA.DIHEDRAL>
-7.57413

>  <SCORE.INTRA.DIHEDRAL.0>
15.0182

>  <SCORE.INTRA.POLAR>
0

>  <SCORE.INTRA.POLAR.0>
0

>  <SCORE.INTRA.REPUL>
0

>  <SCORE.INTRA.REPUL.0>
0

>  <SCORE.INTRA.SOLV>
-0.262074

>  <SCORE.INTRA.SOLV.lig_0>
-47.9129

>  <SCORE.INTRA.VDW>
-5.18212

>  <SCORE.INTRA.VDW.0>
2.00851

>  <SCORE.INTRA.norm>
-0.337045

>  <SCORE.RESTR>
0

>  <SCORE.RESTR.CAVITY>
0

>  <SCORE.RESTR.norm>
0

>  <SCORE.SYSTEM>
0

>  <SCORE.SYSTEM.CONST>
0

>  <SCORE.SYSTEM.DIHEDRAL>
0

>  <SCORE.SYSTEM.SOLV>
0

>  <SCORE.SYSTEM.norm>
0

>  <SCORE.heavy>
27

>  <SCORE.norm>
-0.621206

>  <RMSD>
7.527

$$$$
ligand
 OpenBabel11021811483D
libRbt.so/2013.1/901 2013/11/27
 27 29  0  0  0  0  0  0  0  0999 V2000
  -15.8197   -3.4956   29.5690 N   0  0  0  0  0  0  0  0  0  0  0  0
  -16.7552   -3.0748   30.6086 C   0  0  2  0  0  0  0  0  0  0  0  0
  -16.3062   -1.7850   31.2904 C   0  0  0  0  0  0  0  0  0  0  0  0
  -17.1032   -1.0875   31.9216 O   0  0  0  0  0  0  0  0  0  0  0  0
  -16.9792   -4.1913   31.6240 C   0  0  0  0  0  0  0  0  0  0  0  0
  -18.0335   -5.1979   31.1899 C   0  0  0  0  0  0  0  0  0  0  0  0
  -17.7066   -5.9502   29.5764 S   0  0  2  0  0  0  0  0  0  0  0  0
  -18.7026   -4.8809   28.5081 C   0  0  0  0  0  0  0  0  0  0  0  0
  -18.7498   -7.4306   29.6686 C   0  0  0  0  0  0  0  0  0  0  0  0
  -17.8683   -8.6711   29.6441 C   0  0  1  0  0  0  0  0  0  0  0  0
  -17.9168   -9.2232   28.3501 O   0  0  0  0  0  0  0  0  0  0  0  0
  -16.3921   -8.4347   29.9025 C   0  0  1  0  0  0  0  0  0  0  0  0
  -16.0746   -8.6637   31.2572 O   0  0  0  0  0  0  0  0  0  0  0  0
  -15.7212   -9.4747   29.0283 C   0  0  1  0  0  0  0  0  0  0  0  0
  -15.2400  -10.5065   29.8539 O   0  0  0  0  0  0  0  0  0  0  0  0
  -16.7927  -10.0267   28.0977 C   0  0  2  0  0  0  0  0  0  0  0  0
  -15.1348   -1.4131   31.2177 O   0  0  0  0  0  0  0  0  0  0  0  0
  -12.8224  -10.1965   24.6360 N   0  0  0  0  0  0  0  0  0  0  0  0
  -12.7918  -10.4994   25.9829 C   0  0  0  0  0  0  0  0  0  0  0  0
  -13.9351  -10.3980   26.7528 N   0  0  0  0  0  0  0  0  0  0  0  0
  -15.1013   -9.9947   26.1949 C   0  0  0  0  0  0  0  0  0  0  0  0
  -15.1532   -9.6939   24.8394 C   0  0  0  0  0  0  0  0  0  0  0  0
  -14.0069   -9.7911   24.0600 C   0  0  0  0  0  0  0  0  0  0  0  0
  -14.0547   -9.4938   22.7637 N   0  0  0  0  0  0  0  0  0  0  0  0
  -16.4199   -9.3308   24.5439 N   0  0  0  0  0  0  0  0  0  0  0  0
  -17.1675   -9.4116   25.6696 C   0  0  0  0  0  0  0  0  0  0  0  0
  -16.3672   -9.8220   26.7029 N   0  0  0  0  0  0  0  0  0  0  0  0
  2  1  1  6  0  0  0
  2  3  1  0  0  0  0
  2  5  1  0  0  0  0
  3  4  1  0  0  0  0
  3 17  1  0  0  0  0
  5  6  1  0  0  0  0
  7  6  1  1  0  0  0
  7  8  1  0  0  0  0
  7  9  1  0  0  0  0
 10  9  1  6  0  0  0
 10 11  1  0  0  0  0
 10 12  1  0  0  0  0
 11 16  1  0  0  0  0
 12 13  1  1  0  0  0
 12 14  1  0  0  0  0
 14 15  1  1  0  0  0
 14 16  1  0  0  0  0
 16 27  1  6  0  0  0
 18 19  2  0  0  0  0
 18 23  1  0  0  0  0
 19 20  1  0  0  0  0
 20 21  2  0  0  0  0
 21 22  1  0  0  0  0
 21 27  1  0  0  0  0
 22 23  2  0  0  0  0
 22 25  1  0  0  0  0
 23 24  1  0  0  0  0
 25 26  2  0  0  0  0
 26 27  1  0  0  0  0
M  END
>  <CHROM.1>
160.48241867,-83.89546334,55.48720564,-95.46476548,-115.21829881,-102.18385526
154.12318339,-16.22470697,-7.33737812,28.43897679,-1.99743311,-0.96269890
-2.82464324

>  <Name>
ligand

>  <RI>
0

>  <Rbt.Current_Directory>
/home/itssahil/PROJECTS/Mol_Feturizer/New_Systems/rnas/3GX6

>  <Rbt.Executable>
rbdock ($Id: //depot/dev/client3/rdock/2013.1/src/exe/rbdock.cxx#4 $)

>  <Rbt.Library>
libRbt.so (2013.1, Build901 2013/11/27)

>  <Rbt.Parameter_File>
/export/apps/rDock/src/rDock_2013.1_src/data/scripts/dock_solv.prm

>  <Rbt.Receptor>
prm/pocket_docking_8.prm

>  <SCORE>
-14.0092

>  <SCORE.INTER>
-11.5069

>  <SCORE.INTER.CONST>
1

>  <SCORE.INTER.POLAR>
0

>  <SCORE.INTER.ROT>
7

>  <SCORE.INTER.SOLV>
13.9217

>  <SCORE.INTER.VDW>
-20.5785

>  <SCORE.INTER.norm>
-0.426182

>  <SCORE.INTRA>
-2.50233

>  <SCORE.INTRA.DIHEDRAL>
0.162719

>  <SCORE.INTRA.DIHEDRAL.0>
15.0182

>  <SCORE.INTRA.POLAR>
0

>  <SCORE.INTRA.POLAR.0>
0

>  <SCORE.INTRA.REPUL>
0

>  <SCORE.INTRA.REPUL.0>
0

>  <SCORE.INTRA.SOLV>
1.20734

>  <SCORE.INTRA.SOLV.lig_0>
-47.9129

>  <SCORE.INTRA.VDW>
-3.18736

>  <SCORE.INTRA.VDW.0>
2.00851

>  <SCORE.INTRA.norm>
-0.0926788

>  <SCORE.RESTR>
0

>  <SCORE.RESTR.CAVITY>
0

>  <SCORE.RESTR.norm>
0

>  <SCORE.SYSTEM>
0

>  <SCORE.SYSTEM.CONST>
0

>  <SCORE.SYSTEM.DIHEDRAL>
0

>  <SCORE.SYSTEM.SOLV>
0

>  <SCORE.SYSTEM.norm>
0

>  <SCORE.heavy>
27

>  <SCORE.norm>
-0.518861

>  <RMSD>
7.538

$$$$
ligand
 OpenBabel11021811483D
libRbt.so/2013.1/901 2013/11/27
 27 29  0  0  0  0  0  0  0  0999 V2000
  -14.9311   -4.1083   31.2655 N   0  0  0  0  0  0  0  0  0  0  0  0
  -13.9732   -4.2001   32.3641 C   0  0  2  0  0  0  0  0  0  0  0  0
  -13.1841   -2.9055   32.5410 C   0  0  0  0  0  0  0  0  0  0  0  0
  -12.8994   -2.4815   33.6633 O   0  0  0  0  0  0  0  0  0  0  0  0
  -13.0442   -5.3961   32.1779 C   0  0  0  0  0  0  0  0  0  0  0  0
  -13.7244   -6.7325   32.4317 C   0  0  0  0  0  0  0  0  0  0  0  0
  -14.1686   -7.0103   34.1643 S   0  0  2  0  0  0  0  0  0  0  0  0
  -12.5930   -7.6210   34.8131 C   0  0  0  0  0  0  0  0  0  0  0  0
  -15.1191   -8.5491   34.0340 C   0  0  0  0  0  0  0  0  0  0  0  0
  -16.4836   -8.2496   33.4301 C   0  0  1  0  0  0  0  0  0  0  0  0
  -17.2507   -9.4295   33.4622 O   0  0  0  0  0  0  0  0  0  0  0  0
  -17.3234   -7.2289   34.1751 C   0  0  1  0  0  0  0  0  0  0  0  0
  -17.1793   -5.9464   33.6066 O   0  0  0  0  0  0  0  0  0  0  0  0
  -18.7372   -7.7332   33.9686 C   0  0  1  0  0  0  0  0  0  0  0  0
  -19.3727   -6.9033   33.0278 O   0  0  0  0  0  0  0  0  0  0  0  0
  -18.6250   -9.1443   33.4073 C   0  0  2  0  0  0  0  0  0  0  0  0
  -12.8201   -2.2549   31.5613 O   0  0  0  0  0  0  0  0  0  0  0  0
  -19.1640  -10.9927   38.3133 N   0  0  0  0  0  0  0  0  0  0  0  0
  -18.2904  -10.0246   37.8588 C   0  0  0  0  0  0  0  0  0  0  0  0
  -18.2790   -9.6569   36.5266 N   0  0  0  0  0  0  0  0  0  0  0  0
  -19.1236  -10.2467   35.6475 C   0  0  0  0  0  0  0  0  0  0  0  0
  -20.0156  -11.2166   36.0881 C   0  0  0  0  0  0  0  0  0  0  0  0
  -20.0306  -11.5930   37.4257 C   0  0  0  0  0  0  0  0  0  0  0  0
  -20.8784  -12.5288   37.8456 N   0  0  0  0  0  0  0  0  0  0  0  0
  -20.7376  -11.6294   35.0242 N   0  0  0  0  0  0  0  0  0  0  0  0
  -20.3371  -10.9350   33.9332 C   0  0  0  0  0  0  0  0  0  0  0  0
  -19.3378  -10.0730   34.3006 N   0  0  0  0  0  0  0  0  0  0  0  0
  2  1  1  6  0  0  0
  2  3  1  0  0  0  0
  2  5  1  0  0  0  0
  3  4  1  0  0  0  0
  3 17  1  0  0  0  0
  5  6  1  0  0  0  0
  7  6  1  6  0  0  0
  7  8  1  0  0  0  0
  7  9  1  0  0  0  0
 10  9  1  1  0  0  0
 10 11  1  0  0  0  0
 10 12  1  0  0  0  0
 11 16  1  0  0  0  0
 12 13  1  6  0  0  0
 12 14  1  0  0  0  0
 14 15  1  6  0  0  0
 14 16  1  0  0  0  0
 16 27  1  1  0  0  0
 18 19  2  0  0  0  0
 18 23  1  0  0  0  0
 19 20  1  0  0  0  0
 20 21  2  0  0  0  0
 21 22  1  0  0  0  0
 21 27  1  0  0  0  0
 22 23  2  0  0  0  0
 22 25  1  0  0  0  0
 23 24  1  0  0  0  0
 25 26  2  0  0  0  0
 26 27  1  0  0  0  0
M  END
>  <CHROM.1>
141.50430199,-72.77518025,-68.62758490,-83.21170894,-74.14859575,-174.19980716
57.37548957,-16.73334670,-7.80650177,34.26883926,0.82000402,-0.36761685,-0.81428037

>  <Name>
ligand

>  <RI>
0

>  <Rbt.Current_Directory>
/home/itssahil/PROJECTS/Mol_Feturizer/New_Systems/rnas/3GX6

>  <Rbt.Executable>
rbdock ($Id: //depot/dev/client3/rdock/2013.1/src/exe/rbdock.cxx#4 $)

>  <Rbt.Library>
libRbt.so (2013.1, Build901 2013/11/27)

>  <Rbt.Parameter_File>
/export/apps/rDock/src/rDock_2013.1_src/data/scripts/dock_solv.prm

>  <Rbt.Receptor>
prm/pocket_docking_8.prm

>  <SCORE>
-24.567

>  <SCORE.INTER>
-14.0167

>  <SCORE.INTER.CONST>
1

>  <SCORE.INTER.POLAR>
0

>  <SCORE.INTER.ROT>
7

>  <SCORE.INTER.SOLV>
6.99547

>  <SCORE.INTER.VDW>
-19.943

>  <SCORE.INTER.norm>
-0.519137

>  <SCORE.INTRA>
-10.5503

>  <SCORE.INTRA.DIHEDRAL>
-10.025

>  <SCORE.INTRA.DIHEDRAL.0>
15.0182

>  <SCORE.INTRA.POLAR>
0

>  <SCORE.INTRA.POLAR.0>
0

>  <SCORE.INTRA.REPUL>
0

>  <SCORE.INTRA.REPUL.0>
0

>  <SCORE.INTRA.SOLV>
-0.0551085

>  <SCORE.INTRA.SOLV.lig_0>
-47.9129

>  <SCORE.INTRA.VDW>
-5.51023

>  <SCORE.INTRA.VDW.0>
2.00851

>  <SCORE.INTRA.norm>
-0.390751

>  <SCORE.RESTR>
0

>  <SCORE.RESTR.CAVITY>
0

>  <SCORE.RESTR.norm>
0

>  <SCORE.SYSTEM>
0

>  <SCORE.SYSTEM.CONST>
0

>  <SCORE.SYSTEM.DIHEDRAL>
0

>  <SCORE.SYSTEM.SOLV>
0

>  <SCORE.SYSTEM.norm>
0

>  <SCORE.heavy>
27

>  <SCORE.norm>
-0.909888

>  <RMSD>
7.542

$$$$
ligand
 OpenBabel11021811483D
libRbt.so/2013.1/901 2013/11/27
 27 29  0  0  0  0  0  0  0  0999 V2000
  -15.6881   -0.8027   32.0604 N   0  0  0  0  0  0  0  0  0  0  0  0
  -15.1236   -2.0962   31.6845 C   0  0  2  0  0  0  0  0  0  0  0  0
  -16.1616   -3.2130   31.7571 C   0  0  0  0  0  0  0  0  0  0  0  0
  -16.8696   -3.3605   32.7558 O   0  0  0  0  0  0  0  0  0  0  0  0
  -13.8968   -2.4218   32.5311 C   0  0  0  0  0  0  0  0  0  0  0  0
  -13.0316   -3.5237   31.9392 C   0  0  0  0  0  0  0  0  0  0  0  0
  -13.7220   -5.1846   32.1416 S   0  0  2  0  0  0  0  0  0  0  0  0
  -13.2167   -5.5450   33.8420 C   0  0  0  0  0  0  0  0  0  0  0  0
  -12.5274   -6.1716   31.1997 C   0  0  0  0  0  0  0  0  0  0  0  0
  -12.5689   -5.7528   29.7371 C   0  0  1  0  0  0  0  0  0  0  0  0
  -11.4242   -6.2647   29.0974 O   0  0  0  0  0  0  0  0  0  0  0  0
  -13.7322   -6.2970   28.9294 C   0  0  1  0  0  0  0  0  0  0  0  0
  -14.7833   -5.3591   28.8648 O   0  0  0  0  0  0  0  0  0  0  0  0
  -13.1292   -6.4976   27.5539 C   0  0  1  0  0  0  0  0  0  0  0  0
  -13.6026   -5.4790   26.7077 O   0  0  0  0  0  0  0  0  0  0  0  0
  -11.6201   -6.3677   27.7103 C   0  0  2  0  0  0  0  0  0  0  0  0
  -16.3080   -3.9943   30.8170 O   0  0  0  0  0  0  0  0  0  0  0  0
   -9.8065   -9.0663   23.5626 N   0  0  0  0  0  0  0  0  0  0  0  0
  -10.3874   -7.8136   23.5760 C   0  0  0  0  0  0  0  0  0  0  0  0
  -10.8136   -7.2486   24.7632 N   0  0  0  0  0  0  0  0  0  0  0  0
  -10.6703   -7.9205   25.9301 C   0  0  0  0  0  0  0  0  0  0  0  0
  -10.0802   -9.1784   25.9373 C   0  0  0  0  0  0  0  0  0  0  0  0
   -9.6520   -9.7536   24.7470 C   0  0  0  0  0  0  0  0  0  0  0  0
   -9.0955  -10.9625   24.7529 N   0  0  0  0  0  0  0  0  0  0  0  0
  -10.0537   -9.6163   27.2145 N   0  0  0  0  0  0  0  0  0  0  0  0
  -10.5935   -8.6635   28.0104 C   0  0  0  0  0  0  0  0  0  0  0  0
  -10.9809   -7.6050   27.2318 N   0  0  0  0  0  0  0  0  0  0  0  0
  2  1  1  1  0  0  0
  2  3  1  0  0  0  0
  2  5  1  0  0  0  0
  3  4  1  0  0  0  0
  3 17  1  0  0  0  0
  5  6  1  0  0  0  0
  7  6  1  6  0  0  0
  7  8  1  0  0  0  0
  7  9  1  0  0  0  0
 10  9  1  1  0  0  0
 10 11  1  0  0  0  0
 10 12  1  0  0  0  0
 11 16  1  0  0  0  0
 12 13  1  6  0  0  0
 12 14  1  0  0  0  0
 14 15  1  6  0  0  0
 14 16  1  0  0  0  0
 16 27  1  1  0  0  0
 18 19  2  0  0  0  0
 18 23  1  0  0  0  0
 19 20  1  0  0  0  0
 20 21  2  0  0  0  0
 21 22  1  0  0  0  0
 21 27  1  0  0  0  0
 22 23  2  0  0  0  0
 22 25  1  0  0  0  0
 23 24  1  0  0  0  0
 25 26  2  0  0  0  0
 26 27  1  0  0  0  0
M  END
>  <CHROM.1>
-49.39333810,-163.01895406,-75.58843313,-81.31540520,-63.55004344,165.08279176
-163.58523945,-12.71403434,-6.03540080,28.96020044,2.35440603,-0.81893957
1.52413929

>  <Name>
ligand

>  <RI>
0

>  <Rbt.Current_Directory>
/home/itssahil/PROJECTS/Mol_Feturizer/New_Systems/rnas/3GX6

>  <Rbt.Executable>
rbdock ($Id: //depot/dev/client3/rdock/2013.1/src/exe/rbdock.cxx#4 $)

>  <Rbt.Library>
libRbt.so (2013.1, Build901 2013/11/27)

>  <Rbt.Parameter_File>
/export/apps/rDock/src/rDock_2013.1_src/data/scripts/dock_solv.prm

>  <Rbt.Receptor>
prm/pocket_docking_8.prm

>  <SCORE>
-23.0363

>  <SCORE.INTER>
-12.3727

>  <SCORE.INTER.CONST>
1

>  <SCORE.INTER.POLAR>
0

>  <SCORE.INTER.ROT>
7

>  <SCORE.INTER.SOLV>
15.5006

>  <SCORE.INTER.VDW>
-21.682

>  <SCORE.INTER.norm>
-0.458248

>  <SCORE.INTRA>
-10.6637

>  <SCORE.INTRA.DIHEDRAL>
-8.64057

>  <SCORE.INTRA.DIHEDRAL.0>
15.0182

>  <SCORE.INTRA.POLAR>
0

>  <SCORE.INTRA.POLAR.0>
0

>  <SCORE.INTRA.REPUL>
0

>  <SCORE.INTRA.REPUL.0>
0

>  <SCORE.INTRA.SOLV>
-1.39718

>  <SCORE.INTRA.SOLV.lig_0>
-47.9129

>  <SCORE.INTRA.VDW>
-5.64478

>  <SCORE.INTRA.VDW.0>
2.00851

>  <SCORE.INTRA.norm>
-0.39495

>  <SCORE.RESTR>
0

>  <SCORE.RESTR.CAVITY>
0

>  <SCORE.RESTR.norm>
0

>  <SCORE.SYSTEM>
0

>  <SCORE.SYSTEM.CONST>
0

>  <SCORE.SYSTEM.DIHEDRAL>
0

>  <SCORE.SYSTEM.SOLV>
0

>  <SCORE.SYSTEM.norm>
0

>  <SCORE.heavy>
27

>  <SCORE.norm>
-0.853198

>  <RMSD>
7.559

$$$$
ligand
 OpenBabel11021811483D
libRbt.so/2013.1/901 2013/11/27
 27 29  0  0  0  0  0  0  0  0999 V2000
  -16.4549   -5.6632   31.5213 N   0  0  0  0  0  0  0  0  0  0  0  0
  -15.5317   -5.2229   30.4789 C   0  0  2  0  0  0  0  0  0  0  0  0
  -15.7999   -3.7820   30.0524 C   0  0  0  0  0  0  0  0  0  0  0  0
  -14.9446   -2.9056   30.1960 O   0  0  0  0  0  0  0  0  0  0  0  0
  -15.5664   -6.1717   29.2845 C   0  0  0  0  0  0  0  0  0  0  0  0
  -14.9771   -7.5410   29.5855 C   0  0  0  0  0  0  0  0  0  0  0  0
  -15.1459   -8.7251   28.2270 S   0  0  2  0  0  0  0  0  0  0  0  0
  -16.8841   -9.1940   28.4146 C   0  0  0  0  0  0  0  0  0  0  0  0
  -14.3099  -10.1742   28.9268 C   0  0  0  0  0  0  0  0  0  0  0  0
  -12.9726  -10.3716   28.2277 C   0  0  1  0  0  0  0  0  0  0  0  0
  -13.2204  -10.8188   26.9161 O   0  0  0  0  0  0  0  0  0  0  0  0
  -12.1312   -9.1215   28.0515 C   0  0  1  0  0  0  0  0  0  0  0  0
  -11.1775   -9.0062   29.0839 O   0  0  0  0  0  0  0  0  0  0  0  0
  -11.4364   -9.3610   26.7263 C   0  0  1  0  0  0  0  0  0  0  0  0
  -10.0921   -9.6860   26.9812 O   0  0  0  0  0  0  0  0  0  0  0  0
  -12.1308  -10.5478   26.0721 C   0  0  2  0  0  0  0  0  0  0  0  0
  -16.8828   -3.4660   29.5593 O   0  0  0  0  0  0  0  0  0  0  0  0
  -14.4159   -6.7435   23.2294 N   0  0  0  0  0  0  0  0  0  0  0  0
  -14.0729   -6.7183   24.5668 C   0  0  0  0  0  0  0  0  0  0  0  0
  -13.4767   -7.8146   25.1608 N   0  0  0  0  0  0  0  0  0  0  0  0
  -13.2254   -8.9315   24.4375 C   0  0  0  0  0  0  0  0  0  0  0  0
  -13.5557   -8.9721   23.0885 C   0  0  0  0  0  0  0  0  0  0  0  0
  -14.1578   -7.8745   22.4856 C   0  0  0  0  0  0  0  0  0  0  0  0
  -14.4828   -7.9171   21.1957 N   0  0  0  0  0  0  0  0  0  0  0  0
  -13.1955  -10.1825   22.6100 N   0  0  0  0  0  0  0  0  0  0  0  0
  -12.6335  -10.8955   23.6142 C   0  0  0  0  0  0  0  0  0  0  0  0
  -12.6429  -10.1360   24.7543 N   0  0  0  0  0  0  0  0  0  0  0  0
  2  1  1  1  0  0  0
  2  3  1  0  0  0  0
  2  5  1  0  0  0  0
  3  4  1  0  0  0  0
  3 17  1  0  0  0  0
  5  6  1  0  0  0  0
  7  6  1  1  0  0  0
  7  8  1  0  0  0  0
  7  9  1  0  0  0  0
 10  9  1  6  0  0  0
 10 11  1  0  0  0  0
 10 12  1  0  0  0  0
 11 16  1  0  0  0  0
 12 13  1  1  0  0  0
 12 14  1  0  0  0  0
 14 15  1  1  0  0  0
 14 16  1  0  0  0  0
 16 27  1  6  0  0  0
 18 19  2  0  0  0  0
 18 23  1  0  0  0  0
 19 20  1  0  0  0  0
 20 21  2  0  0  0  0
 21 22  1  0  0  0  0
 21 27  1  0  0  0  0
 22 23  2  0  0  0  0
 22 25  1  0  0  0  0
 23 24  1  0  0  0  0
 25 26  2  0  0  0  0
 26 27  1  0  0  0  0
M  END
>  <CHROM.1>
118.32855787,-68.87305496,174.77353474,-77.69869802,-107.89896501,-71.02724386
73.63003803,-13.97035717,-8.07792766,26.95989671,-2.26511013,0.97934995,-1.58467623

>  <Name>
ligand

>  <RI>
0

>  <Rbt.Current_Directory>
/home/itssahil/PROJECTS/Mol_Feturizer/New_Systems/rnas/3GX6

>  <Rbt.Executable>
rbdock ($Id: //depot/dev/client3/rdock/2013.1/src/exe/rbdock.cxx#4 $)

>  <Rbt.Library>
libRbt.so (2013.1, Build901 2013/11/27)

>  <Rbt.Parameter_File>
/export/apps/rDock/src/rDock_2013.1_src/data/scripts/dock_solv.prm

>  <Rbt.Receptor>
prm/pocket_docking_7.prm

>  <SCORE>
-14.4334

>  <SCORE.INTER>
-5.13575

>  <SCORE.INTER.CONST>
1

>  <SCORE.INTER.POLAR>
0

>  <SCORE.INTER.ROT>
7

>  <SCORE.INTER.SOLV>
8.35611

>  <SCORE.INTER.VDW>
-14.4759

>  <SCORE.INTER.norm>
-0.190213

>  <SCORE.INTRA>
-9.29763

>  <SCORE.INTRA.DIHEDRAL>
-7.53029

>  <SCORE.INTRA.DIHEDRAL.0>
15.0182

>  <SCORE.INTRA.POLAR>
0

>  <SCORE.INTRA.POLAR.0>
0

>  <SCORE.INTRA.REPUL>
0

>  <SCORE.INTRA.REPUL.0>
0

>  <SCORE.INTRA.SOLV>
-0.895336

>  <SCORE.INTRA.SOLV.lig_0>
-47.9129

>  <SCORE.INTRA.VDW>
-5.08482

>  <SCORE.INTRA.VDW.0>
2.00851

>  <SCORE.INTRA.norm>
-0.344357

>  <SCORE.RESTR>
0

>  <SCORE.RESTR.CAVITY>
0

>  <SCORE.RESTR.norm>
0

>  <SCORE.SYSTEM>
0

>  <SCORE.SYSTEM.CONST>
0

>  <SCORE.SYSTEM.DIHEDRAL>
0

>  <SCORE.SYSTEM.SOLV>
0

>  <SCORE.SYSTEM.norm>
0

>  <SCORE.heavy>
27

>  <SCORE.norm>
-0.534569

>  <RMSD>
7.598

$$$$
ligand
 OpenBabel11021811483D
libRbt.so/2013.1/901 2013/11/27
 27 29  0  0  0  0  0  0  0  0999 V2000
  -20.6609   -7.8435   29.2201 N   0  0  0  0  0  0  0  0  0  0  0  0
  -19.5232   -7.3818   30.0109 C   0  0  2  0  0  0  0  0  0  0  0  0
  -19.2408   -5.8981   29.7896 C   0  0  0  0  0  0  0  0  0  0  0  0
  -18.6209   -5.2363   30.6251 O   0  0  0  0  0  0  0  0  0  0  0  0
  -18.2862   -8.2305   29.7326 C   0  0  0  0  0  0  0  0  0  0  0  0
  -17.1767   -8.0312   30.7536 C   0  0  0  0  0  0  0  0  0  0  0  0
  -15.6782   -8.9832   30.4011 S   0  0  2  0  0  0  0  0  0  0  0  0
  -14.7180   -8.6503   31.8990 C   0  0  0  0  0  0  0  0  0  0  0  0
  -14.8547   -7.8989   29.2033 C   0  0  0  0  0  0  0  0  0  0  0  0
  -15.5578   -8.0073   27.8579 C   0  0  1  0  0  0  0  0  0  0  0  0
  -14.8976   -7.1644   26.9440 O   0  0  0  0  0  0  0  0  0  0  0  0
  -15.5239   -9.3769   27.2061 C   0  0  1  0  0  0  0  0  0  0  0  0
  -16.7032  -10.0977   27.4860 O   0  0  0  0  0  0  0  0  0  0  0  0
  -15.4526   -9.0505   25.7282 C   0  0  1  0  0  0  0  0  0  0  0  0
  -16.7113   -9.3053   25.1550 O   0  0  0  0  0  0  0  0  0  0  0  0
  -15.1360   -7.5651   25.6190 C   0  0  2  0  0  0  0  0  0  0  0  0
  -19.6334   -5.3311   28.7698 O   0  0  0  0  0  0  0  0  0  0  0  0
   -9.8678   -7.7084   25.6481 N   0  0  0  0  0  0  0  0  0  0  0  0
  -10.7327   -7.9602   26.6948 C   0  0  0  0  0  0  0  0  0  0  0  0
  -12.1002   -7.8748   26.5134 N   0  0  0  0  0  0  0  0  0  0  0  0
  -12.6096   -7.5376   25.3048 C   0  0  0  0  0  0  0  0  0  0  0  0
  -11.7551   -7.2891   24.2377 C   0  0  0  0  0  0  0  0  0  0  0  0
  -10.3791   -7.3706   24.4138 C   0  0  0  0  0  0  0  0  0  0  0  0
   -9.5605   -7.1231   23.3941 N   0  0  0  0  0  0  0  0  0  0  0  0
  -12.5130   -6.9863   23.1619 N   0  0  0  0  0  0  0  0  0  0  0  0
  -13.8173   -7.0546   23.5178 C   0  0  0  0  0  0  0  0  0  0  0  0
  -13.8965   -7.3954   24.8423 N   0  0  0  0  0  0  0  0  0  0  0  0
  2  1  1  6  0  0  0
  2  3  1  0  0  0  0
  2  5  1  0  0  0  0
  3  4  1  0  0  0  0
  3 17  1  0  0  0  0
  5  6  1  0  0  0  0
  7  6  1  1  0  0  0
  7  8  1  0  0  0  0
  7  9  1  0  0  0  0
 10  9  1  1  0  0  0
 10 11  1  0  0  0  0
 10 12  1  0  0  0  0
 11 16  1  0  0  0  0
 12 13  1  6  0  0  0
 12 14  1  0  0  0  0
 14 15  1  6  0  0  0
 14 16  1  0  0  0  0
 16 27  1  6  0  0  0
 18 19  2  0  0  0  0
 18 23  1  0  0  0  0
 19 20  1  0  0  0  0
 20 21  2  0  0  0  0
 21 22  1  0  0  0  0
 21 27  1  0  0  0  0
 22 23  2  0  0  0  0
 22 25  1  0  0  0  0
 23 24  1  0  0  0  0
 25 26  2  0  0  0  0
 26 27  1  0  0  0  0
M  END
>  <CHROM.1>
157.80297402,-165.88552916,-177.75592431,-173.28525331,-75.24647754,-179.66387362
32.55206772,-15.15467745,-7.77966222,27.41253352,2.49474054,-0.16333934,1.75693206

>  <Name>
ligand

>  <RI>
0

>  <Rbt.Current_Directory>
/home/itssahil/PROJECTS/Mol_Feturizer/New_Systems/rnas/3GX6

>  <Rbt.Executable>
rbdock ($Id: //depot/dev/client3/rdock/2013.1/src/exe/rbdock.cxx#4 $)

>  <Rbt.Library>
libRbt.so (2013.1, Build901 2013/11/27)

>  <Rbt.Parameter_File>
/export/apps/rDock/src/rDock_2013.1_src/data/scripts/dock_solv.prm

>  <Rbt.Receptor>
prm/pocket_docking_8.prm

>  <SCORE>
-17.5421

>  <SCORE.INTER>
-6.16289

>  <SCORE.INTER.CONST>
1

>  <SCORE.INTER.POLAR>
0

>  <SCORE.INTER.ROT>
7

>  <SCORE.INTER.SOLV>
14.3917

>  <SCORE.INTER.VDW>
-17.1725

>  <SCORE.INTER.norm>
-0.228255

>  <SCORE.INTRA>
-11.3792

>  <SCORE.INTRA.DIHEDRAL>
-10.3112

>  <SCORE.INTRA.DIHEDRAL.0>
15.0182

>  <SCORE.INTRA.POLAR>
0

>  <SCORE.INTRA.POLAR.0>
0

>  <SCORE.INTRA.REPUL>
0

>  <SCORE.INTRA.REPUL.0>
0

>  <SCORE.INTRA.SOLV>
-1.37095

>  <SCORE.INTRA.SOLV.lig_0>
-47.9129

>  <SCORE.INTRA.VDW>
-5.53809

>  <SCORE.INTRA.VDW.0>
2.00851

>  <SCORE.INTRA.norm>
-0.421451

>  <SCORE.RESTR>
0

>  <SCORE.RESTR.CAVITY>
0

>  <SCORE.RESTR.norm>
0

>  <SCORE.SYSTEM>
0

>  <SCORE.SYSTEM.CONST>
0

>  <SCORE.SYSTEM.DIHEDRAL>
0

>  <SCORE.SYSTEM.SOLV>
0

>  <SCORE.SYSTEM.norm>
0

>  <SCORE.heavy>
27

>  <SCORE.norm>
-0.649706

>  <RMSD>
7.628

$$$$
ligand
 OpenBabel11021811483D
libRbt.so/2013.1/901 2013/11/27
 27 29  0  0  0  0  0  0  0  0999 V2000
  -12.4746   -3.1665   31.5459 N   0  0  0  0  0  0  0  0  0  0  0  0
  -13.8355   -2.8693   31.1071 C   0  0  2  0  0  0  0  0  0  0  0  0
  -14.7820   -2.6636   32.2869 C   0  0  0  0  0  0  0  0  0  0  0  0
  -15.5500   -1.6998   32.3267 O   0  0  0  0  0  0  0  0  0  0  0  0
  -14.3515   -3.9509   30.1627 C   0  0  0  0  0  0  0  0  0  0  0  0
  -15.7839   -3.7194   29.7070 C   0  0  0  0  0  0  0  0  0  0  0  0
  -16.3453   -4.8822   28.4385 S   0  0  2  0  0  0  0  0  0  0  0  0
  -18.0808   -4.3905   28.2876 C   0  0  0  0  0  0  0  0  0  0  0  0
  -16.4916   -6.4070   29.4091 C   0  0  0  0  0  0  0  0  0  0  0  0
  -17.0744   -7.5078   28.5344 C   0  0  1  0  0  0  0  0  0  0  0  0
  -16.1712   -7.7649   27.4858 O   0  0  0  0  0  0  0  0  0  0  0  0
  -17.2668   -8.8526   29.2099 C   0  0  1  0  0  0  0  0  0  0  0  0
  -18.5913   -9.0000   29.6710 O   0  0  0  0  0  0  0  0  0  0  0  0
  -16.9926   -9.8387   28.0926 C   0  0  1  0  0  0  0  0  0  0  0  0
  -18.2182  -10.3822   27.6680 O   0  0  0  0  0  0  0  0  0  0  0  0
  -16.3643   -9.0497   26.9518 C   0  0  2  0  0  0  0  0  0  0  0  0
  -14.7922   -3.4577   33.2276 O   0  0  0  0  0  0  0  0  0  0  0  0
  -12.9887  -10.4924   23.1704 N   0  0  0  0  0  0  0  0  0  0  0  0
  -14.2398   -9.9261   23.0249 C   0  0  0  0  0  0  0  0  0  0  0  0
  -15.0014   -9.6087   24.1337 N   0  0  0  0  0  0  0  0  0  0  0  0
  -14.5305   -9.8542   25.3794 C   0  0  0  0  0  0  0  0  0  0  0  0
  -13.2705  -10.4155   25.5456 C   0  0  0  0  0  0  0  0  0  0  0  0
  -12.5005  -10.7396   24.4352 C   0  0  0  0  0  0  0  0  0  0  0  0
  -11.2976  -11.2861   24.5943 N   0  0  0  0  0  0  0  0  0  0  0  0
  -13.0462  -10.5452   26.8709 N   0  0  0  0  0  0  0  0  0  0  0  0
  -14.1205  -10.0660   27.5410 C   0  0  0  0  0  0  0  0  0  0  0  0
  -15.0503   -9.6329   26.6329 N   0  0  0  0  0  0  0  0  0  0  0  0
  2  1  1  1  0  0  0
  2  3  1  0  0  0  0
  2  5  1  0  0  0  0
  3  4  1  0  0  0  0
  3 17  1  0  0  0  0
  5  6  1  0  0  0  0
  7  6  1  1  0  0  0
  7  8  1  0  0  0  0
  7  9  1  0  0  0  0
 10  9  1  1  0  0  0
 10 11  1  0  0  0  0
 10 12  1  0  0  0  0
 11 16  1  0  0  0  0
 12 13  1  6  0  0  0
 12 14  1  0  0  0  0
 14 15  1  6  0  0  0
 14 16  1  0  0  0  0
 16 27  1  1  0  0  0
 18 19  2  0  0  0  0
 18 23  1  0  0  0  0
 19 20  1  0  0  0  0
 20 21  2  0  0  0  0
 21 22  1  0  0  0  0
 21 27  1  0  0  0  0
 22 23  2  0  0  0  0
 22 25  1  0  0  0  0
 23 24  1  0  0  0  0
 25 26  2  0  0  0  0
 26 27  1  0  0  0  0
M  END
>  <CHROM.1>
132.53144024,178.10333907,173.19911727,175.00245900,175.27675109,63.39129785
-109.17253650,-15.28102288,-7.28607750,28.09441872,-1.69863107,-0.28839638
-2.46636675

>  <Name>
ligand

>  <RI>
0

>  <Rbt.Current_Directory>
/home/itssahil/PROJECTS/Mol_Feturizer/New_Systems/rnas/3GX6

>  <Rbt.Executable>
rbdock ($Id: //depot/dev/client3/rdock/2013.1/src/exe/rbdock.cxx#4 $)

>  <Rbt.Library>
libRbt.so (2013.1, Build901 2013/11/27)

>  <Rbt.Parameter_File>
/export/apps/rDock/src/rDock_2013.1_src/data/scripts/dock_solv.prm

>  <Rbt.Receptor>
prm/pocket_docking_7.prm

>  <SCORE>
-19.3394

>  <SCORE.INTER>
-8.77264

>  <SCORE.INTER.CONST>
1

>  <SCORE.INTER.POLAR>
0

>  <SCORE.INTER.ROT>
7

>  <SCORE.INTER.SOLV>
17.9635

>  <SCORE.INTER.VDW>
-20.1029

>  <SCORE.INTER.norm>
-0.324913

>  <SCORE.INTRA>
-10.5668

>  <SCORE.INTRA.DIHEDRAL>
-11.5097

>  <SCORE.INTRA.DIHEDRAL.0>
15.0182

>  <SCORE.INTRA.POLAR>
0

>  <SCORE.INTRA.POLAR.0>
0

>  <SCORE.INTRA.REPUL>
0

>  <SCORE.INTRA.REPUL.0>
0

>  <SCORE.INTRA.SOLV>
-1.87394

>  <SCORE.INTRA.SOLV.lig_0>
-47.9129

>  <SCORE.INTRA.VDW>
-3.87495

>  <SCORE.INTRA.VDW.0>
2.00851

>  <SCORE.INTRA.norm>
-0.391361

>  <SCORE.RESTR>
0

>  <SCORE.RESTR.CAVITY>
0

>  <SCORE.RESTR.norm>
0

>  <SCORE.SYSTEM>
0

>  <SCORE.SYSTEM.CONST>
0

>  <SCORE.SYSTEM.DIHEDRAL>
0

>  <SCORE.SYSTEM.SOLV>
0

>  <SCORE.SYSTEM.norm>
0

>  <SCORE.heavy>
27

>  <SCORE.norm>
-0.716274

>  <RMSD>
7.769

$$$$
ligand
 OpenBabel11021811483D
libRbt.so/2013.1/901 2013/11/27
 27 29  0  0  0  0  0  0  0  0999 V2000
  -16.1535   -2.4384   32.1639 N   0  0  0  0  0  0  0  0  0  0  0  0
  -16.5756   -3.7268   32.7067 C   0  0  2  0  0  0  0  0  0  0  0  0
  -15.3844   -4.6129   33.0614 C   0  0  0  0  0  0  0  0  0  0  0  0
  -14.2288   -4.2474   32.8344 O   0  0  0  0  0  0  0  0  0  0  0  0
  -17.5295   -4.4349   31.7494 C   0  0  0  0  0  0  0  0  0  0  0  0
  -16.9916   -4.5394   30.3306 C   0  0  0  0  0  0  0  0  0  0  0  0
  -18.1421   -5.3129   29.1668 S   0  0  2  0  0  0  0  0  0  0  0  0
  -17.9487   -7.0540   29.6225 C   0  0  0  0  0  0  0  0  0  0  0  0
  -17.1806   -5.2391   27.6311 C   0  0  0  0  0  0  0  0  0  0  0  0
  -15.7722   -5.7532   27.8925 C   0  0  1  0  0  0  0  0  0  0  0  0
  -15.4984   -6.7820   26.9715 O   0  0  0  0  0  0  0  0  0  0  0  0
  -14.6552   -4.7479   27.6838 C   0  0  1  0  0  0  0  0  0  0  0  0
  -14.2849   -4.1455   28.9039 O   0  0  0  0  0  0  0  0  0  0  0  0
  -13.5191   -5.6028   27.1602 C   0  0  1  0  0  0  0  0  0  0  0  0
  -12.5732   -5.7641   28.1883 O   0  0  0  0  0  0  0  0  0  0  0  0
  -14.1152   -6.9573   26.8013 C   0  0  2  0  0  0  0  0  0  0  0  0
  -15.5568   -5.7167   33.5785 O   0  0  0  0  0  0  0  0  0  0  0  0
  -15.5523   -9.6258   22.4898 N   0  0  0  0  0  0  0  0  0  0  0  0
  -16.1355   -9.6512   23.7413 C   0  0  0  0  0  0  0  0  0  0  0  0
  -15.6249   -8.8835   24.7709 N   0  0  0  0  0  0  0  0  0  0  0  0
  -14.5407   -8.0986   24.5655 C   0  0  0  0  0  0  0  0  0  0  0  0
  -13.9457   -8.0536   23.3107 C   0  0  0  0  0  0  0  0  0  0  0  0
  -14.4523   -8.8249   22.2717 C   0  0  0  0  0  0  0  0  0  0  0  0
  -13.8765   -8.7890   21.0724 N   0  0  0  0  0  0  0  0  0  0  0  0
  -12.9029   -7.1982   23.3770 N   0  0  0  0  0  0  0  0  0  0  0  0
  -12.8367   -6.6924   24.6310 C   0  0  0  0  0  0  0  0  0  0  0  0
  -13.8442   -7.2386   25.3815 N   0  0  0  0  0  0  0  0  0  0  0  0
  2  1  1  6  0  0  0
  2  3  1  0  0  0  0
  2  5  1  0  0  0  0
  3  4  1  0  0  0  0
  3 17  1  0  0  0  0
  5  6  1  0  0  0  0
  7  6  1  1  0  0  0
  7  8  1  0  0  0  0
  7  9  1  0  0  0  0
 10  9  1  6  0  0  0
 10 11  1  0  0  0  0
 10 12  1  0  0  0  0
 11 16  1  0  0  0  0
 12 13  1  1  0  0  0
 12 14  1  0  0  0  0
 14 15  1  1  0  0  0
 14 16  1  0  0  0  0
 16 27  1  6  0  0  0
 18 19  2  0  0  0  0
 18 23  1  0  0  0  0
 19 20  1  0  0  0  0
 20 21  2  0  0  0  0
 21 22  1  0  0  0  0
 21 27  1  0  0  0  0
 22 23  2  0  0  0  0
 22 25  1  0  0  0  0
 23 24  1  0  0  0  0
 25 26  2  0  0  0  0
 26 27  1  0  0  0  0
M  END
>  <CHROM.1>
-3.00025115,51.85697614,-177.47954689,-76.87448433,48.20902391,125.74619099
-44.44498289,-15.32656271,-6.20282200,27.69005168,-1.77056607,-0.23878816
-2.05388277

>  <Name>
ligand

>  <RI>
0

>  <Rbt.Current_Directory>
/home/itssahil/PROJECTS/Mol_Feturizer/New_Systems/rnas/3GX6

>  <Rbt.Executable>
rbdock ($Id: //depot/dev/client3/rdock/2013.1/src/exe/rbdock.cxx#4 $)

>  <Rbt.Library>
libRbt.so (2013.1, Build901 2013/11/27)

>  <Rbt.Parameter_File>
/export/apps/rDock/src/rDock_2013.1_src/data/scripts/dock_solv.prm

>  <Rbt.Receptor>
prm/pocket_docking_8.prm

>  <SCORE>
-15.597

>  <SCORE.INTER>
-9.3561

>  <SCORE.INTER.CONST>
1

>  <SCORE.INTER.POLAR>
0

>  <SCORE.INTER.ROT>
7

>  <SCORE.INTER.SOLV>
12.0044

>  <SCORE.INTER.VDW>
-18.5055

>  <SCORE.INTER.norm>
-0.346522

>  <SCORE.INTRA>
-6.24092

>  <SCORE.INTRA.DIHEDRAL>
-6.17302

>  <SCORE.INTRA.DIHEDRAL.0>
15.0182

>  <SCORE.INTRA.POLAR>
0

>  <SCORE.INTRA.POLAR.0>
0

>  <SCORE.INTRA.REPUL>
0

>  <SCORE.INTRA.REPUL.0>
0

>  <SCORE.INTRA.SOLV>
-0.587464

>  <SCORE.INTRA.SOLV.lig_0>
-47.9129

>  <SCORE.INTRA.VDW>
-2.86068

>  <SCORE.INTRA.VDW.0>
2.00851

>  <SCORE.INTRA.norm>
-0.231145

>  <SCORE.RESTR>
0

>  <SCORE.RESTR.CAVITY>
0

>  <SCORE.RESTR.norm>
0

>  <SCORE.SYSTEM>
0

>  <SCORE.SYSTEM.CONST>
0

>  <SCORE.SYSTEM.DIHEDRAL>
0

>  <SCORE.SYSTEM.SOLV>
0

>  <SCORE.SYSTEM.norm>
0

>  <SCORE.heavy>
27

>  <SCORE.norm>
-0.577667

>  <RMSD>
7.888

$$$$
ligand
 OpenBabel11021811483D
libRbt.so/2013.1/901 2013/11/27
 27 29  0  0  0  0  0  0  0  0999 V2000
  -14.1365   -4.7415   33.3084 N   0  0  0  0  0  0  0  0  0  0  0  0
  -13.8577   -4.1621   31.9971 C   0  0  2  0  0  0  0  0  0  0  0  0
  -13.9610   -2.6392   32.0140 C   0  0  0  0  0  0  0  0  0  0  0  0
  -13.1426   -1.9387   31.4141 O   0  0  0  0  0  0  0  0  0  0  0  0
  -14.7637   -4.7687   30.9299 C   0  0  0  0  0  0  0  0  0  0  0  0
  -14.2965   -4.4850   29.5106 C   0  0  0  0  0  0  0  0  0  0  0  0
  -15.3011   -5.2857   28.2356 S   0  0  2  0  0  0  0  0  0  0  0  0
  -16.9266   -4.5821   28.6088 C   0  0  0  0  0  0  0  0  0  0  0  0
  -15.4694   -6.9539   28.9263 C   0  0  0  0  0  0  0  0  0  0  0  0
  -16.2762   -7.8178   27.9677 C   0  0  1  0  0  0  0  0  0  0  0  0
  -15.5261   -7.9903   26.7890 O   0  0  0  0  0  0  0  0  0  0  0  0
  -16.5704   -9.2287   28.4418 C   0  0  1  0  0  0  0  0  0  0  0  0
  -17.8484   -9.3055   29.0329 O   0  0  0  0  0  0  0  0  0  0  0  0
  -16.5419  -10.0336   27.1584 C   0  0  1  0  0  0  0  0  0  0  0  0
  -17.8645  -10.3578   26.8071 O   0  0  0  0  0  0  0  0  0  0  0  0
  -15.9374   -9.1356   26.0875 C   0  0  2  0  0  0  0  0  0  0  0  0
  -14.8650   -2.0795   32.6346 O   0  0  0  0  0  0  0  0  0  0  0  0
  -11.0091  -10.8032   26.9281 N   0  0  0  0  0  0  0  0  0  0  0  0
  -11.8572  -10.1699   27.8151 C   0  0  0  0  0  0  0  0  0  0  0  0
  -13.1291   -9.7944   27.4260 N   0  0  0  0  0  0  0  0  0  0  0  0
  -13.5585  -10.0396   26.1653 C   0  0  0  0  0  0  0  0  0  0  0  0
  -12.7222  -10.6834   25.2616 C   0  0  0  0  0  0  0  0  0  0  0  0
  -11.4413  -11.0613   25.6453 C   0  0  0  0  0  0  0  0  0  0  0  0
  -10.6371  -11.6695   24.7767 N   0  0  0  0  0  0  0  0  0  0  0  0
  -13.3911  -10.8088   24.0951 N   0  0  0  0  0  0  0  0  0  0  0  0
  -14.6275  -10.2785   24.2456 C   0  0  0  0  0  0  0  0  0  0  0  0
  -14.7494   -9.7973   25.5224 N   0  0  0  0  0  0  0  0  0  0  0  0
  2  1  1  1  0  0  0
  2  3  1  0  0  0  0
  2  5  1  0  0  0  0
  3  4  1  0  0  0  0
  3 17  1  0  0  0  0
  5  6  1  0  0  0  0
  7  6  1  1  0  0  0
  7  8  1  0  0  0  0
  7  9  1  0  0  0  0
 10  9  1  1  0  0  0
 10 11  1  0  0  0  0
 10 12  1  0  0  0  0
 11 16  1  0  0  0  0
 12 13  1  6  0  0  0
 12 14  1  0  0  0  0
 14 15  1  6  0  0  0
 14 16  1  0  0  0  0
 16 27  1  1  0  0  0
 18 19  2  0  0  0  0
 18 23  1  0  0  0  0
 19 20  1  0  0  0  0
 20 21  2  0  0  0  0
 21 22  1  0  0  0  0
 21 27  1  0  0  0  0
 22 23  2  0  0  0  0
 22 25  1  0  0  0  0
 23 24  1  0  0  0  0
 25 26  2  0  0  0  0
 26 27  1  0  0  0  0
M  END
>  <CHROM.1>
138.64288643,-165.16565565,176.32425562,58.56739715,-178.75827597,66.30004518
45.02484037,-14.56698168,-7.59312953,28.14032689,-1.68226271,0.01444009,-2.46517903

>  <Name>
ligand

>  <RI>
0

>  <Rbt.Current_Directory>
/home/itssahil/PROJECTS/Mol_Feturizer/New_Systems/rnas/3GX6

>  <Rbt.Executable>
rbdock ($Id: //depot/dev/client3/rdock/2013.1/src/exe/rbdock.cxx#4 $)

>  <Rbt.Library>
libRbt.so (2013.1, Build901 2013/11/27)

>  <Rbt.Parameter_File>
/export/apps/rDock/src/rDock_2013.1_src/data/scripts/dock_solv.prm

>  <Rbt.Receptor>
prm/pocket_docking_7.prm

>  <SCORE>
-18.7543

>  <SCORE.INTER>
-8.83324

>  <SCORE.INTER.CONST>
1

>  <SCORE.INTER.POLAR>
0

>  <SCORE.INTER.ROT>
7

>  <SCORE.INTER.SOLV>
15.4687

>  <SCORE.INTER.VDW>
-19.3117

>  <SCORE.INTER.norm>
-0.327157

>  <SCORE.INTRA>
-9.92487

>  <SCORE.INTRA.DIHEDRAL>
-10.423

>  <SCORE.INTRA.DIHEDRAL.0>
15.0182

>  <SCORE.INTRA.POLAR>
0

>  <SCORE.INTRA.POLAR.0>
0

>  <SCORE.INTRA.REPUL>
0

>  <SCORE.INTRA.REPUL.0>
0

>  <SCORE.INTRA.SOLV>
-1.79866

>  <SCORE.INTRA.SOLV.lig_0>
-47.9129

>  <SCORE.INTRA.VDW>
-3.81406

>  <SCORE.INTRA.VDW.0>
2.00851

>  <SCORE.INTRA.norm>
-0.367588

>  <SCORE.RESTR>
0.00385094

>  <SCORE.RESTR.CAVITY>
0.00385094

>  <SCORE.RESTR.norm>
0.000142627

>  <SCORE.SYSTEM>
0

>  <SCORE.SYSTEM.CONST>
0

>  <SCORE.SYSTEM.DIHEDRAL>
0

>  <SCORE.SYSTEM.SOLV>
0

>  <SCORE.SYSTEM.norm>
0

>  <SCORE.heavy>
27

>  <SCORE.norm>
-0.694602

>  <RMSD>
7.890

$$$$
ligand
 OpenBabel11021811483D
libRbt.so/2013.1/901 2013/11/27
 27 29  0  0  0  0  0  0  0  0999 V2000
  -15.0982   -9.0205   36.3234 N   0  0  0  0  0  0  0  0  0  0  0  0
  -14.2361   -8.8065   35.1642 C   0  0  2  0  0  0  0  0  0  0  0  0
  -13.0350   -7.9274   35.5027 C   0  0  0  0  0  0  0  0  0  0  0  0
  -13.0284   -7.2190   36.5119 O   0  0  0  0  0  0  0  0  0  0  0  0
  -15.0301   -8.2356   33.9930 C   0  0  0  0  0  0  0  0  0  0  0  0
  -14.2674   -8.2635   32.6776 C   0  0  0  0  0  0  0  0  0  0  0  0
  -15.0432   -7.2933   31.3611 S   0  0  2  0  0  0  0  0  0  0  0  0
  -16.5234   -8.2876   31.0496 C   0  0  0  0  0  0  0  0  0  0  0  0
  -14.0071   -7.7455   29.9432 C   0  0  0  0  0  0  0  0  0  0  0  0
  -13.8713   -6.5470   29.0150 C   0  0  1  0  0  0  0  0  0  0  0  0
  -13.1417   -6.9469   27.8795 O   0  0  0  0  0  0  0  0  0  0  0  0
  -15.1704   -5.9953   28.4583 C   0  0  1  0  0  0  0  0  0  0  0  0
  -15.6256   -4.9048   29.2279 O   0  0  0  0  0  0  0  0  0  0  0  0
  -14.7763   -5.5252   27.0728 C   0  0  1  0  0  0  0  0  0  0  0  0
  -14.7071   -4.1206   27.0824 O   0  0  0  0  0  0  0  0  0  0  0  0
  -13.3952   -6.0999   26.7880 C   0  0  2  0  0  0  0  0  0  0  0  0
  -12.0477   -7.9057   34.7675 O   0  0  0  0  0  0  0  0  0  0  0  0
  -16.0473   -9.7403   24.0514 N   0  0  0  0  0  0  0  0  0  0  0  0
  -16.3661   -9.1994   25.2814 C   0  0  0  0  0  0  0  0  0  0  0  0
  -15.5511   -8.2468   25.8633 N   0  0  0  0  0  0  0  0  0  0  0  0
  -14.4246   -7.8349   25.2347 C   0  0  0  0  0  0  0  0  0  0  0  0
  -14.0922   -8.3616   23.9927 C   0  0  0  0  0  0  0  0  0  0  0  0
  -14.9057   -9.3216   23.4031 C   0  0  0  0  0  0  0  0  0  0  0  0
  -14.5821   -9.8330   22.2178 N   0  0  0  0  0  0  0  0  0  0  0  0
  -12.9410   -7.7811   23.5911 N   0  0  0  0  0  0  0  0  0  0  0  0
  -12.5508   -6.8936   24.5359 C   0  0  0  0  0  0  0  0  0  0  0  0
  -13.4585   -6.9129   25.5618 N   0  0  0  0  0  0  0  0  0  0  0  0
  2  1  1  1  0  0  0
  2  3  1  0  0  0  0
  2  5  1  0  0  0  0
  3  4  1  0  0  0  0
  3 17  1  0  0  0  0
  5  6  1  0  0  0  0
  7  6  1  1  0  0  0
  7  8  1  0  0  0  0
  7  9  1  0  0  0  0
 10  9  1  1  0  0  0
 10 11  1  0  0  0  0
 10 12  1  0  0  0  0
 11 16  1  0  0  0  0
 12 13  1  1  0  0  0
 12 14  1  0  0  0  0
 14 15  1  1  0  0  0
 14 16  1  0  0  0  0
 16 27  1  6  0  0  0
 18 19  2  0  0  0  0
 18 23  1  0  0  0  0
 19 20  1  0  0  0  0
 20 21  2  0  0  0  0
 21 22  1  0  0  0  0
 21 27  1  0  0  0  0
 22 23  2  0  0  0  0
 22 25  1  0  0  0  0
 23 24  1  0  0  0  0
 25 26  2  0  0  0  0
 26 27  1  0  0  0  0
M  END
>  <CHROM.1>
-18.15713253,-167.86114671,-168.08861698,-68.85410822,-145.61302697,-176.02585766
67.91047067,-14.39292285,-7.53677504,29.01540863,1.43624949,1.24626325,1.69293923

>  <Name>
ligand

>  <RI>
0

>  <Rbt.Current_Directory>
/home/itssahil/PROJECTS/Mol_Feturizer/New_Systems/rnas/3GX6

>  <Rbt.Executable>
rbdock ($Id: //depot/dev/client3/rdock/2013.1/src/exe/rbdock.cxx#4 $)

>  <Rbt.Library>
libRbt.so (2013.1, Build901 2013/11/27)

>  <Rbt.Parameter_File>
/export/apps/rDock/src/rDock_2013.1_src/data/scripts/dock_solv.prm

>  <Rbt.Receptor>
prm/pocket_docking_6.prm

>  <SCORE>
-15.6505

>  <SCORE.INTER>
-6.74602

>  <SCORE.INTER.CONST>
1

>  <SCORE.INTER.POLAR>
0

>  <SCORE.INTER.ROT>
7

>  <SCORE.INTER.SOLV>
15.3248

>  <SCORE.INTER.VDW>
-17.8723

>  <SCORE.INTER.norm>
-0.249852

>  <SCORE.INTRA>
-8.91009

>  <SCORE.INTRA.DIHEDRAL>
-7.21583

>  <SCORE.INTRA.DIHEDRAL.0>
15.0182

>  <SCORE.INTRA.POLAR>
0

>  <SCORE.INTRA.POLAR.0>
0

>  <SCORE.INTRA.REPUL>
0

>  <SCORE.INTRA.REPUL.0>
0

>  <SCORE.INTRA.SOLV>
-1.59331

>  <SCORE.INTRA.SOLV.lig_0>
-47.9129

>  <SCORE.INTRA.VDW>
-4.50552

>  <SCORE.INTRA.VDW.0>
2.00851

>  <SCORE.INTRA.norm>
-0.330003

>  <SCORE.RESTR>
0.00563221

>  <SCORE.RESTR.CAVITY>
0.00563221

>  <SCORE.RESTR.norm>
0.0002086

>  <SCORE.SYSTEM>
0

>  <SCORE.SYSTEM.CONST>
0

>  <SCORE.SYSTEM.DIHEDRAL>
0

>  <SCORE.SYSTEM.SOLV>
0

>  <SCORE.SYSTEM.norm>
0

>  <SCORE.heavy>
27

>  <SCORE.norm>
-0.579647

>  <RMSD>
7.892

$$$$
ligand
 OpenBabel11021811483D
libRbt.so/2013.1/901 2013/11/27
 27 29  0  0  0  0  0  0  0  0999 V2000
  -21.0641  -10.4280   30.2685 N   0  0  0  0  0  0  0  0  0  0  0  0
  -20.3227   -9.8399   31.3808 C   0  0  2  0  0  0  0  0  0  0  0  0
  -20.1769  -10.8145   32.5465 C   0  0  0  0  0  0  0  0  0  0  0  0
  -19.6538  -10.4653   33.6071 O   0  0  0  0  0  0  0  0  0  0  0  0
  -20.9622   -8.5291   31.8290 C   0  0  0  0  0  0  0  0  0  0  0  0
  -20.8634   -7.4240   30.7888 C   0  0  0  0  0  0  0  0  0  0  0  0
  -19.1734   -6.8480   30.4912 S   0  0  2  0  0  0  0  0  0  0  0  0
  -19.4847   -5.5164   29.3052 C   0  0  0  0  0  0  0  0  0  0  0  0
  -18.5505   -8.1561   29.4005 C   0  0  0  0  0  0  0  0  0  0  0  0
  -17.3206   -8.7945   30.0299 C   0  0  1  0  0  0  0  0  0  0  0  0
  -16.7823   -9.7170   29.1130 O   0  0  0  0  0  0  0  0  0  0  0  0
  -16.1738   -7.8503   30.3381 C   0  0  1  0  0  0  0  0  0  0  0  0
  -16.2136   -7.4315   31.6841 O   0  0  0  0  0  0  0  0  0  0  0  0
  -14.9492   -8.7096   30.0971 C   0  0  1  0  0  0  0  0  0  0  0  0
  -14.4009   -9.0623   31.3432 O   0  0  0  0  0  0  0  0  0  0  0  0
  -15.4253   -9.9645   29.3780 C   0  0  2  0  0  0  0  0  0  0  0  0
  -20.5765  -11.9747   32.4466 O   0  0  0  0  0  0  0  0  0  0  0  0
  -15.7462   -9.8307   24.1193 N   0  0  0  0  0  0  0  0  0  0  0  0
  -16.7592   -9.6465   25.0396 C   0  0  0  0  0  0  0  0  0  0  0  0
  -16.4995   -9.7180   26.3952 N   0  0  0  0  0  0  0  0  0  0  0  0
  -15.2459   -9.9749   26.8383 C   0  0  0  0  0  0  0  0  0  0  0  0
  -14.2123  -10.1545   25.9273 C   0  0  0  0  0  0  0  0  0  0  0  0
  -14.4669  -10.0866   24.5629 C   0  0  0  0  0  0  0  0  0  0  0  0
  -13.4786  -10.2681   23.6903 N   0  0  0  0  0  0  0  0  0  0  0  0
  -13.0799  -10.3854   26.6258 N   0  0  0  0  0  0  0  0  0  0  0  0
  -13.3690  -10.3387   27.9475 C   0  0  0  0  0  0  0  0  0  0  0  0
  -14.7068  -10.0849   28.0983 N   0  0  0  0  0  0  0  0  0  0  0  0
  2  1  1  6  0  0  0
  2  3  1  0  0  0  0
  2  5  1  0  0  0  0
  3  4  1  0  0  0  0
  3 17  1  0  0  0  0
  5  6  1  0  0  0  0
  7  6  1  6  0  0  0
  7  8  1  0  0  0  0
  7  9  1  0  0  0  0
 10  9  1  6  0  0  0
 10 11  1  0  0  0  0
 10 12  1  0  0  0  0
 11 16  1  0  0  0  0
 12 13  1  1  0  0  0
 12 14  1  0  0  0  0
 14 15  1  1  0  0  0
 14 16  1  0  0  0  0
 16 27  1  6  0  0  0
 18 19  2  0  0  0  0
 18 23  1  0  0  0  0
 19 20  1  0  0  0  0
 20 21  2  0  0  0  0
 21 22  1  0  0  0  0
 21 27  1  0  0  0  0
 22 23  2  0  0  0  0
 22 25  1  0  0  0  0
 23 24  1  0  0  0  0
 25 26  2  0  0  0  0
 26 27  1  0  0  0  0
M  END
>  <CHROM.1>
-175.35705118,-66.88802299,-67.12545827,-176.95074981,-121.93587516,-174.56893509
0.14895866,-17.18634520,-9.19695449,29.18905577,2.36726280,-0.29940246,1.69738191

>  <Name>
ligand

>  <RI>
0

>  <Rbt.Current_Directory>
/home/itssahil/PROJECTS/Mol_Feturizer/New_Systems/rnas/3GX6

>  <Rbt.Executable>
rbdock ($Id: //depot/dev/client3/rdock/2013.1/src/exe/rbdock.cxx#4 $)

>  <Rbt.Library>
libRbt.so (2013.1, Build901 2013/11/27)

>  <Rbt.Parameter_File>
/export/apps/rDock/src/rDock_2013.1_src/data/scripts/dock_solv.prm

>  <Rbt.Receptor>
prm/pocket_docking_8.prm

>  <SCORE>
-16.8749

>  <SCORE.INTER>
-8.97613

>  <SCORE.INTER.CONST>
1

>  <SCORE.INTER.POLAR>
0

>  <SCORE.INTER.ROT>
7

>  <SCORE.INTER.SOLV>
11.5597

>  <SCORE.INTER.VDW>
-18.104

>  <SCORE.INTER.norm>
-0.332449

>  <SCORE.INTRA>
-7.89876

>  <SCORE.INTRA.DIHEDRAL>
-6.75446

>  <SCORE.INTRA.DIHEDRAL.0>
15.0182

>  <SCORE.INTRA.POLAR>
0

>  <SCORE.INTRA.POLAR.0>
0

>  <SCORE.INTRA.REPUL>
0

>  <SCORE.INTRA.REPUL.0>
0

>  <SCORE.INTRA.SOLV>
0.756616

>  <SCORE.INTRA.SOLV.lig_0>
-47.9129

>  <SCORE.INTRA.VDW>
-4.89984

>  <SCORE.INTRA.VDW.0>
2.00851

>  <SCORE.INTRA.norm>
-0.292547

>  <SCORE.RESTR>
0

>  <SCORE.RESTR.CAVITY>
0

>  <SCORE.RESTR.norm>
0

>  <SCORE.SYSTEM>
0

>  <SCORE.SYSTEM.CONST>
0

>  <SCORE.SYSTEM.DIHEDRAL>
0

>  <SCORE.SYSTEM.SOLV>
0

>  <SCORE.SYSTEM.norm>
0

>  <SCORE.heavy>
27

>  <SCORE.norm>
-0.624996

>  <RMSD>
7.963

$$$$
ligand
 OpenBabel11021811483D
libRbt.so/2013.1/901 2013/11/27
 27 29  0  0  0  0  0  0  0  0999 V2000
  -16.7069   -9.5243   36.8783 N   0  0  0  0  0  0  0  0  0  0  0  0
  -15.3016   -9.2885   36.5584 C   0  0  2  0  0  0  0  0  0  0  0  0
  -14.4984   -8.8785   37.7899 C   0  0  0  0  0  0  0  0  0  0  0  0
  -13.3303   -8.4965   37.6903 O   0  0  0  0  0  0  0  0  0  0  0  0
  -15.1630   -8.2624   35.4377 C   0  0  0  0  0  0  0  0  0  0  0  0
  -15.7297   -8.7405   34.1097 C   0  0  0  0  0  0  0  0  0  0  0  0
  -15.7906   -7.4566   32.8353 S   0  0  2  0  0  0  0  0  0  0  0  0
  -17.3769   -6.6785   33.2291 C   0  0  0  0  0  0  0  0  0  0  0  0
  -16.2300   -8.4397   31.3763 C   0  0  0  0  0  0  0  0  0  0  0  0
  -15.0017   -9.1937   30.8874 C   0  0  1  0  0  0  0  0  0  0  0  0
  -15.3455   -9.8839   29.7097 O   0  0  0  0  0  0  0  0  0  0  0  0
  -13.8156   -8.3339   30.4928 C   0  0  1  0  0  0  0  0  0  0  0  0
  -12.8948   -8.2270   31.5556 O   0  0  0  0  0  0  0  0  0  0  0  0
  -13.1983   -9.1086   29.3461 C   0  0  1  0  0  0  0  0  0  0  0  0
  -12.0230   -9.7270   29.8087 O   0  0  0  0  0  0  0  0  0  0  0  0
  -14.2070  -10.1744   28.9399 C   0  0  2  0  0  0  0  0  0  0  0  0
  -15.0033   -8.9270   38.9117 O   0  0  0  0  0  0  0  0  0  0  0  0
  -18.0127  -10.0097   25.2978 N   0  0  0  0  0  0  0  0  0  0  0  0
  -18.1427  -10.2161   26.6571 C   0  0  0  0  0  0  0  0  0  0  0  0
  -17.0293  -10.2316   27.4758 N   0  0  0  0  0  0  0  0  0  0  0  0
  -15.7936  -10.0488   26.9526 C   0  0  0  0  0  0  0  0  0  0  0  0
  -15.6441   -9.8312   25.5885 C   0  0  0  0  0  0  0  0  0  0  0  0
  -16.7590   -9.8169   24.7592 C   0  0  0  0  0  0  0  0  0  0  0  0
  -16.6147   -9.6180   23.4513 N   0  0  0  0  0  0  0  0  0  0  0  0
  -14.3269   -9.6734   25.3361 N   0  0  0  0  0  0  0  0  0  0  0  0
  -13.6478   -9.7683   26.5033 C   0  0  0  0  0  0  0  0  0  0  0  0
  -14.5405  -10.0003   27.5162 N   0  0  0  0  0  0  0  0  0  0  0  0
  2  1  1  1  0  0  0
  2  3  1  0  0  0  0
  2  5  1  0  0  0  0
  3  4  1  0  0  0  0
  3 17  1  0  0  0  0
  5  6  1  0  0  0  0
  7  6  1  1  0  0  0
  7  8  1  0  0  0  0
  7  9  1  0  0  0  0
 10  9  1  6  0  0  0
 10 11  1  0  0  0  0
 10 12  1  0  0  0  0
 11 16  1  0  0  0  0
 12 13  1  1  0  0  0
 12 14  1  0  0  0  0
 14 15  1  1  0  0  0
 14 16  1  0  0  0  0
 16 27  1  6  0  0  0
 18 19  2  0  0  0  0
 18 23  1  0  0  0  0
 19 20  1  0  0  0  0
 20 21  2  0  0  0  0
 21 22  1  0  0  0  0
 21 27  1  0  0  0  0
 22 23  2  0  0  0  0
 22 25  1  0  0  0  0
 23 24  1  0  0  0  0
 25 26  2  0  0  0  0
 26 27  1  0  0  0  0
M  END
>  <CHROM.1>
-171.96328657,-65.22728061,171.67256504,-85.42348556,-76.54863649,-176.47043892
-22.75787337,-15.25185365,-9.09699712,30.81635634,1.49530662,-0.06539442
1.44441958

>  <Name>
ligand

>  <RI>
0

>  <Rbt.Current_Directory>
/home/itssahil/PROJECTS/Mol_Feturizer/New_Systems/rnas/3GX6

>  <Rbt.Executable>
rbdock ($Id: //depot/dev/client3/rdock/2013.1/src/exe/rbdock.cxx#4 $)

>  <Rbt.Library>
libRbt.so (2013.1, Build901 2013/11/27)

>  <Rbt.Parameter_File>
/export/apps/rDock/src/rDock_2013.1_src/data/scripts/dock_solv.prm

>  <Rbt.Receptor>
prm/pocket_docking_8.prm

>  <SCORE>
-21.8713

>  <SCORE.INTER>
-12.2061

>  <SCORE.INTER.CONST>
1

>  <SCORE.INTER.POLAR>
0

>  <SCORE.INTER.ROT>
7

>  <SCORE.INTER.SOLV>
17.8153

>  <SCORE.INTER.VDW>
-22.3425

>  <SCORE.INTER.norm>
-0.452077

>  <SCORE.INTRA>
-9.66519

>  <SCORE.INTRA.DIHEDRAL>
-10.391

>  <SCORE.INTRA.DIHEDRAL.0>
15.0182

>  <SCORE.INTRA.POLAR>
0

>  <SCORE.INTRA.POLAR.0>
0

>  <SCORE.INTRA.REPUL>
0

>  <SCORE.INTRA.REPUL.0>
0

>  <SCORE.INTRA.SOLV>
-0.820113

>  <SCORE.INTRA.SOLV.lig_0>
-47.9129

>  <SCORE.INTRA.VDW>
-4.05962

>  <SCORE.INTRA.VDW.0>
2.00851

>  <SCORE.INTRA.norm>
-0.35797

>  <SCORE.RESTR>
0

>  <SCORE.RESTR.CAVITY>
0

>  <SCORE.RESTR.norm>
0

>  <SCORE.SYSTEM>
0

>  <SCORE.SYSTEM.CONST>
0

>  <SCORE.SYSTEM.DIHEDRAL>
0

>  <SCORE.SYSTEM.SOLV>
0

>  <SCORE.SYSTEM.norm>
0

>  <SCORE.heavy>
27

>  <SCORE.norm>
-0.810047

>  <RMSD>
8.099

$$$$
ligand
 OpenBabel11021811483D
libRbt.so/2013.1/901 2013/11/27
 27 29  0  0  0  0  0  0  0  0999 V2000
  -13.5171   -4.6642   32.5103 N   0  0  0  0  0  0  0  0  0  0  0  0
  -13.6628   -3.8896   31.2809 C   0  0  2  0  0  0  0  0  0  0  0  0
  -14.2780   -2.5173   31.5422 C   0  0  0  0  0  0  0  0  0  0  0  0
  -13.6225   -1.4850   31.3844 O   0  0  0  0  0  0  0  0  0  0  0  0
  -14.4611   -4.6672   30.2387 C   0  0  0  0  0  0  0  0  0  0  0  0
  -14.2891   -4.1319   28.8256 C   0  0  0  0  0  0  0  0  0  0  0  0
  -15.3531   -4.9380   27.6031 S   0  0  2  0  0  0  0  0  0  0  0  0
  -16.9841   -4.4309   28.2026 C   0  0  0  0  0  0  0  0  0  0  0  0
  -15.2863   -6.6594   28.1695 C   0  0  0  0  0  0  0  0  0  0  0  0
  -16.0512   -7.5416   27.1934 C   0  0  1  0  0  0  0  0  0  0  0  0
  -15.2940   -7.6551   26.0121 O   0  0  0  0  0  0  0  0  0  0  0  0
  -16.2782   -8.9738   27.6396 C   0  0  1  0  0  0  0  0  0  0  0  0
  -17.5511   -9.1227   28.2279 O   0  0  0  0  0  0  0  0  0  0  0  0
  -16.2117   -9.7512   26.3406 C   0  0  1  0  0  0  0  0  0  0  0  0
  -17.5175  -10.1307   25.9819 O   0  0  0  0  0  0  0  0  0  0  0  0
  -15.6505   -8.8047   25.2881 C   0  0  2  0  0  0  0  0  0  0  0  0
  -15.4446   -2.4159   31.9222 O   0  0  0  0  0  0  0  0  0  0  0  0
  -10.6972   -7.9985   23.6789 N   0  0  0  0  0  0  0  0  0  0  0  0
  -11.5800   -7.0800   24.2117 C   0  0  0  0  0  0  0  0  0  0  0  0
  -12.8552   -7.4631   24.5824 N   0  0  0  0  0  0  0  0  0  0  0  0
  -13.2567   -8.7466   24.4229 C   0  0  0  0  0  0  0  0  0  0  0  0
  -12.3793   -9.6866   23.8965 C   0  0  0  0  0  0  0  0  0  0  0  0
  -11.0968   -9.3076   23.5192 C   0  0  0  0  0  0  0  0  0  0  0  0
  -10.2597  -10.2061   23.0062 N   0  0  0  0  0  0  0  0  0  0  0  0
  -13.0214  -10.8738   23.8529 N   0  0  0  0  0  0  0  0  0  0  0  0
  -14.2690  -10.7101   24.3522 C   0  0  0  0  0  0  0  0  0  0  0  0
  -14.4326   -9.3982   24.7111 N   0  0  0  0  0  0  0  0  0  0  0  0
  2  1  1  1  0  0  0
  2  3  1  0  0  0  0
  2  5  1  0  0  0  0
  3  4  1  0  0  0  0
  3 17  1  0  0  0  0
  5  6  1  0  0  0  0
  7  6  1  1  0  0  0
  7  8  1  0  0  0  0
  7  9  1  0  0  0  0
 10  9  1  1  0  0  0
 10 11  1  0  0  0  0
 10 12  1  0  0  0  0
 11 16  1  0  0  0  0
 12 13  1  6  0  0  0
 12 14  1  0  0  0  0
 14 15  1  6  0  0  0
 14 16  1  0  0  0  0
 16 27  1  1  0  0  0
 18 19  2  0  0  0  0
 18 23  1  0  0  0  0
 19 20  1  0  0  0  0
 20 21  2  0  0  0  0
 21 22  1  0  0  0  0
 21 27  1  0  0  0  0
 22 23  2  0  0  0  0
 22 25  1  0  0  0  0
 23 24  1  0  0  0  0
 25 26  2  0  0  0  0
 26 27  1  0  0  0  0
M  END
>  <CHROM.1>
112.66101385,-162.10313654,-174.30268765,64.70408895,-175.77262487,72.45760947
-24.61327500,-14.39726448,-6.98773722,27.10492769,-1.75637130,-0.39872437
-2.39349744

>  <Name>
ligand

>  <RI>
0

>  <Rbt.Current_Directory>
/home/itssahil/PROJECTS/Mol_Feturizer/New_Systems/rnas/3GX6

>  <Rbt.Executable>
rbdock ($Id: //depot/dev/client3/rdock/2013.1/src/exe/rbdock.cxx#4 $)

>  <Rbt.Library>
libRbt.so (2013.1, Build901 2013/11/27)

>  <Rbt.Parameter_File>
/export/apps/rDock/src/rDock_2013.1_src/data/scripts/dock_solv.prm

>  <Rbt.Receptor>
prm/pocket_docking_7.prm

>  <SCORE>
-16.9079

>  <SCORE.INTER>
-8.38929

>  <SCORE.INTER.CONST>
1

>  <SCORE.INTER.POLAR>
0

>  <SCORE.INTER.ROT>
7

>  <SCORE.INTER.SOLV>
9.6056

>  <SCORE.INTER.VDW>
-17.0614

>  <SCORE.INTER.norm>
-0.310714

>  <SCORE.INTRA>
-8.51941

>  <SCORE.INTRA.DIHEDRAL>
-9.1189

>  <SCORE.INTRA.DIHEDRAL.0>
15.0182

>  <SCORE.INTRA.POLAR>
0

>  <SCORE.INTRA.POLAR.0>
0

>  <SCORE.INTRA.REPUL>
0

>  <SCORE.INTRA.REPUL.0>
0

>  <SCORE.INTRA.SOLV>
-1.81711

>  <SCORE.INTRA.SOLV.lig_0>
-47.9129

>  <SCORE.INTRA.VDW>
-3.0514

>  <SCORE.INTRA.VDW.0>
2.00851

>  <SCORE.INTRA.norm>
-0.315534

>  <SCORE.RESTR>
0.000762599

>  <SCORE.RESTR.CAVITY>
0.000762599

>  <SCORE.RESTR.norm>
2.82444e-05

>  <SCORE.SYSTEM>
0

>  <SCORE.SYSTEM.CONST>
0

>  <SCORE.SYSTEM.DIHEDRAL>
0

>  <SCORE.SYSTEM.SOLV>
0

>  <SCORE.SYSTEM.norm>
0

>  <SCORE.heavy>
27

>  <SCORE.norm>
-0.62622

>  <RMSD>
8.168

$$$$
ligand
 OpenBabel11021811483D
libRbt.so/2013.1/901 2013/11/27
 27 29  0  0  0  0  0  0  0  0999 V2000
  -14.4411   -6.1239   33.9404 N   0  0  0  0  0  0  0  0  0  0  0  0
  -14.4186   -7.5252   34.3511 C   0  0  2  0  0  0  0  0  0  0  0  0
  -13.1523   -7.8697   35.1307 C   0  0  0  0  0  0  0  0  0  0  0  0
  -13.2128   -8.3207   36.2767 O   0  0  0  0  0  0  0  0  0  0  0  0
  -14.5996   -8.4478   33.1494 C   0  0  0  0  0  0  0  0  0  0  0  0
  -13.5576   -8.2329   32.0626 C   0  0  0  0  0  0  0  0  0  0  0  0
  -14.0178   -8.9341   30.4586 S   0  0  2  0  0  0  0  0  0  0  0  0
  -12.6585   -8.3232   29.4313 C   0  0  0  0  0  0  0  0  0  0  0  0
  -15.3619   -7.8199   29.9681 C   0  0  0  0  0  0  0  0  0  0  0  0
  -15.9767   -8.3136   28.6664 C   0  0  1  0  0  0  0  0  0  0  0  0
  -15.0000   -8.2311   27.6560 O   0  0  0  0  0  0  0  0  0  0  0  0
  -16.4150   -9.7661   28.6549 C   0  0  1  0  0  0  0  0  0  0  0  0
  -17.7914   -9.8795   28.9403 O   0  0  0  0  0  0  0  0  0  0  0  0
  -16.1432  -10.1939   27.2269 C   0  0  1  0  0  0  0  0  0  0  0  0
  -17.3717  -10.2859   26.5485 O   0  0  0  0  0  0  0  0  0  0  0  0
  -15.2934   -9.1010   26.5929 C   0  0  2  0  0  0  0  0  0  0  0  0
  -12.0414   -7.6977   34.6288 O   0  0  0  0  0  0  0  0  0  0  0  0
  -12.4165  -10.4888   22.4010 N   0  0  0  0  0  0  0  0  0  0  0  0
  -13.6660   -9.9012   22.4199 C   0  0  0  0  0  0  0  0  0  0  0  0
  -14.2849   -9.6030   23.6192 N   0  0  0  0  0  0  0  0  0  0  0  0
  -13.6736   -9.8886   24.7934 C   0  0  0  0  0  0  0  0  0  0  0  0
  -12.4126  -10.4720   24.7939 C   0  0  0  0  0  0  0  0  0  0  0  0
  -11.7857  -10.7769   23.5919 C   0  0  0  0  0  0  0  0  0  0  0  0
  -10.5820  -11.3444   23.5927 N   0  0  0  0  0  0  0  0  0  0  0  0
  -12.0347  -10.6404   26.0794 N   0  0  0  0  0  0  0  0  0  0  0  0
  -13.0133  -10.1643   26.8846 C   0  0  0  0  0  0  0  0  0  0  0  0
  -14.0369   -9.6939   26.1051 N   0  0  0  0  0  0  0  0  0  0  0  0
  2  1  1  6  0  0  0
  2  3  1  0  0  0  0
  2  5  1  0  0  0  0
  3  4  1  0  0  0  0
  3 17  1  0  0  0  0
  5  6  1  0  0  0  0
  7  6  1  1  0  0  0
  7  8  1  0  0  0  0
  7  9  1  0  0  0  0
 10  9  1  1  0  0  0
 10 11  1  0  0  0  0
 10 12  1  0  0  0  0
 11 16  1  0  0  0  0
 12 13  1  6  0  0  0
 12 14  1  0  0  0  0
 14 15  1  6  0  0  0
 14 16  1  0  0  0  0
 16 27  1  1  0  0  0
 18 19  2  0  0  0  0
 18 23  1  0  0  0  0
 19 20  1  0  0  0  0
 20 21  2  0  0  0  0
 21 22  1  0  0  0  0
 21 27  1  0  0  0  0
 22 23  2  0  0  0  0
 22 25  1  0  0  0  0
 23 24  1  0  0  0  0
 25 26  2  0  0  0  0
 26 27  1  0  0  0  0
M  END
>  <CHROM.1>
121.82177335,56.98915072,-162.78590665,173.96425051,-175.42481519,-64.30387019
-137.80613512,-14.08511337,-9.14719967,28.65827041,1.62118373,-0.04792794
1.32685682

>  <Name>
ligand

>  <RI>
0

>  <Rbt.Current_Directory>
/home/itssahil/PROJECTS/Mol_Feturizer/New_Systems/rnas/3GX6

>  <Rbt.Executable>
rbdock ($Id: //depot/dev/client3/rdock/2013.1/src/exe/rbdock.cxx#4 $)

>  <Rbt.Library>
libRbt.so (2013.1, Build901 2013/11/27)

>  <Rbt.Parameter_File>
/export/apps/rDock/src/rDock_2013.1_src/data/scripts/dock_solv.prm

>  <Rbt.Receptor>
prm/pocket_docking_8.prm

>  <SCORE>
-19.005

>  <SCORE.INTER>
-9.44759

>  <SCORE.INTER.CONST>
1

>  <SCORE.INTER.POLAR>
0

>  <SCORE.INTER.ROT>
7

>  <SCORE.INTER.SOLV>
13.2449

>  <SCORE.INTER.VDW>
-18.98

>  <SCORE.INTER.norm>
-0.349911

>  <SCORE.INTRA>
-9.55739

>  <SCORE.INTRA.DIHEDRAL>
-10.1924

>  <SCORE.INTRA.DIHEDRAL.0>
15.0182

>  <SCORE.INTRA.POLAR>
0

>  <SCORE.INTRA.POLAR.0>
0

>  <SCORE.INTRA.REPUL>
0

>  <SCORE.INTRA.REPUL.0>
0

>  <SCORE.INTRA.SOLV>
-0.631907

>  <SCORE.INTRA.SOLV.lig_0>
-47.9129

>  <SCORE.INTRA.VDW>
-4.14522

>  <SCORE.INTRA.VDW.0>
2.00851

>  <SCORE.INTRA.norm>
-0.353978

>  <SCORE.RESTR>
0

>  <SCORE.RESTR.CAVITY>
0

>  <SCORE.RESTR.norm>
0

>  <SCORE.SYSTEM>
0

>  <SCORE.SYSTEM.CONST>
0

>  <SCORE.SYSTEM.DIHEDRAL>
0

>  <SCORE.SYSTEM.SOLV>
0

>  <SCORE.SYSTEM.norm>
0

>  <SCORE.heavy>
27

>  <SCORE.norm>
-0.703888

>  <RMSD>
8.331

$$$$
ligand
 OpenBabel11021811483D
libRbt.so/2013.1/901 2013/11/27
 27 29  0  0  0  0  0  0  0  0999 V2000
  -15.6328   -7.7678   34.1028 N   0  0  0  0  0  0  0  0  0  0  0  0
  -14.4797   -8.6122   34.4031 C   0  0  2  0  0  0  0  0  0  0  0  0
  -13.9363   -8.3558   35.8063 C   0  0  0  0  0  0  0  0  0  0  0  0
  -13.2158   -7.3834   36.0424 O   0  0  0  0  0  0  0  0  0  0  0  0
  -13.3918   -8.4440   33.3466 C   0  0  0  0  0  0  0  0  0  0  0  0
  -13.8328   -8.8698   31.9547 C   0  0  0  0  0  0  0  0  0  0  0  0
  -12.5169   -8.7919   30.7143 S   0  0  2  0  0  0  0  0  0  0  0  0
  -12.5277   -7.0219   30.3354 C   0  0  0  0  0  0  0  0  0  0  0  0
  -13.3691   -9.4703   29.2645 C   0  0  0  0  0  0  0  0  0  0  0  0
  -12.3458   -9.8067   28.1894 C   0  0  1  0  0  0  0  0  0  0  0  0
  -13.0276  -10.3475   27.0828 O   0  0  0  0  0  0  0  0  0  0  0  0
  -11.5746   -8.6291   27.6234 C   0  0  1  0  0  0  0  0  0  0  0  0
  -10.3295   -8.4846   28.2696 O   0  0  0  0  0  0  0  0  0  0  0  0
  -11.3660   -9.0214   26.1747 C   0  0  1  0  0  0  0  0  0  0  0  0
  -10.0233   -9.4044   26.0064 O   0  0  0  0  0  0  0  0  0  0  0  0
  -12.2723  -10.2152   25.9060 C   0  0  2  0  0  0  0  0  0  0  0  0
  -14.2048   -9.1221   36.7317 O   0  0  0  0  0  0  0  0  0  0  0  0
  -13.1810   -7.1344   21.7277 N   0  0  0  0  0  0  0  0  0  0  0  0
  -12.0984   -7.1101   22.5848 C   0  0  0  0  0  0  0  0  0  0  0  0
  -12.0187   -7.9962   23.6425 N   0  0  0  0  0  0  0  0  0  0  0  0
  -13.0063   -8.8982   23.8544 C   0  0  0  0  0  0  0  0  0  0  0  0
  -14.0990   -8.9432   22.9974 C   0  0  0  0  0  0  0  0  0  0  0  0
  -14.1869   -8.0535   21.9336 C   0  0  0  0  0  0  0  0  0  0  0  0
  -15.2382   -8.0905   21.1185 N   0  0  0  0  0  0  0  0  0  0  0  0
  -14.9206   -9.9260   23.4249 N   0  0  0  0  0  0  0  0  0  0  0  0
  -14.3674  -10.5099   24.5138 C   0  0  0  0  0  0  0  0  0  0  0  0
  -13.1804   -9.8864   24.7944 N   0  0  0  0  0  0  0  0  0  0  0  0
  2  1  1  6  0  0  0
  2  3  1  0  0  0  0
  2  5  1  0  0  0  0
  3  4  1  0  0  0  0
  3 17  1  0  0  0  0
  5  6  1  0  0  0  0
  7  6  1  1  0  0  0
  7  8  1  0  0  0  0
  7  9  1  0  0  0  0
 10  9  1  1  0  0  0
 10 11  1  0  0  0  0
 10 12  1  0  0  0  0
 11 16  1  0  0  0  0
 12 13  1  1  0  0  0
 12 14  1  0  0  0  0
 14 15  1  1  0  0  0
 14 16  1  0  0  0  0
 16 27  1  6  0  0  0
 18 19  2  0  0  0  0
 18 23  1  0  0  0  0
 19 20  1  0  0  0  0
 20 21  2  0  0  0  0
 21 22  1  0  0  0  0
 21 27  1  0  0  0  0
 22 23  2  0  0  0  0
 22 25  1  0  0  0  0
 23 24  1  0  0  0  0
 25 26  2  0  0  0  0
 26 27  1  0  0  0  0
M  END
>  <CHROM.1>
-79.27840106,-62.45798381,-175.72514891,-80.15803680,-166.42862108,179.21740249
132.85987804,-13.06364340,-8.75095053,28.15800327,1.61470273,-0.00830007
1.54480812

>  <Name>
ligand

>  <RI>
0

>  <Rbt.Current_Directory>
/home/itssahil/PROJECTS/Mol_Feturizer/New_Systems/rnas/3GX6

>  <Rbt.Executable>
rbdock ($Id: //depot/dev/client3/rdock/2013.1/src/exe/rbdock.cxx#4 $)

>  <Rbt.Library>
libRbt.so (2013.1, Build901 2013/11/27)

>  <Rbt.Parameter_File>
/export/apps/rDock/src/rDock_2013.1_src/data/scripts/dock_solv.prm

>  <Rbt.Receptor>
prm/pocket_docking_7.prm

>  <SCORE>
-21.3917

>  <SCORE.INTER>
-12.4616

>  <SCORE.INTER.CONST>
1

>  <SCORE.INTER.POLAR>
0

>  <SCORE.INTER.ROT>
7

>  <SCORE.INTER.SOLV>
11.7483

>  <SCORE.INTER.VDW>
-20.4905

>  <SCORE.INTER.norm>
-0.46154

>  <SCORE.INTRA>
-8.93013

>  <SCORE.INTRA.DIHEDRAL>
-10.002

>  <SCORE.INTRA.DIHEDRAL.0>
15.0182

>  <SCORE.INTRA.POLAR>
0

>  <SCORE.INTRA.POLAR.0>
0

>  <SCORE.INTRA.REPUL>
0

>  <SCORE.INTRA.REPUL.0>
0

>  <SCORE.INTRA.SOLV>
-0.851289

>  <SCORE.INTRA.SOLV.lig_0>
-47.9129

>  <SCORE.INTRA.VDW>
-3.50351

>  <SCORE.INTRA.VDW.0>
2.00851

>  <SCORE.INTRA.norm>
-0.330746

>  <SCORE.RESTR>
0

>  <SCORE.RESTR.CAVITY>
0

>  <SCORE.RESTR.norm>
0

>  <SCORE.SYSTEM>
0

>  <SCORE.SYSTEM.CONST>
0

>  <SCORE.SYSTEM.DIHEDRAL>
0

>  <SCORE.SYSTEM.SOLV>
0

>  <SCORE.SYSTEM.norm>
0

>  <SCORE.heavy>
27

>  <SCORE.norm>
-0.792285

>  <RMSD>
8.687

$$$$
ligand
 OpenBabel11021811483D
libRbt.so/2013.1/901 2013/11/27
 27 29  0  0  0  0  0  0  0  0999 V2000
   -6.0139  -12.6627   21.7580 N   0  0  0  0  0  0  0  0  0  0  0  0
   -6.2170  -13.0789   23.1431 C   0  0  2  0  0  0  0  0  0  0  0  0
   -6.5178  -14.5716   23.2506 C   0  0  0  0  0  0  0  0  0  0  0  0
   -6.3125  -15.1888   24.2981 O   0  0  0  0  0  0  0  0  0  0  0  0
   -7.3063  -12.2432   23.8087 C   0  0  0  0  0  0  0  0  0  0  0  0
   -8.7009  -12.5392   23.2790 C   0  0  0  0  0  0  0  0  0  0  0  0
   -9.9344  -11.2934   23.7294 S   0  0  2  0  0  0  0  0  0  0  0  0
   -9.3998   -9.9115   22.6897 C   0  0  0  0  0  0  0  0  0  0  0  0
   -9.3211  -10.7728   25.3546 C   0  0  0  0  0  0  0  0  0  0  0  0
  -10.3014   -9.7851   25.9709 C   0  0  1  0  0  0  0  0  0  0  0  0
  -10.5273   -8.7492   25.0450 O   0  0  0  0  0  0  0  0  0  0  0  0
  -11.6833  -10.3324   26.2751 C   0  0  1  0  0  0  0  0  0  0  0  0
  -11.7810  -10.7335   27.6235 O   0  0  0  0  0  0  0  0  0  0  0  0
  -12.5861   -9.1425   26.0199 C   0  0  1  0  0  0  0  0  0  0  0  0
  -13.0080   -8.6302   27.2598 O   0  0  0  0  0  0  0  0  0  0  0  0
  -11.7457   -8.0978   25.2980 C   0  0  2  0  0  0  0  0  0  0  0  0
   -6.9683  -15.1908   22.2866 O   0  0  0  0  0  0  0  0  0  0  0  0
  -13.6256   -9.9333   20.7295 N   0  0  0  0  0  0  0  0  0  0  0  0
  -13.0536  -10.6475   21.7638 C   0  0  0  0  0  0  0  0  0  0  0  0
  -12.6070  -10.0021   22.9014 N   0  0  0  0  0  0  0  0  0  0  0  0
  -12.7211   -8.6574   23.0138 C   0  0  0  0  0  0  0  0  0  0  0  0
  -13.3018   -7.9232   21.9870 C   0  0  0  0  0  0  0  0  0  0  0  0
  -13.7505   -8.5654   20.8392 C   0  0  0  0  0  0  0  0  0  0  0  0
  -14.2980   -7.8609   19.8518 N   0  0  0  0  0  0  0  0  0  0  0  0
  -13.2986   -6.6236   22.3538 N   0  0  0  0  0  0  0  0  0  0  0  0
  -12.7493   -6.5229   23.5870 C   0  0  0  0  0  0  0  0  0  0  0  0
  -12.3858   -7.7735   24.0121 N   0  0  0  0  0  0  0  0  0  0  0  0
  2  1  1  6  0  0  0
  2  3  1  0  0  0  0
  2  5  1  0  0  0  0
  3  4  1  0  0  0  0
  3 17  1  0  0  0  0
  5  6  1  0  0  0  0
  7  6  1  6  0  0  0
  7  8  1  0  0  0  0
  7  9  1  0  0  0  0
 10  9  1  6  0  0  0
 10 11  1  0  0  0  0
 10 12  1  0  0  0  0
 11 16  1  0  0  0  0
 12 13  1  1  0  0  0
 12 14  1  0  0  0  0
 14 15  1  1  0  0  0
 14 16  1  0  0  0  0
 16 27  1  6  0  0  0
 18 19  2  0  0  0  0
 18 23  1  0  0  0  0
 19 20  1  0  0  0  0
 20 21  2  0  0  0  0
 21 22  1  0  0  0  0
 21 27  1  0  0  0  0
 22 23  2  0  0  0  0
 22 25  1  0  0  0  0
 23 24  1  0  0  0  0
 25 26  2  0  0  0  0
 26 27  1  0  0  0  0
M  END
>  <CHROM.1>
157.22982834,70.33582478,-165.18384521,71.01414687,-175.42791277,-53.17812011
57.27180801,-10.64150996,-10.38473511,23.69503727,0.05412710,0.72804107,-1.67730974

>  <Name>
ligand

>  <RI>
0

>  <Rbt.Current_Directory>
/home/itssahil/PROJECTS/Mol_Feturizer/New_Systems/rnas/3GX6

>  <Rbt.Executable>
rbdock ($Id: //depot/dev/client3/rdock/2013.1/src/exe/rbdock.cxx#4 $)

>  <Rbt.Library>
libRbt.so (2013.1, Build901 2013/11/27)

>  <Rbt.Parameter_File>
/export/apps/rDock/src/rDock_2013.1_src/data/scripts/dock_solv.prm

>  <Rbt.Receptor>
prm/blind_docking_40.prm

>  <SCORE>
-17.7243

>  <SCORE.INTER>
-9.2284

>  <SCORE.INTER.CONST>
1

>  <SCORE.INTER.POLAR>
0

>  <SCORE.INTER.ROT>
7

>  <SCORE.INTER.SOLV>
13.528

>  <SCORE.INTER.VDW>
-18.9283

>  <SCORE.INTER.norm>
-0.341792

>  <SCORE.INTRA>
-8.49588

>  <SCORE.INTRA.DIHEDRAL>
-8.98241

>  <SCORE.INTRA.DIHEDRAL.0>
15.0182

>  <SCORE.INTRA.POLAR>
0

>  <SCORE.INTRA.POLAR.0>
0

>  <SCORE.INTRA.REPUL>
0

>  <SCORE.INTRA.REPUL.0>
0

>  <SCORE.INTRA.SOLV>
-0.674667

>  <SCORE.INTRA.SOLV.lig_0>
-47.9129

>  <SCORE.INTRA.VDW>
-3.66734

>  <SCORE.INTRA.VDW.0>
2.00851

>  <SCORE.INTRA.norm>
-0.314662

>  <SCORE.RESTR>
0

>  <SCORE.RESTR.CAVITY>
0

>  <SCORE.RESTR.norm>
0

>  <SCORE.SYSTEM>
0

>  <SCORE.SYSTEM.CONST>
0

>  <SCORE.SYSTEM.DIHEDRAL>
0

>  <SCORE.SYSTEM.SOLV>
0

>  <SCORE.SYSTEM.norm>
0

>  <SCORE.heavy>
27

>  <SCORE.norm>
-0.656455

>  <RMSD>
10.429

$$$$
ligand
 OpenBabel11021811483D
libRbt.so/2013.1/901 2013/11/27
 27 29  0  0  0  0  0  0  0  0999 V2000
  -10.5896   -7.9170   19.1628 N   0  0  0  0  0  0  0  0  0  0  0  0
  -12.0290   -7.7206   19.0129 C   0  0  2  0  0  0  0  0  0  0  0  0
  -12.3578   -6.3574   18.4100 C   0  0  0  0  0  0  0  0  0  0  0  0
  -13.5249   -5.9767   18.2947 O   0  0  0  0  0  0  0  0  0  0  0  0
  -12.7484   -7.9285   20.3422 C   0  0  0  0  0  0  0  0  0  0  0  0
  -12.8634   -9.3912   20.7427 C   0  0  0  0  0  0  0  0  0  0  0  0
  -13.9945   -9.6847   22.1250 S   0  0  2  0  0  0  0  0  0  0  0  0
  -15.3746   -8.6127   21.6530 C   0  0  0  0  0  0  0  0  0  0  0  0
  -13.2090   -8.6987   23.4286 C   0  0  0  0  0  0  0  0  0  0  0  0
  -12.6042   -9.6294   24.4699 C   0  0  1  0  0  0  0  0  0  0  0  0
  -11.5301  -10.3193   23.8766 O   0  0  0  0  0  0  0  0  0  0  0  0
  -11.9977   -8.9523   25.6846 C   0  0  1  0  0  0  0  0  0  0  0  0
  -12.9153   -8.9214   26.7550 O   0  0  0  0  0  0  0  0  0  0  0  0
  -10.8277   -9.8517   26.0287 C   0  0  1  0  0  0  0  0  0  0  0  0
  -11.1623  -10.5991   27.1720 O   0  0  0  0  0  0  0  0  0  0  0  0
  -10.6310  -10.7915   24.8469 C   0  0  2  0  0  0  0  0  0  0  0  0
  -11.4591   -5.6113   18.0210 O   0  0  0  0  0  0  0  0  0  0  0  0
   -6.8427  -12.7444   21.7468 N   0  0  0  0  0  0  0  0  0  0  0  0
   -8.1116  -13.2458   21.9605 C   0  0  0  0  0  0  0  0  0  0  0  0
   -8.9867  -12.6038   22.8162 N   0  0  0  0  0  0  0  0  0  0  0  0
   -8.6076  -11.4748   23.4608 C   0  0  0  0  0  0  0  0  0  0  0  0
   -7.3379  -10.9508   23.2517 C   0  0  0  0  0  0  0  0  0  0  0  0
   -6.4520  -11.5926   22.3947 C   0  0  0  0  0  0  0  0  0  0  0  0
   -5.2326  -11.0958   22.2019 N   0  0  0  0  0  0  0  0  0  0  0  0
   -7.2228   -9.8325   23.9999 N   0  0  0  0  0  0  0  0  0  0  0  0
   -8.3882   -9.6301   24.6584 C   0  0  0  0  0  0  0  0  0  0  0  0
   -9.2585  -10.6378   24.3361 N   0  0  0  0  0  0  0  0  0  0  0  0
  2  1  1  1  0  0  0
  2  3  1  0  0  0  0
  2  5  1  0  0  0  0
  3  4  1  0  0  0  0
  3 17  1  0  0  0  0
  5  6  1  0  0  0  0
  7  6  1  6  0  0  0
  7  8  1  0  0  0  0
  7  9  1  0  0  0  0
 10  9  1  6  0  0  0
 10 11  1  0  0  0  0
 10 12  1  0  0  0  0
 11 16  1  0  0  0  0
 12 13  1  1  0  0  0
 12 14  1  0  0  0  0
 14 15  1  1  0  0  0
 14 16  1  0  0  0  0
 16 27  1  6  0  0  0
 18 19  2  0  0  0  0
 18 23  1  0  0  0  0
 19 20  1  0  0  0  0
 20 21  2  0  0  0  0
 21 22  1  0  0  0  0
 21 27  1  0  0  0  0
 22 23  2  0  0  0  0
 22 25  1  0  0  0  0
 23 24  1  0  0  0  0
 25 26  2  0  0  0  0
 26 27  1  0  0  0  0
M  END
>  <CHROM.1>
-174.92335175,-74.91566170,-168.16453327,43.37111606,-109.57472041,67.46789696
-80.53527561,-10.86101942,-9.59779567,22.59420515,-2.36629731,-0.40749365
1.94279138

>  <Name>
ligand

>  <RI>
0

>  <Rbt.Current_Directory>
/home/itssahil/PROJECTS/Mol_Feturizer/New_Systems/rnas/3GX6

>  <Rbt.Executable>
rbdock ($Id: //depot/dev/client3/rdock/2013.1/src/exe/rbdock.cxx#4 $)

>  <Rbt.Library>
libRbt.so (2013.1, Build901 2013/11/27)

>  <Rbt.Parameter_File>
/export/apps/rDock/src/rDock_2013.1_src/data/scripts/dock_solv.prm

>  <Rbt.Receptor>
prm/blind_docking_40.prm

>  <SCORE>
-18.4366

>  <SCORE.INTER>
-12.2141

>  <SCORE.INTER.CONST>
1

>  <SCORE.INTER.POLAR>
0

>  <SCORE.INTER.ROT>
7

>  <SCORE.INTER.SOLV>
10.4198

>  <SCORE.INTER.VDW>
-19.8827

>  <SCORE.INTER.norm>
-0.452374

>  <SCORE.INTRA>
-6.22247

>  <SCORE.INTRA.DIHEDRAL>
-6.66079

>  <SCORE.INTRA.DIHEDRAL.0>
15.0182

>  <SCORE.INTRA.POLAR>
0

>  <SCORE.INTRA.POLAR.0>
0

>  <SCORE.INTRA.REPUL>
0

>  <SCORE.INTRA.REPUL.0>
0

>  <SCORE.INTRA.SOLV>
-1.25728

>  <SCORE.INTRA.SOLV.lig_0>
-47.9129

>  <SCORE.INTRA.VDW>
-2.26344

>  <SCORE.INTRA.VDW.0>
2.00851

>  <SCORE.INTRA.norm>
-0.230462

>  <SCORE.RESTR>
0

>  <SCORE.RESTR.CAVITY>
0

>  <SCORE.RESTR.norm>
0

>  <SCORE.SYSTEM>
0

>  <SCORE.SYSTEM.CONST>
0

>  <SCORE.SYSTEM.DIHEDRAL>
0

>  <SCORE.SYSTEM.SOLV>
0

>  <SCORE.SYSTEM.norm>
0

>  <SCORE.heavy>
27

>  <SCORE.norm>
-0.682836

>  <RMSD>
11.067

$$$$
ligand
 OpenBabel11021811483D
libRbt.so/2013.1/901 2013/11/27
 27 29  0  0  0  0  0  0  0  0999 V2000
   -6.9015  -16.5206   21.4985 N   0  0  0  0  0  0  0  0  0  0  0  0
   -6.7354  -15.1314   21.9176 C   0  0  2  0  0  0  0  0  0  0  0  0
   -6.3301  -15.0242   23.3853 C   0  0  0  0  0  0  0  0  0  0  0  0
   -6.2266  -13.9273   23.9389 O   0  0  0  0  0  0  0  0  0  0  0  0
   -7.9953  -14.3210   21.6283 C   0  0  0  0  0  0  0  0  0  0  0  0
   -7.7519  -12.8201   21.5955 C   0  0  0  0  0  0  0  0  0  0  0  0
   -9.1360  -11.8402   22.2282 S   0  0  2  0  0  0  0  0  0  0  0  0
   -8.9718  -10.3486   21.2159 C   0  0  0  0  0  0  0  0  0  0  0  0
   -8.4598  -11.2707   23.8116 C   0  0  0  0  0  0  0  0  0  0  0  0
   -9.5536  -10.5696   24.6043 C   0  0  1  0  0  0  0  0  0  0  0  0
   -9.9472   -9.4196   23.8942 O   0  0  0  0  0  0  0  0  0  0  0  0
  -10.8362  -11.3573   24.7947 C   0  0  1  0  0  0  0  0  0  0  0  0
  -10.8418  -12.0177   26.0407 O   0  0  0  0  0  0  0  0  0  0  0  0
  -11.9042  -10.2826   24.7711 C   0  0  1  0  0  0  0  0  0  0  0  0
  -12.3624  -10.0819   26.0855 O   0  0  0  0  0  0  0  0  0  0  0  0
  -11.2385   -9.0100   24.2653 C   0  0  2  0  0  0  0  0  0  0  0  0
   -6.0928  -16.0360   24.0452 O   0  0  0  0  0  0  0  0  0  0  0  0
  -15.8017   -8.8564   21.6329 N   0  0  0  0  0  0  0  0  0  0  0  0
  -15.5384   -9.4594   22.8470 C   0  0  0  0  0  0  0  0  0  0  0  0
  -14.2726   -9.4056   23.3993 N   0  0  0  0  0  0  0  0  0  0  0  0
  -13.2714   -8.7630   22.7524 C   0  0  0  0  0  0  0  0  0  0  0  0
  -13.5196   -8.1430   21.5339 C   0  0  0  0  0  0  0  0  0  0  0  0
  -14.7892   -8.1955   20.9716 C   0  0  0  0  0  0  0  0  0  0  0  0
  -15.0244   -7.6098   19.8000 N   0  0  0  0  0  0  0  0  0  0  0  0
  -12.3673   -7.5772   21.1147 N   0  0  0  0  0  0  0  0  0  0  0  0
  -11.4085   -7.8088   22.0419 C   0  0  0  0  0  0  0  0  0  0  0  0
  -11.9507   -8.5420   23.0643 N   0  0  0  0  0  0  0  0  0  0  0  0
  2  1  1  1  0  0  0
  2  3  1  0  0  0  0
  2  5  1  0  0  0  0
  3  4  1  0  0  0  0
  3 17  1  0  0  0  0
  5  6  1  0  0  0  0
  7  6  1  6  0  0  0
  7  8  1  0  0  0  0
  7  9  1  0  0  0  0
 10  9  1  6  0  0  0
 10 11  1  0  0  0  0
 10 12  1  0  0  0  0
 11 16  1  0  0  0  0
 12 13  1  1  0  0  0
 12 14  1  0  0  0  0
 14 15  1  1  0  0  0
 14 16  1  0  0  0  0
 16 27  1  6  0  0  0
 18 19  2  0  0  0  0
 18 23  1  0  0  0  0
 19 20  1  0  0  0  0
 20 21  2  0  0  0  0
 21 22  1  0  0  0  0
 21 27  1  0  0  0  0
 22 23  2  0  0  0  0
 22 25  1  0  0  0  0
 23 24  1  0  0  0  0
 25 26  2  0  0  0  0
 26 27  1  0  0  0  0
M  END
>  <CHROM.1>
-175.36050006,-160.65785930,-145.55711857,-148.45130408,-172.34155828,-64.01714495
140.30637178,-10.54721331,-11.01562798,22.93867301,-0.09714180,0.71835631
-1.53916696

>  <Name>
ligand

>  <RI>
0

>  <Rbt.Current_Directory>
/home/itssahil/PROJECTS/Mol_Feturizer/New_Systems/rnas/3GX6

>  <Rbt.Executable>
rbdock ($Id: //depot/dev/client3/rdock/2013.1/src/exe/rbdock.cxx#4 $)

>  <Rbt.Library>
libRbt.so (2013.1, Build901 2013/11/27)

>  <Rbt.Parameter_File>
/export/apps/rDock/src/rDock_2013.1_src/data/scripts/dock_solv.prm

>  <Rbt.Receptor>
prm/blind_docking_60.prm

>  <SCORE>
-18.9803

>  <SCORE.INTER>
-12.3729

>  <SCORE.INTER.CONST>
1

>  <SCORE.INTER.POLAR>
0

>  <SCORE.INTER.ROT>
7

>  <SCORE.INTER.SOLV>
16.4516

>  <SCORE.INTER.VDW>
-21.9991

>  <SCORE.INTER.norm>
-0.458254

>  <SCORE.INTRA>
-6.60745

>  <SCORE.INTRA.DIHEDRAL>
-3.09382

>  <SCORE.INTRA.DIHEDRAL.0>
15.0182

>  <SCORE.INTRA.POLAR>
0

>  <SCORE.INTRA.POLAR.0>
0

>  <SCORE.INTRA.REPUL>
0

>  <SCORE.INTRA.REPUL.0>
0

>  <SCORE.INTRA.SOLV>
-1.47464

>  <SCORE.INTRA.SOLV.lig_0>
-47.9129

>  <SCORE.INTRA.VDW>
-4.32322

>  <SCORE.INTRA.VDW.0>
2.00851

>  <SCORE.INTRA.norm>
-0.24472

>  <SCORE.RESTR>
0

>  <SCORE.RESTR.CAVITY>
0

>  <SCORE.RESTR.norm>
0

>  <SCORE.SYSTEM>
0

>  <SCORE.SYSTEM.CONST>
0

>  <SCORE.SYSTEM.DIHEDRAL>
0

>  <SCORE.SYSTEM.SOLV>
0

>  <SCORE.SYSTEM.norm>
0

>  <SCORE.heavy>
27

>  <SCORE.norm>
-0.702975

>  <RMSD>
11.264

$$$$
ligand
 OpenBabel11021811483D
libRbt.so/2013.1/901 2013/11/27
 27 29  0  0  0  0  0  0  0  0999 V2000
   -6.2065  -16.4013   20.8165 N   0  0  0  0  0  0  0  0  0  0  0  0
   -7.5480  -16.0411   20.3654 C   0  0  2  0  0  0  0  0  0  0  0  0
   -7.8978  -16.7022   19.0348 C   0  0  0  0  0  0  0  0  0  0  0  0
   -8.8299  -17.5048   18.9480 O   0  0  0  0  0  0  0  0  0  0  0  0
   -7.7093  -14.5256   20.2923 C   0  0  0  0  0  0  0  0  0  0  0  0
   -7.9038  -13.8742   21.6527 C   0  0  0  0  0  0  0  0  0  0  0  0
   -7.9157  -12.0648   21.6028 S   0  0  2  0  0  0  0  0  0  0  0  0
   -6.2529  -11.7086   22.2231 C   0  0  0  0  0  0  0  0  0  0  0  0
   -8.9267  -11.6863   23.0598 C   0  0  0  0  0  0  0  0  0  0  0  0
  -10.3042  -11.2205   22.6107 C   0  0  1  0  0  0  0  0  0  0  0  0
  -11.1375  -11.1467   23.7429 O   0  0  0  0  0  0  0  0  0  0  0  0
  -10.3635   -9.8316   22.0029 C   0  0  1  0  0  0  0  0  0  0  0  0
  -10.3114   -9.8950   20.5951 O   0  0  0  0  0  0  0  0  0  0  0  0
  -11.7178   -9.3201   22.4504 C   0  0  1  0  0  0  0  0  0  0  0  0
  -12.5911   -9.3502   21.3485 O   0  0  0  0  0  0  0  0  0  0  0  0
  -12.2193  -10.2783   23.5223 C   0  0  2  0  0  0  0  0  0  0  0  0
   -7.2490  -16.4488   18.0197 O   0  0  0  0  0  0  0  0  0  0  0  0
  -10.2726   -7.0226   27.1810 N   0  0  0  0  0  0  0  0  0  0  0  0
   -9.6297   -7.5437   26.0755 C   0  0  0  0  0  0  0  0  0  0  0  0
  -10.2941   -8.3931   25.2110 N   0  0  0  0  0  0  0  0  0  0  0  0
  -11.5856   -8.7291   25.4409 C   0  0  0  0  0  0  0  0  0  0  0  0
  -12.2513   -8.2078   26.5435 C   0  0  0  0  0  0  0  0  0  0  0  0
  -11.5886   -7.3554   27.4182 C   0  0  0  0  0  0  0  0  0  0  0  0
  -12.2236   -6.8637   28.4794 N   0  0  0  0  0  0  0  0  0  0  0  0
  -13.5123   -8.6910   26.5326 N   0  0  0  0  0  0  0  0  0  0  0  0
  -13.6623   -9.4857   25.4470 C   0  0  0  0  0  0  0  0  0  0  0  0
  -12.4787   -9.5209   24.7583 N   0  0  0  0  0  0  0  0  0  0  0  0
  2  1  1  6  0  0  0
  2  3  1  0  0  0  0
  2  5  1  0  0  0  0
  3  4  1  0  0  0  0
  3 17  1  0  0  0  0
  5  6  1  0  0  0  0
  7  6  1  1  0  0  0
  7  8  1  0  0  0  0
  7  9  1  0  0  0  0
 10  9  1  1  0  0  0
 10 11  1  0  0  0  0
 10 12  1  0  0  0  0
 11 16  1  0  0  0  0
 12 13  1  6  0  0  0
 12 14  1  0  0  0  0
 14 15  1  6  0  0  0
 14 16  1  0  0  0  0
 16 27  1  1  0  0  0
 18 19  2  0  0  0  0
 18 23  1  0  0  0  0
 19 20  1  0  0  0  0
 20 21  2  0  0  0  0
 21 22  1  0  0  0  0
 21 27  1  0  0  0  0
 22 23  2  0  0  0  0
 22 25  1  0  0  0  0
 23 24  1  0  0  0  0
 25 26  2  0  0  0  0
 26 27  1  0  0  0  0
M  END
>  <CHROM.1>
117.17826147,-76.89184153,173.68044949,-102.85207871,-106.10946298,170.35779024
56.84690219,-9.94748094,-11.23663189,22.97618598,-1.13702984,-0.28764608
0.83249455

>  <Name>
ligand

>  <RI>
0

>  <Rbt.Current_Directory>
/home/itssahil/PROJECTS/Mol_Feturizer/New_Systems/rnas/3GX6

>  <Rbt.Executable>
rbdock ($Id: //depot/dev/client3/rdock/2013.1/src/exe/rbdock.cxx#4 $)

>  <Rbt.Library>
libRbt.so (2013.1, Build901 2013/11/27)

>  <Rbt.Parameter_File>
/export/apps/rDock/src/rDock_2013.1_src/data/scripts/dock_solv.prm

>  <Rbt.Receptor>
prm/blind_docking_60.prm

>  <SCORE>
-19.0821

>  <SCORE.INTER>
-11.1329

>  <SCORE.INTER.CONST>
1

>  <SCORE.INTER.POLAR>
0

>  <SCORE.INTER.ROT>
7

>  <SCORE.INTER.SOLV>
11.5726

>  <SCORE.INTER.VDW>
-19.5461

>  <SCORE.INTER.norm>
-0.412328

>  <SCORE.INTRA>
-8.07286

>  <SCORE.INTRA.DIHEDRAL>
-4.53569

>  <SCORE.INTRA.DIHEDRAL.0>
15.0182

>  <SCORE.INTRA.POLAR>
0

>  <SCORE.INTRA.POLAR.0>
0

>  <SCORE.INTRA.REPUL>
0

>  <SCORE.INTRA.REPUL.0>
0

>  <SCORE.INTRA.SOLV>
-1.19692

>  <SCORE.INTRA.SOLV.lig_0>
-47.9129

>  <SCORE.INTRA.VDW>
-5.20656

>  <SCORE.INTRA.VDW.0>
2.00851

>  <SCORE.INTRA.norm>
-0.298995

>  <SCORE.RESTR>
0.123604

>  <SCORE.RESTR.CAVITY>
0.123604

>  <SCORE.RESTR.norm>
0.00457792

>  <SCORE.SYSTEM>
0

>  <SCORE.SYSTEM.CONST>
0

>  <SCORE.SYSTEM.DIHEDRAL>
0

>  <SCORE.SYSTEM.SOLV>
0

>  <SCORE.SYSTEM.norm>
0

>  <SCORE.heavy>
27

>  <SCORE.norm>
-0.706745

>  <RMSD>
11.509

$$$$
ligand
 OpenBabel11021811483D
libRbt.so/2013.1/901 2013/11/27
 27 29  0  0  0  0  0  0  0  0999 V2000
  -10.5605   -6.8698   18.0077 N   0  0  0  0  0  0  0  0  0  0  0  0
  -10.6097   -8.3216   18.1585 C   0  0  2  0  0  0  0  0  0  0  0  0
  -11.2230   -9.0004   16.9366 C   0  0  0  0  0  0  0  0  0  0  0  0
  -11.5795   -8.3442   15.9554 O   0  0  0  0  0  0  0  0  0  0  0  0
  -11.3438   -8.7116   19.4379 C   0  0  0  0  0  0  0  0  0  0  0  0
  -12.7835   -8.2231   19.4791 C   0  0  0  0  0  0  0  0  0  0  0  0
  -13.8395   -9.1529   20.6178 S   0  0  2  0  0  0  0  0  0  0  0  0
  -15.4214   -8.3119   20.3590 C   0  0  0  0  0  0  0  0  0  0  0  0
  -13.3244   -8.4576   22.2114 C   0  0  0  0  0  0  0  0  0  0  0  0
  -13.0964   -9.5878   23.2048 C   0  0  1  0  0  0  0  0  0  0  0  0
  -11.9057  -10.2518   22.8544 O   0  0  0  0  0  0  0  0  0  0  0  0
  -12.8864   -9.1644   24.6465 C   0  0  1  0  0  0  0  0  0  0  0  0
  -14.0923   -9.2378   25.3740 O   0  0  0  0  0  0  0  0  0  0  0  0
  -11.9028  -10.1936   25.1653 C   0  0  1  0  0  0  0  0  0  0  0  0
  -12.5947  -11.0889   26.0005 O   0  0  0  0  0  0  0  0  0  0  0  0
  -11.3662  -10.9418   23.9525 C   0  0  2  0  0  0  0  0  0  0  0  0
  -11.3785  -10.2213   16.9104 O   0  0  0  0  0  0  0  0  0  0  0  0
   -6.8532  -12.5339   21.7449 N   0  0  0  0  0  0  0  0  0  0  0  0
   -8.1376  -12.9483   21.4520 C   0  0  0  0  0  0  0  0  0  0  0  0
   -9.2186  -12.4247   22.1356 N   0  0  0  0  0  0  0  0  0  0  0  0
   -9.0304  -11.4999   23.1068 C   0  0  0  0  0  0  0  0  0  0  0  0
   -7.7461  -11.0646   23.4094 C   0  0  0  0  0  0  0  0  0  0  0  0
   -6.6545  -11.5888   22.7279 C   0  0  0  0  0  0  0  0  0  0  0  0
   -5.4236  -11.1787   23.0244 N   0  0  0  0  0  0  0  0  0  0  0  0
   -7.8412  -10.1477   24.3961 N   0  0  0  0  0  0  0  0  0  0  0  0
   -9.1478   -9.9822   24.7093 C   0  0  0  0  0  0  0  0  0  0  0  0
   -9.8997  -10.8118   23.9200 N   0  0  0  0  0  0  0  0  0  0  0  0
  2  1  1  6  0  0  0
  2  3  1  0  0  0  0
  2  5  1  0  0  0  0
  3  4  1  0  0  0  0
  3 17  1  0  0  0  0
  5  6  1  0  0  0  0
  7  6  1  6  0  0  0
  7  8  1  0  0  0  0
  7  9  1  0  0  0  0
 10  9  1  6  0  0  0
 10 11  1  0  0  0  0
 10 12  1  0  0  0  0
 11 16  1  0  0  0  0
 12 13  1  1  0  0  0
 12 14  1  0  0  0  0
 14 15  1  1  0  0  0
 14 16  1  0  0  0  0
 16 27  1  6  0  0  0
 18 19  2  0  0  0  0
 18 23  1  0  0  0  0
 19 20  1  0  0  0  0
 20 21  2  0  0  0  0
 21 22  1  0  0  0  0
 21 27  1  0  0  0  0
 22 23  2  0  0  0  0
 22 25  1  0  0  0  0
 23 24  1  0  0  0  0
 25 26  2  0  0  0  0
 26 27  1  0  0  0  0
M  END
>  <CHROM.1>
1.88642844,60.22239642,158.13071977,-178.99965505,-133.85109832,72.88210985
-77.33137797,-10.98006731,-9.93457314,21.75478163,-2.13850094,-0.36117469
1.79756922

>  <Name>
ligand

>  <RI>
0

>  <Rbt.Current_Directory>
/home/itssahil/PROJECTS/Mol_Feturizer/New_Systems/rnas/3GX6

>  <Rbt.Executable>
rbdock ($Id: //depot/dev/client3/rdock/2013.1/src/exe/rbdock.cxx#4 $)

>  <Rbt.Library>
libRbt.so (2013.1, Build901 2013/11/27)

>  <Rbt.Parameter_File>
/export/apps/rDock/src/rDock_2013.1_src/data/scripts/dock_solv.prm

>  <Rbt.Receptor>
prm/blind_docking_40.prm

>  <SCORE>
-19.9271

>  <SCORE.INTER>
-12.9809

>  <SCORE.INTER.CONST>
1

>  <SCORE.INTER.POLAR>
0

>  <SCORE.INTER.ROT>
7

>  <SCORE.INTER.SOLV>
10.2167

>  <SCORE.INTER.VDW>
-20.3261

>  <SCORE.INTER.norm>
-0.480773

>  <SCORE.INTRA>
-6.94617

>  <SCORE.INTRA.DIHEDRAL>
-5.11723

>  <SCORE.INTRA.DIHEDRAL.0>
15.0182

>  <SCORE.INTRA.POLAR>
0

>  <SCORE.INTRA.POLAR.0>
0

>  <SCORE.INTRA.REPUL>
0

>  <SCORE.INTRA.REPUL.0>
0

>  <SCORE.INTRA.SOLV>
-1.14064

>  <SCORE.INTRA.SOLV.lig_0>
-47.9129

>  <SCORE.INTRA.VDW>
-3.81724

>  <SCORE.INTRA.VDW.0>
2.00851

>  <SCORE.INTRA.norm>
-0.257266

>  <SCORE.RESTR>
0

>  <SCORE.RESTR.CAVITY>
0

>  <SCORE.RESTR.norm>
0

>  <SCORE.SYSTEM>
0

>  <SCORE.SYSTEM.CONST>
0

>  <SCORE.SYSTEM.DIHEDRAL>
0

>  <SCORE.SYSTEM.SOLV>
0

>  <SCORE.SYSTEM.norm>
0

>  <SCORE.heavy>
27

>  <SCORE.norm>
-0.738039

>  <RMSD>
11.693

$$$$
ligand
 OpenBabel11021811483D
libRbt.so/2013.1/901 2013/11/27
 27 29  0  0  0  0  0  0  0  0999 V2000
   -7.7689  -12.4318   24.2013 N   0  0  0  0  0  0  0  0  0  0  0  0
   -8.6578  -12.4503   23.0426 C   0  0  2  0  0  0  0  0  0  0  0  0
   -7.8820  -12.3967   21.7291 C   0  0  0  0  0  0  0  0  0  0  0  0
   -7.1739  -11.4276   21.4467 O   0  0  0  0  0  0  0  0  0  0  0  0
   -9.6859  -11.3261   23.1270 C   0  0  0  0  0  0  0  0  0  0  0  0
  -10.5529  -11.3951   24.3747 C   0  0  0  0  0  0  0  0  0  0  0  0
  -11.5617   -9.9172   24.6475 S   0  0  2  0  0  0  0  0  0  0  0  0
  -12.2644  -10.2950   26.2724 C   0  0  0  0  0  0  0  0  0  0  0  0
  -12.9738  -10.2585   23.5622 C   0  0  0  0  0  0  0  0  0  0  0  0
  -12.7354   -9.6111   22.2056 C   0  0  1  0  0  0  0  0  0  0  0  0
  -13.8932   -9.7827   21.4235 O   0  0  0  0  0  0  0  0  0  0  0  0
  -12.5064   -8.1114   22.2232 C   0  0  1  0  0  0  0  0  0  0  0  0
  -11.1283   -7.8119   22.2170 O   0  0  0  0  0  0  0  0  0  0  0  0
  -13.1438   -7.6529   20.9273 C   0  0  1  0  0  0  0  0  0  0  0  0
  -12.1207   -7.3451   20.0127 O   0  0  0  0  0  0  0  0  0  0  0  0
  -13.9617   -8.8238   20.3993 C   0  0  2  0  0  0  0  0  0  0  0  0
   -7.9536  -13.3228   20.9211 O   0  0  0  0  0  0  0  0  0  0  0  0
  -17.3109   -5.4718   18.0923 N   0  0  0  0  0  0  0  0  0  0  0  0
  -15.9387   -5.5374   17.9512 C   0  0  0  0  0  0  0  0  0  0  0  0
  -15.2055   -6.4864   18.6384 N   0  0  0  0  0  0  0  0  0  0  0  0
  -15.8253   -7.3627   19.4641 C   0  0  0  0  0  0  0  0  0  0  0  0
  -17.2061   -7.3174   19.6121 C   0  0  0  0  0  0  0  0  0  0  0  0
  -17.9490   -6.3642   18.9263 C   0  0  0  0  0  0  0  0  0  0  0  0
  -19.2706   -6.3148   19.0755 N   0  0  0  0  0  0  0  0  0  0  0  0
  -17.5625   -8.2929   20.4751 N   0  0  0  0  0  0  0  0  0  0  0  0
  -16.4487   -8.9596   20.8592 C   0  0  0  0  0  0  0  0  0  0  0  0
  -15.3624   -8.3973   20.2424 N   0  0  0  0  0  0  0  0  0  0  0  0
  2  1  1  1  0  0  0
  2  3  1  0  0  0  0
  2  5  1  0  0  0  0
  3  4  1  0  0  0  0
  3 17  1  0  0  0  0
  5  6  1  0  0  0  0
  7  6  1  6  0  0  0
  7  8  1  0  0  0  0
  7  9  1  0  0  0  0
 10  9  1  1  0  0  0
 10 11  1  0  0  0  0
 10 12  1  0  0  0  0
 11 16  1  0  0  0  0
 12 13  1  6  0  0  0
 12 14  1  0  0  0  0
 14 15  1  6  0  0  0
 14 16  1  0  0  0  0
 16 27  1  1  0  0  0
 18 19  2  0  0  0  0
 18 23  1  0  0  0  0
 19 20  1  0  0  0  0
 20 21  2  0  0  0  0
 21 22  1  0  0  0  0
 21 27  1  0  0  0  0
 22 23  2  0  0  0  0
 22 25  1  0  0  0  0
 23 24  1  0  0  0  0
 25 26  2  0  0  0  0
 26 27  1  0  0  0  0
M  END
>  <CHROM.1>
-62.21292688,-58.77036087,169.34390652,-173.59386428,-93.87763827,-174.64226927
171.51923465,-12.91784730,-9.16380286,21.54214157,0.54857337,-0.41584429
1.87421587

>  <Name>
ligand

>  <RI>
0

>  <Rbt.Current_Directory>
/home/itssahil/PROJECTS/Mol_Feturizer/New_Systems/rnas/3GX6

>  <Rbt.Executable>
rbdock ($Id: //depot/dev/client3/rdock/2013.1/src/exe/rbdock.cxx#4 $)

>  <Rbt.Library>
libRbt.so (2013.1, Build901 2013/11/27)

>  <Rbt.Parameter_File>
/export/apps/rDock/src/rDock_2013.1_src/data/scripts/dock_solv.prm

>  <Rbt.Receptor>
prm/blind_docking_100.prm

>  <SCORE>
-25.0892

>  <SCORE.INTER>
-15.5898

>  <SCORE.INTER.CONST>
1

>  <SCORE.INTER.POLAR>
0

>  <SCORE.INTER.ROT>
7

>  <SCORE.INTER.SOLV>
20.3465

>  <SCORE.INTER.VDW>
-25.442

>  <SCORE.INTER.norm>
-0.577398

>  <SCORE.INTRA>
-9.49945

>  <SCORE.INTRA.DIHEDRAL>
-9.03667

>  <SCORE.INTRA.DIHEDRAL.0>
15.0182

>  <SCORE.INTRA.POLAR>
0

>  <SCORE.INTRA.POLAR.0>
0

>  <SCORE.INTRA.REPUL>
0

>  <SCORE.INTRA.REPUL.0>
0

>  <SCORE.INTRA.SOLV>
-0.822278

>  <SCORE.INTRA.SOLV.lig_0>
-47.9129

>  <SCORE.INTRA.VDW>
-4.56998

>  <SCORE.INTRA.VDW.0>
2.00851

>  <SCORE.INTRA.norm>
-0.351832

>  <SCORE.RESTR>
0

>  <SCORE.RESTR.CAVITY>
0

>  <SCORE.RESTR.norm>
0

>  <SCORE.SYSTEM>
0

>  <SCORE.SYSTEM.CONST>
0

>  <SCORE.SYSTEM.DIHEDRAL>
0

>  <SCORE.SYSTEM.SOLV>
0

>  <SCORE.SYSTEM.norm>
0

>  <SCORE.heavy>
27

>  <SCORE.norm>
-0.92923

>  <RMSD>
11.853

$$$$
ligand
 OpenBabel11021811483D
libRbt.so/2013.1/901 2013/11/27
 27 29  0  0  0  0  0  0  0  0999 V2000
   -9.7687   -6.0730   16.5645 N   0  0  0  0  0  0  0  0  0  0  0  0
  -10.0718   -7.4925   16.7258 C   0  0  2  0  0  0  0  0  0  0  0  0
   -9.9761   -8.2489   15.4034 C   0  0  0  0  0  0  0  0  0  0  0  0
   -8.8861   -8.6084   14.9528 O   0  0  0  0  0  0  0  0  0  0  0  0
  -11.4365   -7.6871   17.3797 C   0  0  0  0  0  0  0  0  0  0  0  0
  -11.4523   -7.3311   18.8583 C   0  0  0  0  0  0  0  0  0  0  0  0
  -12.9432   -7.8780   19.7268 S   0  0  2  0  0  0  0  0  0  0  0  0
  -14.1349   -6.6490   19.1387 C   0  0  0  0  0  0  0  0  0  0  0  0
  -12.6073   -7.2728   21.4030 C   0  0  0  0  0  0  0  0  0  0  0  0
  -13.2260   -8.2249   22.4165 C   0  0  1  0  0  0  0  0  0  0  0  0
  -12.5882   -9.4741   22.2972 O   0  0  0  0  0  0  0  0  0  0  0  0
  -13.0459   -7.8427   23.8737 C   0  0  1  0  0  0  0  0  0  0  0  0
  -14.1762   -7.1515   24.3567 O   0  0  0  0  0  0  0  0  0  0  0  0
  -12.9220   -9.1847   24.5662 C   0  0  1  0  0  0  0  0  0  0  0  0
  -14.1232   -9.4453   25.2495 O   0  0  0  0  0  0  0  0  0  0  0  0
  -12.7217  -10.2277   23.4750 C   0  0  2  0  0  0  0  0  0  0  0  0
  -10.9904   -8.5107   14.7567 O   0  0  0  0  0  0  0  0  0  0  0  0
   -7.9667  -11.5456   21.6234 N   0  0  0  0  0  0  0  0  0  0  0  0
   -8.9381  -10.7803   21.0089 C   0  0  0  0  0  0  0  0  0  0  0  0
  -10.1418  -10.5314   21.6409 N   0  0  0  0  0  0  0  0  0  0  0  0
  -10.3854  -11.0405   22.8719 C   0  0  0  0  0  0  0  0  0  0  0  0
   -9.4165  -11.8056   23.5094 C   0  0  0  0  0  0  0  0  0  0  0  0
   -8.2052  -12.0619   22.8786 C   0  0  0  0  0  0  0  0  0  0  0  0
   -7.2810  -12.8028   23.4853 N   0  0  0  0  0  0  0  0  0  0  0  0
   -9.9067  -12.1769   24.7117 N   0  0  0  0  0  0  0  0  0  0  0  0
  -11.1468  -11.6531   24.8544 C   0  0  0  0  0  0  0  0  0  0  0  0
  -11.4601  -10.9452   23.7242 N   0  0  0  0  0  0  0  0  0  0  0  0
  2  1  1  6  0  0  0
  2  3  1  0  0  0  0
  2  5  1  0  0  0  0
  3  4  1  0  0  0  0
  3 17  1  0  0  0  0
  5  6  1  0  0  0  0
  7  6  1  6  0  0  0
  7  8  1  0  0  0  0
  7  9  1  0  0  0  0
 10  9  1  6  0  0  0
 10 11  1  0  0  0  0
 10 12  1  0  0  0  0
 11 16  1  0  0  0  0
 12 13  1  1  0  0  0
 12 14  1  0  0  0  0
 14 15  1  6  0  0  0
 14 16  1  0  0  0  0
 16 27  1  1  0  0  0
 18 19  2  0  0  0  0
 18 23  1  0  0  0  0
 19 20  1  0  0  0  0
 20 21  2  0  0  0  0
 21 22  1  0  0  0  0
 21 27  1  0  0  0  0
 22 23  2  0  0  0  0
 22 25  1  0  0  0  0
 23 24  1  0  0  0  0
 25 26  2  0  0  0  0
 26 27  1  0  0  0  0
M  END
>  <CHROM.1>
80.35382805,-72.39935940,-167.78199800,-75.61844474,-147.40255731,63.84595691
-8.80674792,-11.25527293,-9.22440607,21.03996490,-1.47666630,-0.63040911
1.98754985

>  <Name>
ligand

>  <RI>
0

>  <Rbt.Current_Directory>
/home/itssahil/PROJECTS/Mol_Feturizer/New_Systems/rnas/3GX6

>  <Rbt.Executable>
rbdock ($Id: //depot/dev/client3/rdock/2013.1/src/exe/rbdock.cxx#4 $)

>  <Rbt.Library>
libRbt.so (2013.1, Build901 2013/11/27)

>  <Rbt.Parameter_File>
/export/apps/rDock/src/rDock_2013.1_src/data/scripts/dock_solv.prm

>  <Rbt.Receptor>
prm/blind_docking_100.prm

>  <SCORE>
-22.1519

>  <SCORE.INTER>
-13.9689

>  <SCORE.INTER.CONST>
1

>  <SCORE.INTER.POLAR>
0

>  <SCORE.INTER.ROT>
7

>  <SCORE.INTER.SOLV>
10.3984

>  <SCORE.INTER.VDW>
-21.0454

>  <SCORE.INTER.norm>
-0.517368

>  <SCORE.INTRA>
-8.183

>  <SCORE.INTRA.DIHEDRAL>
-7.11062

>  <SCORE.INTRA.DIHEDRAL.0>
15.0182

>  <SCORE.INTRA.POLAR>
0

>  <SCORE.INTRA.POLAR.0>
0

>  <SCORE.INTRA.REPUL>
0

>  <SCORE.INTRA.REPUL.0>
0

>  <SCORE.INTRA.SOLV>
-1.24902

>  <SCORE.INTRA.SOLV.lig_0>
-47.9129

>  <SCORE.INTRA.VDW>
-4.00318

>  <SCORE.INTRA.VDW.0>
2.00851

>  <SCORE.INTRA.norm>
-0.303074

>  <SCORE.RESTR>
0

>  <SCORE.RESTR.CAVITY>
0

>  <SCORE.RESTR.norm>
0

>  <SCORE.SYSTEM>
0

>  <SCORE.SYSTEM.CONST>
0

>  <SCORE.SYSTEM.DIHEDRAL>
0

>  <SCORE.SYSTEM.SOLV>
0

>  <SCORE.SYSTEM.norm>
0

>  <SCORE.heavy>
27

>  <SCORE.norm>
-0.820442

>  <RMSD>
12.074

$$$$
ligand
 OpenBabel11021811483D
libRbt.so/2013.1/901 2013/11/27
 27 29  0  0  0  0  0  0  0  0999 V2000
   -6.3641  -15.9954   19.8608 N   0  0  0  0  0  0  0  0  0  0  0  0
   -6.5236  -16.0516   21.3114 C   0  0  2  0  0  0  0  0  0  0  0  0
   -6.9236  -17.4460   21.7865 C   0  0  0  0  0  0  0  0  0  0  0  0
   -6.2712  -18.0358   22.6508 O   0  0  0  0  0  0  0  0  0  0  0  0
   -7.5144  -14.9954   21.7916 C   0  0  0  0  0  0  0  0  0  0  0  0
   -7.0566  -13.5712   21.5179 C   0  0  0  0  0  0  0  0  0  0  0  0
   -8.2971  -12.3145   21.9153 S   0  0  2  0  0  0  0  0  0  0  0  0
   -7.5536  -10.8608   21.1339 C   0  0  0  0  0  0  0  0  0  0  0  0
   -7.9273  -12.0057   23.6636 C   0  0  0  0  0  0  0  0  0  0  0  0
   -8.9700  -11.0588   24.2402 C   0  0  1  0  0  0  0  0  0  0  0  0
   -9.0638   -9.9364   23.3957 O   0  0  0  0  0  0  0  0  0  0  0  0
  -10.3849  -11.6018   24.3107 C   0  0  1  0  0  0  0  0  0  0  0  0
  -10.6607  -12.1246   25.5910 O   0  0  0  0  0  0  0  0  0  0  0  0
  -11.2354  -10.3740   24.0562 C   0  0  1  0  0  0  0  0  0  0  0  0
  -11.8101   -9.9704   25.2747 O   0  0  0  0  0  0  0  0  0  0  0  0
  -10.2986   -9.2850   23.5511 C   0  0  2  0  0  0  0  0  0  0  0  0
   -7.9070  -18.0123   21.3092 O   0  0  0  0  0  0  0  0  0  0  0  0
  -13.8446   -6.4571   20.8671 N   0  0  0  0  0  0  0  0  0  0  0  0
  -13.7576   -6.6391   22.2332 C   0  0  0  0  0  0  0  0  0  0  0  0
  -12.7564   -7.4221   22.7761 N   0  0  0  0  0  0  0  0  0  0  0  0
  -11.8490   -8.0257   21.9722 C   0  0  0  0  0  0  0  0  0  0  0  0
  -11.9156   -7.8471   20.5960 C   0  0  0  0  0  0  0  0  0  0  0  0
  -12.9212   -7.0634   20.0432 C   0  0  0  0  0  0  0  0  0  0  0  0
  -12.9905   -6.9002   18.7242 N   0  0  0  0  0  0  0  0  0  0  0  0
  -10.9014   -8.5429   20.0384 N   0  0  0  0  0  0  0  0  0  0  0  0
  -10.1907   -9.1382   21.0249 C   0  0  0  0  0  0  0  0  0  0  0  0
  -10.7630   -8.8285   22.2303 N   0  0  0  0  0  0  0  0  0  0  0  0
  2  1  1  6  0  0  0
  2  3  1  0  0  0  0
  2  5  1  0  0  0  0
  3  4  1  0  0  0  0
  3 17  1  0  0  0  0
  5  6  1  0  0  0  0
  7  6  1  6  0  0  0
  7  8  1  0  0  0  0
  7  9  1  0  0  0  0
 10  9  1  6  0  0  0
 10 11  1  0  0  0  0
 10 12  1  0  0  0  0
 11 16  1  0  0  0  0
 12 13  1  1  0  0  0
 12 14  1  0  0  0  0
 14 15  1  1  0  0  0
 14 16  1  0  0  0  0
 16 27  1  6  0  0  0
 18 19  2  0  0  0  0
 18 23  1  0  0  0  0
 19 20  1  0  0  0  0
 20 21  2  0  0  0  0
 21 22  1  0  0  0  0
 21 27  1  0  0  0  0
 22 23  2  0  0  0  0
 22 25  1  0  0  0  0
 23 24  1  0  0  0  0
 25 26  2  0  0  0  0
 26 27  1  0  0  0  0
M  END
>  <CHROM.1>
125.75361094,-63.02502987,173.65873062,-168.09564141,-174.31178275,-51.26397836
-172.31730708,-9.74031514,-11.29509429,22.17785375,-0.21337332,0.99296609
-1.34352582

>  <Name>
ligand

>  <RI>
0

>  <Rbt.Current_Directory>
/home/itssahil/PROJECTS/Mol_Feturizer/New_Systems/rnas/3GX6

>  <Rbt.Executable>
rbdock ($Id: //depot/dev/client3/rdock/2013.1/src/exe/rbdock.cxx#4 $)

>  <Rbt.Library>
libRbt.so (2013.1, Build901 2013/11/27)

>  <Rbt.Parameter_File>
/export/apps/rDock/src/rDock_2013.1_src/data/scripts/dock_solv.prm

>  <Rbt.Receptor>
prm/blind_docking_100.prm

>  <SCORE>
-21.4137

>  <SCORE.INTER>
-11.9922

>  <SCORE.INTER.CONST>
1

>  <SCORE.INTER.POLAR>
0

>  <SCORE.INTER.ROT>
7

>  <SCORE.INTER.SOLV>
14.5677

>  <SCORE.INTER.VDW>
-21.1173

>  <SCORE.INTER.norm>
-0.444154

>  <SCORE.INTRA>
-9.42151

>  <SCORE.INTRA.DIHEDRAL>
-9.70074

>  <SCORE.INTRA.DIHEDRAL.0>
15.0182

>  <SCORE.INTRA.POLAR>
0

>  <SCORE.INTRA.POLAR.0>
0

>  <SCORE.INTRA.REPUL>
0

>  <SCORE.INTRA.REPUL.0>
0

>  <SCORE.INTRA.SOLV>
-0.935976

>  <SCORE.INTRA.SOLV.lig_0>
-47.9129

>  <SCORE.INTRA.VDW>
-4.10315

>  <SCORE.INTRA.VDW.0>
2.00851

>  <SCORE.INTRA.norm>
-0.348945

>  <SCORE.RESTR>
0

>  <SCORE.RESTR.CAVITY>
0

>  <SCORE.RESTR.norm>
0

>  <SCORE.SYSTEM>
0

>  <SCORE.SYSTEM.CONST>
0

>  <SCORE.SYSTEM.DIHEDRAL>
0

>  <SCORE.SYSTEM.SOLV>
0

>  <SCORE.SYSTEM.norm>
0

>  <SCORE.heavy>
27

>  <SCORE.norm>
-0.793099

>  <RMSD>
12.228

$$$$
ligand
 OpenBabel11021811483D
libRbt.so/2013.1/901 2013/11/27
 27 29  0  0  0  0  0  0  0  0999 V2000
   -7.8409  -15.7998   18.6748 N   0  0  0  0  0  0  0  0  0  0  0  0
   -6.9818  -15.1417   19.6555 C   0  0  2  0  0  0  0  0  0  0  0  0
   -5.5431  -15.6465   19.5816 C   0  0  0  0  0  0  0  0  0  0  0  0
   -4.7234  -15.1249   18.8224 O   0  0  0  0  0  0  0  0  0  0  0  0
   -7.5506  -15.2888   21.0636 C   0  0  0  0  0  0  0  0  0  0  0  0
   -6.7178  -14.5883   22.1260 C   0  0  0  0  0  0  0  0  0  0  0  0
   -7.0333  -12.8102   22.2484 S   0  0  2  0  0  0  0  0  0  0  0  0
   -5.7954  -12.3417   23.4833 C   0  0  0  0  0  0  0  0  0  0  0  0
   -8.5495  -12.7967   23.2431 C   0  0  0  0  0  0  0  0  0  0  0  0
   -8.7599  -11.4054   23.8232 C   0  0  1  0  0  0  0  0  0  0  0  0
   -8.8414  -10.4891   22.7576 O   0  0  0  0  0  0  0  0  0  0  0  0
  -10.0483  -11.2037   24.5986 C   0  0  1  0  0  0  0  0  0  0  0  0
   -9.8342  -11.3669   25.9828 O   0  0  0  0  0  0  0  0  0  0  0  0
  -10.4083   -9.7636   24.2945 C   0  0  1  0  0  0  0  0  0  0  0  0
  -10.1294   -8.9855   25.4323 O   0  0  0  0  0  0  0  0  0  0  0  0
   -9.5158   -9.3190   23.1437 C   0  0  2  0  0  0  0  0  0  0  0  0
   -5.1744  -16.5920   20.2785 O   0  0  0  0  0  0  0  0  0  0  0  0
  -13.7343   -6.5285   21.6632 N   0  0  0  0  0  0  0  0  0  0  0  0
  -13.2352   -6.7063   22.9384 C   0  0  0  0  0  0  0  0  0  0  0  0
  -12.1095   -7.4793   23.1517 N   0  0  0  0  0  0  0  0  0  0  0  0
  -11.4835   -8.0771   22.1102 C   0  0  0  0  0  0  0  0  0  0  0  0
  -11.9662   -7.9025   20.8191 C   0  0  0  0  0  0  0  0  0  0  0  0
  -13.0991   -7.1288   20.5978 C   0  0  0  0  0  0  0  0  0  0  0  0
  -13.5669   -6.9695   19.3621 N   0  0  0  0  0  0  0  0  0  0  0  0
  -11.1629   -8.5909   19.9799 N   0  0  0  0  0  0  0  0  0  0  0  0
  -10.1810   -9.1776   20.7040 C   0  0  0  0  0  0  0  0  0  0  0  0
  -10.3632   -8.8698   22.0264 N   0  0  0  0  0  0  0  0  0  0  0  0
  2  1  1  6  0  0  0
  2  3  1  0  0  0  0
  2  5  1  0  0  0  0
  3  4  1  0  0  0  0
  3 17  1  0  0  0  0
  5  6  1  0  0  0  0
  7  6  1  1  0  0  0
  7  8  1  0  0  0  0
  7  9  1  0  0  0  0
 10  9  1  6  0  0  0
 10 11  1  0  0  0  0
 10 12  1  0  0  0  0
 11 16  1  0  0  0  0
 12 13  1  1  0  0  0
 12 14  1  0  0  0  0
 14 15  1  1  0  0  0
 14 16  1  0  0  0  0
 16 27  1  6  0  0  0
 18 19  2  0  0  0  0
 18 23  1  0  0  0  0
 19 20  1  0  0  0  0
 20 21  2  0  0  0  0
 21 22  1  0  0  0  0
 21 27  1  0  0  0  0
 22 23  2  0  0  0  0
 22 25  1  0  0  0  0
 23 24  1  0  0  0  0
 25 26  2  0  0  0  0
 26 27  1  0  0  0  0
M  END
>  <CHROM.1>
88.24253900,-178.36250604,81.26980063,-175.70521950,162.80482220,58.63356490
156.50187697,-9.21481077,-11.14726728,21.99343735,0.31141842,0.85743308,-1.76961924

>  <Name>
ligand

>  <RI>
0

>  <Rbt.Current_Directory>
/home/itssahil/PROJECTS/Mol_Feturizer/New_Systems/rnas/3GX6

>  <Rbt.Executable>
rbdock ($Id: //depot/dev/client3/rdock/2013.1/src/exe/rbdock.cxx#4 $)

>  <Rbt.Library>
libRbt.so (2013.1, Build901 2013/11/27)

>  <Rbt.Parameter_File>
/export/apps/rDock/src/rDock_2013.1_src/data/scripts/dock_solv.prm

>  <Rbt.Receptor>
prm/blind_docking_40.prm

>  <SCORE>
-24.1106

>  <SCORE.INTER>
-14.9745

>  <SCORE.INTER.CONST>
1

>  <SCORE.INTER.POLAR>
0

>  <SCORE.INTER.ROT>
7

>  <SCORE.INTER.SOLV>
16.198

>  <SCORE.INTER.VDW>
-23.649

>  <SCORE.INTER.norm>
-0.554611

>  <SCORE.INTRA>
-9.13615

>  <SCORE.INTRA.DIHEDRAL>
-9.60449

>  <SCORE.INTRA.DIHEDRAL.0>
15.0182

>  <SCORE.INTRA.POLAR>
0

>  <SCORE.INTRA.POLAR.0>
0

>  <SCORE.INTRA.REPUL>
0

>  <SCORE.INTRA.REPUL.0>
0

>  <SCORE.INTRA.SOLV>
-1.70611

>  <SCORE.INTRA.SOLV.lig_0>
-47.9129

>  <SCORE.INTRA.VDW>
-3.48085

>  <SCORE.INTRA.VDW.0>
2.00851

>  <SCORE.INTRA.norm>
-0.338376

>  <SCORE.RESTR>
0

>  <SCORE.RESTR.CAVITY>
0

>  <SCORE.RESTR.norm>
0

>  <SCORE.SYSTEM>
0

>  <SCORE.SYSTEM.CONST>
0

>  <SCORE.SYSTEM.DIHEDRAL>
0

>  <SCORE.SYSTEM.SOLV>
0

>  <SCORE.SYSTEM.norm>
0

>  <SCORE.heavy>
27

>  <SCORE.norm>
-0.892987

>  <RMSD>
12.347

$$$$
ligand
 OpenBabel11021811483D
libRbt.so/2013.1/901 2013/11/27
 27 29  0  0  0  0  0  0  0  0999 V2000
  -10.8610   -7.2622   15.5954 N   0  0  0  0  0  0  0  0  0  0  0  0
   -9.9285   -7.2702   16.7194 C   0  0  2  0  0  0  0  0  0  0  0  0
   -8.5336   -7.7251   16.2986 C   0  0  0  0  0  0  0  0  0  0  0  0
   -7.5761   -7.6405   17.0709 O   0  0  0  0  0  0  0  0  0  0  0  0
  -10.4669   -8.1187   17.8675 C   0  0  0  0  0  0  0  0  0  0  0  0
  -11.7844   -7.6066   18.4288 C   0  0  0  0  0  0  0  0  0  0  0  0
  -12.4480   -8.6168   19.7761 S   0  0  2  0  0  0  0  0  0  0  0  0
  -13.9283   -7.6656   20.2010 C   0  0  0  0  0  0  0  0  0  0  0  0
  -11.3321   -8.1606   21.1308 C   0  0  0  0  0  0  0  0  0  0  0  0
  -11.8337   -8.7795   22.4276 C   0  0  1  0  0  0  0  0  0  0  0  0
  -11.2846  -10.0705   22.5435 O   0  0  0  0  0  0  0  0  0  0  0  0
  -11.4125   -8.0706   23.7012 C   0  0  1  0  0  0  0  0  0  0  0  0
  -12.4191   -7.1872   24.1428 O   0  0  0  0  0  0  0  0  0  0  0  0
  -11.2500   -9.2088   24.6883 C   0  0  1  0  0  0  0  0  0  0  0  0
  -12.3431   -9.1898   25.5730 O   0  0  0  0  0  0  0  0  0  0  0  0
  -11.2723  -10.4997   23.8809 C   0  0  2  0  0  0  0  0  0  0  0  0
   -8.3369   -8.1824   15.1726 O   0  0  0  0  0  0  0  0  0  0  0  0
   -7.2023  -13.1000   21.7717 N   0  0  0  0  0  0  0  0  0  0  0  0
   -8.2588  -12.4968   21.1182 C   0  0  0  0  0  0  0  0  0  0  0  0
   -9.2522  -11.8533   21.8318 N   0  0  0  0  0  0  0  0  0  0  0  0
   -9.2037  -11.8104   23.1845 C   0  0  0  0  0  0  0  0  0  0  0  0
   -8.1439  -12.4043   23.8589 C   0  0  0  0  0  0  0  0  0  0  0  0
   -7.1431  -13.0553   23.1478 C   0  0  0  0  0  0  0  0  0  0  0  0
   -6.1331  -13.6323   23.7944 N   0  0  0  0  0  0  0  0  0  0  0  0
   -8.3343  -12.2112   25.1817 N   0  0  0  0  0  0  0  0  0  0  0  0
   -9.4724  -11.4991   25.3562 C   0  0  0  0  0  0  0  0  0  0  0  0
  -10.0246  -11.2413   24.1293 N   0  0  0  0  0  0  0  0  0  0  0  0
  2  1  1  6  0  0  0
  2  3  1  0  0  0  0
  2  5  1  0  0  0  0
  3  4  1  0  0  0  0
  3 17  1  0  0  0  0
  5  6  1  0  0  0  0
  7  6  1  6  0  0  0
  7  8  1  0  0  0  0
  7  9  1  0  0  0  0
 10  9  1  6  0  0  0
 10 11  1  0  0  0  0
 10 12  1  0  0  0  0
 11 16  1  0  0  0  0
 12 13  1  1  0  0  0
 12 14  1  0  0  0  0
 14 15  1  1  0  0  0
 14 16  1  0  0  0  0
 16 27  1  6  0  0  0
 18 19  2  0  0  0  0
 18 23  1  0  0  0  0
 19 20  1  0  0  0  0
 20 21  2  0  0  0  0
 21 22  1  0  0  0  0
 21 27  1  0  0  0  0
 22 23  2  0  0  0  0
 22 25  1  0  0  0  0
 23 24  1  0  0  0  0
 25 26  2  0  0  0  0
 26 27  1  0  0  0  0
M  END
>  <CHROM.1>
171.04789276,-61.26756889,179.16717425,177.65503977,172.83325191,87.85894927
-19.45896702,-10.17302680,-9.66452629,21.30258981,-1.72238997,-0.64362482
1.97740207

>  <Name>
ligand

>  <RI>
0

>  <Rbt.Current_Directory>
/home/itssahil/PROJECTS/Mol_Feturizer/New_Systems/rnas/3GX6

>  <Rbt.Executable>
rbdock ($Id: //depot/dev/client3/rdock/2013.1/src/exe/rbdock.cxx#4 $)

>  <Rbt.Library>
libRbt.so (2013.1, Build901 2013/11/27)

>  <Rbt.Parameter_File>
/export/apps/rDock/src/rDock_2013.1_src/data/scripts/dock_solv.prm

>  <Rbt.Receptor>
prm/blind_docking_100.prm

>  <SCORE>
-20.562

>  <SCORE.INTER>
-11.3081

>  <SCORE.INTER.CONST>
1

>  <SCORE.INTER.POLAR>
0

>  <SCORE.INTER.ROT>
7

>  <SCORE.INTER.SOLV>
15.7208

>  <SCORE.INTER.VDW>
-21.0457

>  <SCORE.INTER.norm>
-0.418819

>  <SCORE.INTRA>
-9.25391

>  <SCORE.INTRA.DIHEDRAL>
-9.37968

>  <SCORE.INTRA.DIHEDRAL.0>
15.0182

>  <SCORE.INTRA.POLAR>
0

>  <SCORE.INTRA.POLAR.0>
0

>  <SCORE.INTRA.REPUL>
0

>  <SCORE.INTRA.REPUL.0>
0

>  <SCORE.INTRA.SOLV>
-1.10675

>  <SCORE.INTRA.SOLV.lig_0>
-47.9129

>  <SCORE.INTRA.VDW>
-4.01069

>  <SCORE.INTRA.VDW.0>
2.00851

>  <SCORE.INTRA.norm>
-0.342737

>  <SCORE.RESTR>
0

>  <SCORE.RESTR.CAVITY>
0

>  <SCORE.RESTR.norm>
0

>  <SCORE.SYSTEM>
0

>  <SCORE.SYSTEM.CONST>
0

>  <SCORE.SYSTEM.DIHEDRAL>
0

>  <SCORE.SYSTEM.SOLV>
0

>  <SCORE.SYSTEM.norm>
0

>  <SCORE.heavy>
27

>  <SCORE.norm>
-0.761557

>  <RMSD>
12.399

$$$$
ligand
 OpenBabel11021811483D
libRbt.so/2013.1/901 2013/11/27
 27 29  0  0  0  0  0  0  0  0999 V2000
  -11.2000   -9.2246   29.3612 N   0  0  0  0  0  0  0  0  0  0  0  0
  -10.7244   -8.7271   28.0731 C   0  0  2  0  0  0  0  0  0  0  0  0
  -10.6487   -7.2028   28.0444 C   0  0  0  0  0  0  0  0  0  0  0  0
   -9.6861   -6.6224   27.5375 O   0  0  0  0  0  0  0  0  0  0  0  0
  -11.5836   -9.2624   26.9316 C   0  0  0  0  0  0  0  0  0  0  0  0
  -11.2486   -8.6430   25.5836 C   0  0  0  0  0  0  0  0  0  0  0  0
  -12.4601   -9.0077   24.2892 S   0  0  2  0  0  0  0  0  0  0  0  0
  -11.8805  -10.6343   23.7462 C   0  0  0  0  0  0  0  0  0  0  0  0
  -11.8578   -7.9496   22.9453 C   0  0  0  0  0  0  0  0  0  0  0  0
  -12.9394   -7.8191   21.8826 C   0  0  1  0  0  0  0  0  0  0  0  0
  -12.4876   -6.9190   20.8991 O   0  0  0  0  0  0  0  0  0  0  0  0
  -13.2661   -9.0875   21.1169 C   0  0  1  0  0  0  0  0  0  0  0  0
  -14.3846   -9.7396   21.6758 O   0  0  0  0  0  0  0  0  0  0  0  0
  -13.6024   -8.5736   19.7317 C   0  0  1  0  0  0  0  0  0  0  0  0
  -14.9960   -8.6451   19.5569 O   0  0  0  0  0  0  0  0  0  0  0  0
  -13.1581   -7.1181   19.6810 C   0  0  2  0  0  0  0  0  0  0  0  0
  -11.5496   -6.5215   28.5340 O   0  0  0  0  0  0  0  0  0  0  0  0
  -10.0819   -9.4901   16.1193 N   0  0  0  0  0  0  0  0  0  0  0  0
  -10.9069  -10.0772   17.0583 C   0  0  0  0  0  0  0  0  0  0  0  0
  -11.6504   -9.2994   17.9258 N   0  0  0  0  0  0  0  0  0  0  0  0
  -11.5749   -7.9485   17.8682 C   0  0  0  0  0  0  0  0  0  0  0  0
  -10.7567   -7.3400   16.9243 C   0  0  0  0  0  0  0  0  0  0  0  0
  -10.0045   -8.1160   16.0509 C   0  0  0  0  0  0  0  0  0  0  0  0
   -9.2136   -7.5330   15.1532 N   0  0  0  0  0  0  0  0  0  0  0  0
  -10.8720   -6.0031   17.0765 N   0  0  0  0  0  0  0  0  0  0  0  0
  -11.7509   -5.7550   18.0758 C   0  0  0  0  0  0  0  0  0  0  0  0
  -12.1973   -6.9489   18.5780 N   0  0  0  0  0  0  0  0  0  0  0  0
  2  1  1  1  0  0  0
  2  3  1  0  0  0  0
  2  5  1  0  0  0  0
  3  4  1  0  0  0  0
  3 17  1  0  0  0  0
  5  6  1  0  0  0  0
  7  6  1  1  0  0  0
  7  8  1  0  0  0  0
  7  9  1  0  0  0  0
 10  9  1  1  0  0  0
 10 11  1  0  0  0  0
 10 12  1  0  0  0  0
 11 16  1  0  0  0  0
 12 13  1  1  0  0  0
 12 14  1  0  0  0  0
 14 15  1  1  0  0  0
 14 16  1  0  0  0  0
 16 27  1  6  0  0  0
 18 19  2  0  0  0  0
 18 23  1  0  0  0  0
 19 20  1  0  0  0  0
 20 21  2  0  0  0  0
 21 22  1  0  0  0  0
 21 27  1  0  0  0  0
 22 23  2  0  0  0  0
 22 25  1  0  0  0  0
 23 24  1  0  0  0  0
 25 26  2  0  0  0  0
 26 27  1  0  0  0  0
M  END
>  <CHROM.1>
137.36889006,172.73892144,-168.34938834,-83.43530040,-165.01223629,175.83270324
100.79126532,-11.79735113,-8.20133646,21.75628555,-1.57199731,-0.58039613
-1.54607921

>  <Name>
ligand

>  <RI>
0

>  <Rbt.Current_Directory>
/home/itssahil/PROJECTS/Mol_Feturizer/New_Systems/rnas/3GX6

>  <Rbt.Executable>
rbdock ($Id: //depot/dev/client3/rdock/2013.1/src/exe/rbdock.cxx#4 $)

>  <Rbt.Library>
libRbt.so (2013.1, Build901 2013/11/27)

>  <Rbt.Parameter_File>
/export/apps/rDock/src/rDock_2013.1_src/data/scripts/dock_solv.prm

>  <Rbt.Receptor>
prm/blind_docking_40.prm

>  <SCORE>
-22.1908

>  <SCORE.INTER>
-13.7123

>  <SCORE.INTER.CONST>
1

>  <SCORE.INTER.POLAR>
0

>  <SCORE.INTER.ROT>
7

>  <SCORE.INTER.SOLV>
15.9885

>  <SCORE.INTER.VDW>
-22.7377

>  <SCORE.INTER.norm>
-0.507861

>  <SCORE.INTRA>
-8.69244

>  <SCORE.INTRA.DIHEDRAL>
-8.95199

>  <SCORE.INTRA.DIHEDRAL.0>
15.0182

>  <SCORE.INTRA.POLAR>
0

>  <SCORE.INTRA.POLAR.0>
0

>  <SCORE.INTRA.REPUL>
0

>  <SCORE.INTRA.REPUL.0>
0

>  <SCORE.INTRA.SOLV>
-1.55893

>  <SCORE.INTRA.SOLV.lig_0>
-47.9129

>  <SCORE.INTRA.VDW>
-3.43698

>  <SCORE.INTRA.VDW.0>
2.00851

>  <SCORE.INTRA.norm>
-0.321942

>  <SCORE.RESTR>
0.213906

>  <SCORE.RESTR.CAVITY>
0.213906

>  <SCORE.RESTR.norm>
0.00792246

>  <SCORE.SYSTEM>
0

>  <SCORE.SYSTEM.CONST>
0

>  <SCORE.SYSTEM.DIHEDRAL>
0

>  <SCORE.SYSTEM.SOLV>
0

>  <SCORE.SYSTEM.norm>
0

>  <SCORE.heavy>
27

>  <SCORE.norm>
-0.821881

>  <RMSD>
12.410

$$$$
ligand
 OpenBabel11021811483D
libRbt.so/2013.1/901 2013/11/27
 27 29  0  0  0  0  0  0  0  0999 V2000
   -6.8459   -4.8902   15.8982 N   0  0  0  0  0  0  0  0  0  0  0  0
   -8.1061   -5.5073   15.4932 C   0  0  2  0  0  0  0  0  0  0  0  0
   -9.0023   -4.5289   14.7385 C   0  0  0  0  0  0  0  0  0  0  0  0
  -10.0925   -4.8838   14.2849 O   0  0  0  0  0  0  0  0  0  0  0  0
   -8.8285   -6.1094   16.6946 C   0  0  0  0  0  0  0  0  0  0  0  0
   -8.0749   -7.2657   17.3333 C   0  0  0  0  0  0  0  0  0  0  0  0
   -8.9452   -8.0260   18.7264 S   0  0  2  0  0  0  0  0  0  0  0  0
   -7.8468   -9.4213   19.0775 C   0  0  0  0  0  0  0  0  0  0  0  0
  -10.3103   -8.8562   17.8685 C   0  0  0  0  0  0  0  0  0  0  0  0
  -11.6197   -8.5345   18.5744 C   0  0  1  0  0  0  0  0  0  0  0  0
  -11.5717   -9.0852   19.8690 O   0  0  0  0  0  0  0  0  0  0  0  0
  -11.9023   -7.0607   18.7976 C   0  0  1  0  0  0  0  0  0  0  0  0
  -12.7306   -6.5464   17.7787 O   0  0  0  0  0  0  0  0  0  0  0  0
  -12.6393   -7.0505   20.1215 C   0  0  1  0  0  0  0  0  0  0  0  0
  -14.0024   -6.8125   19.8700 O   0  0  0  0  0  0  0  0  0  0  0  0
  -12.4696   -8.4352   20.7317 C   0  0  2  0  0  0  0  0  0  0  0  0
   -8.6487   -3.3627   14.5636 O   0  0  0  0  0  0  0  0  0  0  0  0
  -13.0027   -6.7956   25.7119 N   0  0  0  0  0  0  0  0  0  0  0  0
  -13.9286   -6.7294   24.6895 C   0  0  0  0  0  0  0  0  0  0  0  0
  -13.6211   -7.2084   23.4300 N   0  0  0  0  0  0  0  0  0  0  0  0
  -12.4030   -7.7455   23.1817 C   0  0  0  0  0  0  0  0  0  0  0  0
  -11.4617   -7.8283   24.2003 C   0  0  0  0  0  0  0  0  0  0  0  0
  -11.7633   -7.3463   25.4682 C   0  0  0  0  0  0  0  0  0  0  0  0
  -10.8581   -7.4170   26.4412 N   0  0  0  0  0  0  0  0  0  0  0  0
  -10.3512   -8.4049   23.6923 N   0  0  0  0  0  0  0  0  0  0  0  0
  -10.5742   -8.7018   22.3904 C   0  0  0  0  0  0  0  0  0  0  0  0
  -11.8408   -8.3008   22.0565 N   0  0  0  0  0  0  0  0  0  0  0  0
  2  1  1  1  0  0  0
  2  3  1  0  0  0  0
  2  5  1  0  0  0  0
  3  4  1  0  0  0  0
  3 17  1  0  0  0  0
  5  6  1  0  0  0  0
  7  6  1  6  0  0  0
  7  8  1  0  0  0  0
  7  9  1  0  0  0  0
 10  9  1  1  0  0  0
 10 11  1  0  0  0  0
 10 12  1  0  0  0  0
 11 16  1  0  0  0  0
 12 13  1  6  0  0  0
 12 14  1  0  0  0  0
 14 15  1  6  0  0  0
 14 16  1  0  0  0  0
 16 27  1  1  0  0  0
 18 19  2  0  0  0  0
 18 23  1  0  0  0  0
 19 20  1  0  0  0  0
 20 21  2  0  0  0  0
 21 22  1  0  0  0  0
 21 27  1  0  0  0  0
 22 23  2  0  0  0  0
 22 25  1  0  0  0  0
 23 24  1  0  0  0  0
 25 26  2  0  0  0  0
 26 27  1  0  0  0  0
M  END
>  <CHROM.1>
177.92261382,-64.87692625,-178.08594954,174.24126982,-131.92391570,-64.47461133
-178.59365925,-10.75871893,-7.16167112,19.86996946,-1.17467425,-0.31028183
1.93215133

>  <Name>
ligand

>  <RI>
0

>  <Rbt.Current_Directory>
/home/itssahil/PROJECTS/Mol_Feturizer/New_Systems/rnas/3GX6

>  <Rbt.Executable>
rbdock ($Id: //depot/dev/client3/rdock/2013.1/src/exe/rbdock.cxx#4 $)

>  <Rbt.Library>
libRbt.so (2013.1, Build901 2013/11/27)

>  <Rbt.Parameter_File>
/export/apps/rDock/src/rDock_2013.1_src/data/scripts/dock_solv.prm

>  <Rbt.Receptor>
prm/blind_docking_40.prm

>  <SCORE>
-17.4952

>  <SCORE.INTER>
-8.70178

>  <SCORE.INTER.CONST>
1

>  <SCORE.INTER.POLAR>
0

>  <SCORE.INTER.ROT>
7

>  <SCORE.INTER.SOLV>
11.2177

>  <SCORE.INTER.VDW>
-17.8071

>  <SCORE.INTER.norm>
-0.322288

>  <SCORE.INTRA>
-8.79342

>  <SCORE.INTRA.DIHEDRAL>
-7.32534

>  <SCORE.INTRA.DIHEDRAL.0>
15.0182

>  <SCORE.INTRA.POLAR>
0

>  <SCORE.INTRA.POLAR.0>
0

>  <SCORE.INTRA.REPUL>
0

>  <SCORE.INTRA.REPUL.0>
0

>  <SCORE.INTRA.SOLV>
-0.871908

>  <SCORE.INTRA.SOLV.lig_0>
-47.9129

>  <SCORE.INTRA.VDW>
-4.69479

>  <SCORE.INTRA.VDW.0>
2.00851

>  <SCORE.INTRA.norm>
-0.325682

>  <SCORE.RESTR>
0

>  <SCORE.RESTR.CAVITY>
0

>  <SCORE.RESTR.norm>
0

>  <SCORE.SYSTEM>
0

>  <SCORE.SYSTEM.CONST>
0

>  <SCORE.SYSTEM.DIHEDRAL>
0

>  <SCORE.SYSTEM.SOLV>
0

>  <SCORE.SYSTEM.norm>
0

>  <SCORE.heavy>
27

>  <SCORE.norm>
-0.64797

>  <RMSD>
12.420

$$$$
ligand
 OpenBabel11021811483D
libRbt.so/2013.1/901 2013/11/27
 27 29  0  0  0  0  0  0  0  0999 V2000
   -6.4473  -16.5088   20.1931 N   0  0  0  0  0  0  0  0  0  0  0  0
   -7.7204  -15.8295   19.9682 C   0  0  2  0  0  0  0  0  0  0  0  0
   -8.1559  -15.9055   18.5072 C   0  0  0  0  0  0  0  0  0  0  0  0
   -9.3461  -16.0090   18.2020 O   0  0  0  0  0  0  0  0  0  0  0  0
   -7.6604  -14.3850   20.4558 C   0  0  0  0  0  0  0  0  0  0  0  0
   -7.5924  -14.2627   21.9702 C   0  0  0  0  0  0  0  0  0  0  0  0
   -7.4960  -12.5551   22.5630 S   0  0  2  0  0  0  0  0  0  0  0  0
   -7.8562  -12.7971   24.3203 C   0  0  0  0  0  0  0  0  0  0  0  0
   -9.0748  -11.8930   21.9650 C   0  0  0  0  0  0  0  0  0  0  0  0
   -9.0758  -10.3785   22.1149 C   0  0  1  0  0  0  0  0  0  0  0  0
   -9.9295   -9.8372   21.1352 O   0  0  0  0  0  0  0  0  0  0  0  0
   -9.6184   -9.8475   23.4285 C   0  0  1  0  0  0  0  0  0  0  0  0
   -8.5721   -9.5862   24.3371 O   0  0  0  0  0  0  0  0  0  0  0  0
  -10.2898   -8.5513   23.0221 C   0  0  1  0  0  0  0  0  0  0  0  0
   -9.4802   -7.4805   23.4411 O   0  0  0  0  0  0  0  0  0  0  0  0
  -10.3773   -8.5574   21.5019 C   0  0  2  0  0  0  0  0  0  0  0  0
   -7.3220  -15.8698   17.6023 O   0  0  0  0  0  0  0  0  0  0  0  0
  -15.4094   -9.5930   22.6767 N   0  0  0  0  0  0  0  0  0  0  0  0
  -14.2794   -9.9373   23.3919 C   0  0  0  0  0  0  0  0  0  0  0  0
  -13.0234   -9.5853   22.9348 N   0  0  0  0  0  0  0  0  0  0  0  0
  -12.8853   -8.9007   21.7746 C   0  0  0  0  0  0  0  0  0  0  0  0
  -14.0114   -8.5381   21.0460 C   0  0  0  0  0  0  0  0  0  0  0  0
  -15.2770   -8.8911   21.4983 C   0  0  0  0  0  0  0  0  0  0  0  0
  -16.3550   -8.5520   20.7953 N   0  0  0  0  0  0  0  0  0  0  0  0
  -13.5972   -7.8659   19.9504 N   0  0  0  0  0  0  0  0  0  0  0  0
  -12.2465   -7.7811   19.9792 C   0  0  0  0  0  0  0  0  0  0  0  0
  -11.7878   -8.4164   21.1029 N   0  0  0  0  0  0  0  0  0  0  0  0
  2  1  1  6  0  0  0
  2  3  1  0  0  0  0
  2  5  1  0  0  0  0
  3  4  1  0  0  0  0
  3 17  1  0  0  0  0
  5  6  1  0  0  0  0
  7  6  1  6  0  0  0
  7  8  1  0  0  0  0
  7  9  1  0  0  0  0
 10  9  1  1  0  0  0
 10 11  1  0  0  0  0
 10 12  1  0  0  0  0
 11 16  1  0  0  0  0
 12 13  1  1  0  0  0
 12 14  1  0  0  0  0
 14 15  1  6  0  0  0
 14 16  1  0  0  0  0
 16 27  1  1  0  0  0
 18 19  2  0  0  0  0
 18 23  1  0  0  0  0
 19 20  1  0  0  0  0
 20 21  2  0  0  0  0
 21 22  1  0  0  0  0
 21 27  1  0  0  0  0
 22 23  2  0  0  0  0
 22 25  1  0  0  0  0
 23 24  1  0  0  0  0
 25 26  2  0  0  0  0
 26 27  1  0  0  0  0
M  END
>  <CHROM.1>
144.62977174,-69.79236042,179.14369236,166.27943717,-168.59421538,152.38843290
80.01478067,-10.30631341,-11.17909415,21.52797548,0.74106901,0.46778007,-2.43296470

>  <Name>
ligand

>  <RI>
0

>  <Rbt.Current_Directory>
/home/itssahil/PROJECTS/Mol_Feturizer/New_Systems/rnas/3GX6

>  <Rbt.Executable>
rbdock ($Id: //depot/dev/client3/rdock/2013.1/src/exe/rbdock.cxx#4 $)

>  <Rbt.Library>
libRbt.so (2013.1, Build901 2013/11/27)

>  <Rbt.Parameter_File>
/export/apps/rDock/src/rDock_2013.1_src/data/scripts/dock_solv.prm

>  <Rbt.Receptor>
prm/blind_docking_80.prm

>  <SCORE>
-25.9012

>  <SCORE.INTER>
-16.871

>  <SCORE.INTER.CONST>
1

>  <SCORE.INTER.POLAR>
0

>  <SCORE.INTER.ROT>
7

>  <SCORE.INTER.SOLV>
14.9038

>  <SCORE.INTER.VDW>
-24.4819

>  <SCORE.INTER.norm>
-0.624852

>  <SCORE.INTRA>
-9.03018

>  <SCORE.INTRA.DIHEDRAL>
-8.00422

>  <SCORE.INTRA.DIHEDRAL.0>
15.0182

>  <SCORE.INTRA.POLAR>
0

>  <SCORE.INTRA.POLAR.0>
0

>  <SCORE.INTRA.REPUL>
0

>  <SCORE.INTRA.REPUL.0>
0

>  <SCORE.INTRA.SOLV>
-1.0012

>  <SCORE.INTRA.SOLV.lig_0>
-47.9129

>  <SCORE.INTRA.VDW>
-4.52746

>  <SCORE.INTRA.VDW.0>
2.00851

>  <SCORE.INTRA.norm>
-0.334451

>  <SCORE.RESTR>
0

>  <SCORE.RESTR.CAVITY>
0

>  <SCORE.RESTR.norm>
0

>  <SCORE.SYSTEM>
0

>  <SCORE.SYSTEM.CONST>
0

>  <SCORE.SYSTEM.DIHEDRAL>
0

>  <SCORE.SYSTEM.SOLV>
0

>  <SCORE.SYSTEM.norm>
0

>  <SCORE.heavy>
27

>  <SCORE.norm>
-0.959303

>  <RMSD>
12.483

$$$$
ligand
 OpenBabel11021811483D
libRbt.so/2013.1/901 2013/11/27
 27 29  0  0  0  0  0  0  0  0999 V2000
   -9.9863   -9.7601   26.5619 N   0  0  0  0  0  0  0  0  0  0  0  0
  -11.3719   -9.4080   26.8601 C   0  0  2  0  0  0  0  0  0  0  0  0
  -11.6692   -9.4831   28.3554 C   0  0  0  0  0  0  0  0  0  0  0  0
  -11.1642   -8.6830   29.1461 O   0  0  0  0  0  0  0  0  0  0  0  0
  -12.3385  -10.2734   26.0572 C   0  0  0  0  0  0  0  0  0  0  0  0
  -12.3929   -9.9064   24.5823 C   0  0  0  0  0  0  0  0  0  0  0  0
  -10.8158  -10.1126   23.7182 S   0  0  2  0  0  0  0  0  0  0  0  0
  -10.2016   -8.4101   23.7455 C   0  0  0  0  0  0  0  0  0  0  0  0
  -11.3801  -10.2588   22.0010 C   0  0  0  0  0  0  0  0  0  0  0  0
  -12.2803   -9.0788   21.6637 C   0  0  1  0  0  0  0  0  0  0  0  0
  -11.5330   -8.1524   20.9122 O   0  0  0  0  0  0  0  0  0  0  0  0
  -13.4815   -9.3954   20.7926 C   0  0  1  0  0  0  0  0  0  0  0  0
  -14.6342   -9.6002   21.5787 O   0  0  0  0  0  0  0  0  0  0  0  0
  -13.6381   -8.1409   19.9572 C   0  0  1  0  0  0  0  0  0  0  0  0
  -14.7446   -7.4199   20.4405 O   0  0  0  0  0  0  0  0  0  0  0  0
  -12.3713   -7.3191   20.1533 C   0  0  2  0  0  0  0  0  0  0  0  0
  -12.4185  -10.3518   28.8023 O   0  0  0  0  0  0  0  0  0  0  0  0
   -9.8934   -9.4434   16.0153 N   0  0  0  0  0  0  0  0  0  0  0  0
  -10.3607  -10.0808   17.1477 C   0  0  0  0  0  0  0  0  0  0  0  0
  -10.9916   -9.3653   18.1479 N   0  0  0  0  0  0  0  0  0  0  0  0
  -11.1554   -8.0261   18.0310 C   0  0  0  0  0  0  0  0  0  0  0  0
  -10.6994   -7.3689   16.8949 C   0  0  0  0  0  0  0  0  0  0  0  0
  -10.0618   -8.0817   15.8867 C   0  0  0  0  0  0  0  0  0  0  0  0
   -9.6166   -7.4507   14.8029 N   0  0  0  0  0  0  0  0  0  0  0  0
  -10.9929   -6.0577   17.0289 N   0  0  0  0  0  0  0  0  0  0  0  0
  -11.6347   -5.8756   18.2069 C   0  0  0  0  0  0  0  0  0  0  0  0
  -11.7448   -7.0847   18.8414 N   0  0  0  0  0  0  0  0  0  0  0  0
  2  1  1  1  0  0  0
  2  3  1  0  0  0  0
  2  5  1  0  0  0  0
  3  4  1  0  0  0  0
  3 17  1  0  0  0  0
  5  6  1  0  0  0  0
  7  6  1  1  0  0  0
  7  8  1  0  0  0  0
  7  9  1  0  0  0  0
 10  9  1  6  0  0  0
 10 11  1  0  0  0  0
 10 12  1  0  0  0  0
 11 16  1  0  0  0  0
 12 13  1  1  0  0  0
 12 14  1  0  0  0  0
 14 15  1  1  0  0  0
 14 16  1  0  0  0  0
 16 27  1  6  0  0  0
 18 19  2  0  0  0  0
 18 23  1  0  0  0  0
 19 20  1  0  0  0  0
 20 21  2  0  0  0  0
 21 22  1  0  0  0  0
 21 27  1  0  0  0  0
 22 23  2  0  0  0  0
 22 25  1  0  0  0  0
 23 24  1  0  0  0  0
 25 26  2  0  0  0  0
 26 27  1  0  0  0  0
M  END
>  <CHROM.1>
68.29576780,-73.24113602,61.84398061,-98.11129771,52.73116287,101.79171921
45.01731501,-11.61420355,-8.77442247,21.59681357,-1.63557676,0.24483970,-1.37400056

>  <Name>
ligand

>  <RI>
0

>  <Rbt.Current_Directory>
/home/itssahil/PROJECTS/Mol_Feturizer/New_Systems/rnas/3GX6

>  <Rbt.Executable>
rbdock ($Id: //depot/dev/client3/rdock/2013.1/src/exe/rbdock.cxx#4 $)

>  <Rbt.Library>
libRbt.so (2013.1, Build901 2013/11/27)

>  <Rbt.Parameter_File>
/export/apps/rDock/src/rDock_2013.1_src/data/scripts/dock_solv.prm

>  <Rbt.Receptor>
prm/blind_docking_60.prm

>  <SCORE>
-16.1252

>  <SCORE.INTER>
-11.072

>  <SCORE.INTER.CONST>
1

>  <SCORE.INTER.POLAR>
0

>  <SCORE.INTER.ROT>
7

>  <SCORE.INTER.SOLV>
15.1181

>  <SCORE.INTER.VDW>
-20.6873

>  <SCORE.INTER.norm>
-0.410073

>  <SCORE.INTRA>
-5.05327

>  <SCORE.INTRA.DIHEDRAL>
-4.77993

>  <SCORE.INTRA.DIHEDRAL.0>
15.0182

>  <SCORE.INTRA.POLAR>
0

>  <SCORE.INTRA.POLAR.0>
0

>  <SCORE.INTRA.REPUL>
0

>  <SCORE.INTRA.REPUL.0>
0

>  <SCORE.INTRA.SOLV>
1.38863

>  <SCORE.INTRA.SOLV.lig_0>
-47.9129

>  <SCORE.INTRA.VDW>
-3.35762

>  <SCORE.INTRA.VDW.0>
2.00851

>  <SCORE.INTRA.norm>
-0.187158

>  <SCORE.RESTR>
0

>  <SCORE.RESTR.CAVITY>
0

>  <SCORE.RESTR.norm>
0

>  <SCORE.SYSTEM>
0

>  <SCORE.SYSTEM.CONST>
0

>  <SCORE.SYSTEM.DIHEDRAL>
0

>  <SCORE.SYSTEM.SOLV>
0

>  <SCORE.SYSTEM.norm>
0

>  <SCORE.heavy>
27

>  <SCORE.norm>
-0.597231

>  <RMSD>
12.536

$$$$
ligand
 OpenBabel11021811483D
libRbt.so/2013.1/901 2013/11/27
 27 29  0  0  0  0  0  0  0  0999 V2000
   -8.1515   -3.9047   15.3332 N   0  0  0  0  0  0  0  0  0  0  0  0
   -8.8485   -4.9487   14.5868 C   0  0  2  0  0  0  0  0  0  0  0  0
   -9.5774   -4.3876   13.3687 C   0  0  0  0  0  0  0  0  0  0  0  0
  -10.5177   -3.6003   13.4960 O   0  0  0  0  0  0  0  0  0  0  0  0
   -9.7984   -5.7250   15.4940 C   0  0  0  0  0  0  0  0  0  0  0  0
   -9.0857   -6.4916   16.5974 C   0  0  0  0  0  0  0  0  0  0  0  0
  -10.1621   -7.6183   17.5185 S   0  0  2  0  0  0  0  0  0  0  0  0
  -10.9923   -8.4686   16.1531 C   0  0  0  0  0  0  0  0  0  0  0  0
  -11.4614   -6.4799   18.0701 C   0  0  0  0  0  0  0  0  0  0  0  0
  -12.6031   -7.2771   18.6844 C   0  0  1  0  0  0  0  0  0  0  0  0
  -12.0975   -8.0023   19.7799 O   0  0  0  0  0  0  0  0  0  0  0  0
  -13.7414   -6.4576   19.2628 C   0  0  1  0  0  0  0  0  0  0  0  0
  -14.7945   -6.3315   18.3334 O   0  0  0  0  0  0  0  0  0  0  0  0
  -14.1912   -7.2864   20.4488 C   0  0  1  0  0  0  0  0  0  0  0  0
  -15.4066   -7.9123   20.1189 O   0  0  0  0  0  0  0  0  0  0  0  0
  -13.1209   -8.3448   20.6789 C   0  0  2  0  0  0  0  0  0  0  0  0
   -9.2412   -4.7167   12.2310 O   0  0  0  0  0  0  0  0  0  0  0  0
  -12.6917  -10.5550   25.4440 N   0  0  0  0  0  0  0  0  0  0  0  0
  -13.3138  -11.0646   24.3214 C   0  0  0  0  0  0  0  0  0  0  0  0
  -13.3359  -10.3449   23.1417 N   0  0  0  0  0  0  0  0  0  0  0  0
  -12.7501   -9.1259   23.0737 C   0  0  0  0  0  0  0  0  0  0  0  0
  -12.1119   -8.6007   24.1905 C   0  0  0  0  0  0  0  0  0  0  0  0
  -12.0883   -9.3177   25.3806 C   0  0  0  0  0  0  0  0  0  0  0  0
  -11.4852   -8.8103   26.4530 N   0  0  0  0  0  0  0  0  0  0  0  0
  -11.6124   -7.3925   23.8523 N   0  0  0  0  0  0  0  0  0  0  0  0
  -11.9031   -7.1521   22.5522 C   0  0  0  0  0  0  0  0  0  0  0  0
  -12.6075   -8.2157   22.0530 N   0  0  0  0  0  0  0  0  0  0  0  0
  2  1  1  1  0  0  0
  2  3  1  0  0  0  0
  2  5  1  0  0  0  0
  3  4  1  0  0  0  0
  3 17  1  0  0  0  0
  5  6  1  0  0  0  0
  7  6  1  6  0  0  0
  7  8  1  0  0  0  0
  7  9  1  0  0  0  0
 10  9  1  1  0  0  0
 10 11  1  0  0  0  0
 10 12  1  0  0  0  0
 11 16  1  0  0  0  0
 12 13  1  6  0  0  0
 12 14  1  0  0  0  0
 14 15  1  6  0  0  0
 14 16  1  0  0  0  0
 16 27  1  1  0  0  0
 18 19  2  0  0  0  0
 18 23  1  0  0  0  0
 19 20  1  0  0  0  0
 20 21  2  0  0  0  0
 21 22  1  0  0  0  0
 21 27  1  0  0  0  0
 22 23  2  0  0  0  0
 22 25  1  0  0  0  0
 23 24  1  0  0  0  0
 25 26  2  0  0  0  0
 26 27  1  0  0  0  0
M  END
>  <CHROM.1>
-64.82768479,-64.04466579,-170.93565125,48.27545267,170.85481190,59.96044881
-133.22316729,-11.69118186,-7.31435782,19.40624976,-1.28502527,0.10312802
1.94452448

>  <Name>
ligand

>  <RI>
0

>  <Rbt.Current_Directory>
/home/itssahil/PROJECTS/Mol_Feturizer/New_Systems/rnas/3GX6

>  <Rbt.Executable>
rbdock ($Id: //depot/dev/client3/rdock/2013.1/src/exe/rbdock.cxx#4 $)

>  <Rbt.Library>
libRbt.so (2013.1, Build901 2013/11/27)

>  <Rbt.Parameter_File>
/export/apps/rDock/src/rDock_2013.1_src/data/scripts/dock_solv.prm

>  <Rbt.Receptor>
prm/blind_docking_60.prm

>  <SCORE>
-20.9149

>  <SCORE.INTER>
-11.8123

>  <SCORE.INTER.CONST>
1

>  <SCORE.INTER.POLAR>
0

>  <SCORE.INTER.ROT>
7

>  <SCORE.INTER.SOLV>
10.7621

>  <SCORE.INTER.VDW>
-19.7289

>  <SCORE.INTER.norm>
-0.437492

>  <SCORE.INTRA>
-9.10261

>  <SCORE.INTRA.DIHEDRAL>
-11.4175

>  <SCORE.INTRA.DIHEDRAL.0>
15.0182

>  <SCORE.INTRA.POLAR>
0

>  <SCORE.INTRA.POLAR.0>
0

>  <SCORE.INTRA.REPUL>
0

>  <SCORE.INTRA.REPUL.0>
0

>  <SCORE.INTRA.SOLV>
-1.21489

>  <SCORE.INTRA.SOLV.lig_0>
-47.9129

>  <SCORE.INTRA.VDW>
-2.78641

>  <SCORE.INTRA.VDW.0>
2.00851

>  <SCORE.INTRA.norm>
-0.337134

>  <SCORE.RESTR>
0

>  <SCORE.RESTR.CAVITY>
0

>  <SCORE.RESTR.norm>
0

>  <SCORE.SYSTEM>
0

>  <SCORE.SYSTEM.CONST>
0

>  <SCORE.SYSTEM.DIHEDRAL>
0

>  <SCORE.SYSTEM.SOLV>
0

>  <SCORE.SYSTEM.norm>
0

>  <SCORE.heavy>
27

>  <SCORE.norm>
-0.774626

>  <RMSD>
12.819

$$$$
ligand
 OpenBabel11021811483D
libRbt.so/2013.1/901 2013/11/27
 27 29  0  0  0  0  0  0  0  0999 V2000
   -7.1156   -4.5329   15.4829 N   0  0  0  0  0  0  0  0  0  0  0  0
   -7.8080   -5.4513   14.5828 C   0  0  2  0  0  0  0  0  0  0  0  0
   -8.7466   -4.7153   13.6303 C   0  0  0  0  0  0  0  0  0  0  0  0
   -8.8999   -5.0951   12.4673 O   0  0  0  0  0  0  0  0  0  0  0  0
   -8.5474   -6.5300   15.3686 C   0  0  0  0  0  0  0  0  0  0  0  0
   -9.6016   -5.9721   16.3122 C   0  0  0  0  0  0  0  0  0  0  0  0
  -10.4910   -7.2406   17.2482 S   0  0  2  0  0  0  0  0  0  0  0  0
  -11.4503   -8.0143   15.9225 C   0  0  0  0  0  0  0  0  0  0  0  0
  -11.7612   -6.2380   18.0668 C   0  0  0  0  0  0  0  0  0  0  0  0
  -12.8103   -7.1548   18.6792 C   0  0  1  0  0  0  0  0  0  0  0  0
  -12.2147   -7.8626   19.7404 O   0  0  0  0  0  0  0  0  0  0  0  0
  -14.0048   -6.4612   19.3069 C   0  0  1  0  0  0  0  0  0  0  0  0
  -15.0867   -6.4051   18.4041 O   0  0  0  0  0  0  0  0  0  0  0  0
  -14.3487   -7.3627   20.4752 C   0  0  1  0  0  0  0  0  0  0  0  0
  -15.5092   -8.0878   20.1510 O   0  0  0  0  0  0  0  0  0  0  0  0
  -13.1809   -8.3243   20.6493 C   0  0  2  0  0  0  0  0  0  0  0  0
   -9.3671   -3.7207   14.0063 O   0  0  0  0  0  0  0  0  0  0  0  0
  -12.2482  -10.6920   25.2644 N   0  0  0  0  0  0  0  0  0  0  0  0
  -12.8186  -11.2332   24.1292 C   0  0  0  0  0  0  0  0  0  0  0  0
  -12.9938  -10.4635   22.9947 N   0  0  0  0  0  0  0  0  0  0  0  0
  -12.6114   -9.1645   22.9843 C   0  0  0  0  0  0  0  0  0  0  0  0
  -12.0278   -8.6051   24.1143 C   0  0  0  0  0  0  0  0  0  0  0  0
  -11.8511   -9.3724   25.2592 C   0  0  0  0  0  0  0  0  0  0  0  0
  -11.3009   -8.8338   26.3447 N   0  0  0  0  0  0  0  0  0  0  0  0
  -11.7379   -7.3159   23.8358 N   0  0  0  0  0  0  0  0  0  0  0  0
  -12.1062   -7.0551   22.5594 C   0  0  0  0  0  0  0  0  0  0  0  0
  -12.6491   -8.1893   22.0158 N   0  0  0  0  0  0  0  0  0  0  0  0
  2  1  1  1  0  0  0
  2  3  1  0  0  0  0
  2  5  1  0  0  0  0
  3  4  1  0  0  0  0
  3 17  1  0  0  0  0
  5  6  1  0  0  0  0
  7  6  1  6  0  0  0
  7  8  1  0  0  0  0
  7  9  1  0  0  0  0
 10  9  1  1  0  0  0
 10 11  1  0  0  0  0
 10 12  1  0  0  0  0
 11 16  1  0  0  0  0
 12 13  1  6  0  0  0
 12 14  1  0  0  0  0
 14 15  1  6  0  0  0
 14 16  1  0  0  0  0
 16 27  1  1  0  0  0
 18 19  2  0  0  0  0
 18 23  1  0  0  0  0
 19 20  1  0  0  0  0
 20 21  2  0  0  0  0
 21 22  1  0  0  0  0
 21 27  1  0  0  0  0
 22 23  2  0  0  0  0
 22 25  1  0  0  0  0
 23 24  1  0  0  0  0
 25 26  2  0  0  0  0
 26 27  1  0  0  0  0
M  END
>  <CHROM.1>
143.82441048,60.22983723,179.83090884,-69.35223193,167.98281441,67.80674276
-129.01468036,-11.55359053,-7.35115604,19.37590696,-1.22869948,0.08189374
1.93409434

>  <Name>
ligand

>  <RI>
0

>  <Rbt.Current_Directory>
/home/itssahil/PROJECTS/Mol_Feturizer/New_Systems/rnas/3GX6

>  <Rbt.Executable>
rbdock ($Id: //depot/dev/client3/rdock/2013.1/src/exe/rbdock.cxx#4 $)

>  <Rbt.Library>
libRbt.so (2013.1, Build901 2013/11/27)

>  <Rbt.Parameter_File>
/export/apps/rDock/src/rDock_2013.1_src/data/scripts/dock_solv.prm

>  <Rbt.Receptor>
prm/blind_docking_40.prm

>  <SCORE>
-22.2763

>  <SCORE.INTER>
-11.9748

>  <SCORE.INTER.CONST>
1

>  <SCORE.INTER.POLAR>
0

>  <SCORE.INTER.ROT>
7

>  <SCORE.INTER.SOLV>
9.78612

>  <SCORE.INTER.VDW>
-19.5119

>  <SCORE.INTER.norm>
-0.443511

>  <SCORE.INTRA>
-10.3016

>  <SCORE.INTRA.DIHEDRAL>
-11.5623

>  <SCORE.INTRA.DIHEDRAL.0>
15.0182

>  <SCORE.INTRA.POLAR>
0

>  <SCORE.INTRA.POLAR.0>
0

>  <SCORE.INTRA.REPUL>
0

>  <SCORE.INTRA.REPUL.0>
0

>  <SCORE.INTRA.SOLV>
-1.19385

>  <SCORE.INTRA.SOLV.lig_0>
-47.9129

>  <SCORE.INTRA.VDW>
-3.9235

>  <SCORE.INTRA.VDW.0>
2.00851

>  <SCORE.INTRA.norm>
-0.381539

>  <SCORE.RESTR>
0

>  <SCORE.RESTR.CAVITY>
0

>  <SCORE.RESTR.norm>
0

>  <SCORE.SYSTEM>
0

>  <SCORE.SYSTEM.CONST>
0

>  <SCORE.SYSTEM.DIHEDRAL>
0

>  <SCORE.SYSTEM.SOLV>
0

>  <SCORE.SYSTEM.norm>
0

>  <SCORE.heavy>
27

>  <SCORE.norm>
-0.82505

>  <RMSD>
12.916

$$$$
ligand
 OpenBabel11021811483D
libRbt.so/2013.1/901 2013/11/27
 27 29  0  0  0  0  0  0  0  0999 V2000
   -5.6955  -16.6018   18.4282 N   0  0  0  0  0  0  0  0  0  0  0  0
   -6.6023  -16.4225   19.5589 C   0  0  2  0  0  0  0  0  0  0  0  0
   -8.0652  -16.5408   19.1397 C   0  0  0  0  0  0  0  0  0  0  0  0
   -8.7196  -17.5554   19.3905 O   0  0  0  0  0  0  0  0  0  0  0  0
   -6.3329  -15.0990   20.2685 C   0  0  0  0  0  0  0  0  0  0  0  0
   -7.0115  -14.9939   21.6255 C   0  0  0  0  0  0  0  0  0  0  0  0
   -6.9164  -13.3448   22.3657 S   0  0  2  0  0  0  0  0  0  0  0  0
   -7.6281  -13.6757   23.9968 C   0  0  0  0  0  0  0  0  0  0  0  0
   -8.2992  -12.5146   21.5369 C   0  0  0  0  0  0  0  0  0  0  0  0
   -8.3235  -11.0480   21.9427 C   0  0  1  0  0  0  0  0  0  0  0  0
   -9.1188  -10.3457   21.0175 O   0  0  0  0  0  0  0  0  0  0  0  0
   -8.9524  -10.7484   23.2905 C   0  0  1  0  0  0  0  0  0  0  0  0
   -7.9677  -10.6481   24.2950 O   0  0  0  0  0  0  0  0  0  0  0  0
   -9.6087   -9.4007   23.0695 C   0  0  1  0  0  0  0  0  0  0  0  0
   -8.8368   -8.4186   23.7158 O   0  0  0  0  0  0  0  0  0  0  0  0
   -9.6004   -9.1466   21.5682 C   0  0  2  0  0  0  0  0  0  0  0  0
   -8.6200  -15.6226   18.5356 O   0  0  0  0  0  0  0  0  0  0  0  0
  -14.7241   -9.8869   22.5558 N   0  0  0  0  0  0  0  0  0  0  0  0
  -13.6436  -10.2785   23.3215 C   0  0  0  0  0  0  0  0  0  0  0  0
  -12.3532  -10.0034   22.9098 N   0  0  0  0  0  0  0  0  0  0  0  0
  -12.1323   -9.3488   21.7451 C   0  0  0  0  0  0  0  0  0  0  0  0
  -13.2073   -8.9395   20.9658 C   0  0  0  0  0  0  0  0  0  0  0  0
  -14.5071   -9.2151   21.3723 C   0  0  0  0  0  0  0  0  0  0  0  0
  -15.5364   -8.8314   20.6210 N   0  0  0  0  0  0  0  0  0  0  0  0
  -12.7141   -8.3110   19.8770 N   0  0  0  0  0  0  0  0  0  0  0  0
  -11.3628   -8.2987   19.9589 C   0  0  0  0  0  0  0  0  0  0  0  0
  -10.9842   -8.9370   21.1103 N   0  0  0  0  0  0  0  0  0  0  0  0
  2  1  1  6  0  0  0
  2  3  1  0  0  0  0
  2  5  1  0  0  0  0
  3  4  1  0  0  0  0
  3 17  1  0  0  0  0
  5  6  1  0  0  0  0
  7  6  1  6  0  0  0
  7  8  1  0  0  0  0
  7  9  1  0  0  0  0
 10  9  1  6  0  0  0
 10 11  1  0  0  0  0
 10 12  1  0  0  0  0
 11 16  1  0  0  0  0
 12 13  1  1  0  0  0
 12 14  1  0  0  0  0
 14 15  1  1  0  0  0
 14 16  1  0  0  0  0
 16 27  1  6  0  0  0
 18 19  2  0  0  0  0
 18 23  1  0  0  0  0
 19 20  1  0  0  0  0
 20 21  2  0  0  0  0
 21 22  1  0  0  0  0
 21 27  1  0  0  0  0
 22 23  2  0  0  0  0
 22 25  1  0  0  0  0
 23 24  1  0  0  0  0
 25 26  2  0  0  0  0
 26 27  1  0  0  0  0
M  END
>  <CHROM.1>
104.08761013,-166.76729500,-171.06979599,-173.42316230,-175.28987627,162.75761733
91.43363406,-9.67677912,-11.78387248,21.46851573,0.77500795,0.45731792,-2.49048762

>  <Name>
ligand

>  <RI>
0

>  <Rbt.Current_Directory>
/home/itssahil/PROJECTS/Mol_Feturizer/New_Systems/rnas/3GX6

>  <Rbt.Executable>
rbdock ($Id: //depot/dev/client3/rdock/2013.1/src/exe/rbdock.cxx#4 $)

>  <Rbt.Library>
libRbt.so (2013.1, Build901 2013/11/27)

>  <Rbt.Parameter_File>
/export/apps/rDock/src/rDock_2013.1_src/data/scripts/dock_solv.prm

>  <Rbt.Receptor>
prm/blind_docking_60.prm

>  <SCORE>
-24.0967

>  <SCORE.INTER>
-14.9842

>  <SCORE.INTER.CONST>
1

>  <SCORE.INTER.POLAR>
0

>  <SCORE.INTER.ROT>
7

>  <SCORE.INTER.SOLV>
16.0509

>  <SCORE.INTER.VDW>
-23.6064

>  <SCORE.INTER.norm>
-0.55497

>  <SCORE.INTRA>
-9.11256

>  <SCORE.INTRA.DIHEDRAL>
-8.8397

>  <SCORE.INTRA.DIHEDRAL.0>
15.0182

>  <SCORE.INTRA.POLAR>
0

>  <SCORE.INTRA.POLAR.0>
0

>  <SCORE.INTRA.REPUL>
0

>  <SCORE.INTRA.REPUL.0>
0

>  <SCORE.INTRA.SOLV>
-1.56124

>  <SCORE.INTRA.SOLV.lig_0>
-47.9129

>  <SCORE.INTRA.VDW>
-3.91209

>  <SCORE.INTRA.VDW.0>
2.00851

>  <SCORE.INTRA.norm>
-0.337502

>  <SCORE.RESTR>
0

>  <SCORE.RESTR.CAVITY>
0

>  <SCORE.RESTR.norm>
0

>  <SCORE.SYSTEM>
0

>  <SCORE.SYSTEM.CONST>
0

>  <SCORE.SYSTEM.DIHEDRAL>
0

>  <SCORE.SYSTEM.SOLV>
0

>  <SCORE.SYSTEM.norm>
0

>  <SCORE.heavy>
27

>  <SCORE.norm>
-0.892472

>  <RMSD>
12.929

$$$$
ligand
 OpenBabel11021811483D
libRbt.so/2013.1/901 2013/11/27
 27 29  0  0  0  0  0  0  0  0999 V2000
   -5.9608   -5.4467   18.0598 N   0  0  0  0  0  0  0  0  0  0  0  0
   -7.0379   -5.6549   17.0957 C   0  0  2  0  0  0  0  0  0  0  0  0
   -7.8373   -4.3778   16.8509 C   0  0  0  0  0  0  0  0  0  0  0  0
   -8.5094   -3.8651   17.7486 O   0  0  0  0  0  0  0  0  0  0  0  0
   -7.9438   -6.8028   17.5308 C   0  0  0  0  0  0  0  0  0  0  0  0
   -9.0021   -7.1596   16.4984 C   0  0  0  0  0  0  0  0  0  0  0  0
  -10.2983   -8.2552   17.1276 S   0  0  2  0  0  0  0  0  0  0  0  0
  -11.4919   -8.1647   15.7698 C   0  0  0  0  0  0  0  0  0  0  0  0
  -11.0843   -7.1854   18.3629 C   0  0  0  0  0  0  0  0  0  0  0  0
  -12.4333   -7.7721   18.7532 C   0  0  1  0  0  0  0  0  0  0  0  0
  -12.2080   -8.9688   19.4593 O   0  0  0  0  0  0  0  0  0  0  0  0
  -13.2713   -6.9267   19.6939 C   0  0  1  0  0  0  0  0  0  0  0  0
  -14.2083   -6.1538   18.9773 O   0  0  0  0  0  0  0  0  0  0  0  0
  -13.9877   -7.9617   20.5373 C   0  0  1  0  0  0  0  0  0  0  0  0
  -15.3295   -8.0240   20.1206 O   0  0  0  0  0  0  0  0  0  0  0  0
  -13.3093   -9.2978   20.2668 C   0  0  2  0  0  0  0  0  0  0  0  0
   -7.8298   -3.8364   15.7452 O   0  0  0  0  0  0  0  0  0  0  0  0
   -9.1503  -11.0570   22.9840 N   0  0  0  0  0  0  0  0  0  0  0  0
   -9.1816  -10.5796   21.6886 C   0  0  0  0  0  0  0  0  0  0  0  0
  -10.3698  -10.1566   21.1233 N   0  0  0  0  0  0  0  0  0  0  0  0
  -11.5216  -10.2099   21.8335 C   0  0  0  0  0  0  0  0  0  0  0  0
  -11.5081  -10.6792   23.1412 C   0  0  0  0  0  0  0  0  0  0  0  0
  -10.3174  -11.1085   23.7148 C   0  0  0  0  0  0  0  0  0  0  0  0
  -10.3063  -11.5669   24.9641 N   0  0  0  0  0  0  0  0  0  0  0  0
  -12.7709  -10.6197   23.6157 N   0  0  0  0  0  0  0  0  0  0  0  0
  -13.5728  -10.1110   22.6509 C   0  0  0  0  0  0  0  0  0  0  0  0
  -12.8157   -9.8506   21.5393 N   0  0  0  0  0  0  0  0  0  0  0  0
  2  1  1  1  0  0  0
  2  3  1  0  0  0  0
  2  5  1  0  0  0  0
  3  4  1  0  0  0  0
  3 17  1  0  0  0  0
  5  6  1  0  0  0  0
  7  6  1  6  0  0  0
  7  8  1  0  0  0  0
  7  9  1  0  0  0  0
 10  9  1  1  0  0  0
 10 11  1  0  0  0  0
 10 12  1  0  0  0  0
 11 16  1  0  0  0  0
 12 13  1  6  0  0  0
 12 14  1  0  0  0  0
 14 15  1  6  0  0  0
 14 16  1  0  0  0  0
 16 27  1  1  0  0  0
 18 19  2  0  0  0  0
 18 23  1  0  0  0  0
 19 20  1  0  0  0  0
 20 21  2  0  0  0  0
 21 22  1  0  0  0  0
 21 27  1  0  0  0  0
 22 23  2  0  0  0  0
 22 25  1  0  0  0  0
 23 24  1  0  0  0  0
 25 26  2  0  0  0  0
 26 27  1  0  0  0  0
M  END
>  <CHROM.1>
-65.41633239,-174.20083409,-167.40140993,169.02693840,164.87966686,68.13984258
-10.25515409,-10.84784040,-8.13289154,19.62500107,-1.12413357,0.03395471
2.25179432

>  <Name>
ligand

>  <RI>
0

>  <Rbt.Current_Directory>
/home/itssahil/PROJECTS/Mol_Feturizer/New_Systems/rnas/3GX6

>  <Rbt.Executable>
rbdock ($Id: //depot/dev/client3/rdock/2013.1/src/exe/rbdock.cxx#4 $)

>  <Rbt.Library>
libRbt.so (2013.1, Build901 2013/11/27)

>  <Rbt.Parameter_File>
/export/apps/rDock/src/rDock_2013.1_src/data/scripts/dock_solv.prm

>  <Rbt.Receptor>
prm/blind_docking_80.prm

>  <SCORE>
-22.076

>  <SCORE.INTER>
-11.6916

>  <SCORE.INTER.CONST>
1

>  <SCORE.INTER.POLAR>
0

>  <SCORE.INTER.ROT>
7

>  <SCORE.INTER.SOLV>
12.2146

>  <SCORE.INTER.VDW>
-20.1326

>  <SCORE.INTER.norm>
-0.433021

>  <SCORE.INTRA>
-10.3844

>  <SCORE.INTRA.DIHEDRAL>
-10.7422

>  <SCORE.INTRA.DIHEDRAL.0>
15.0182

>  <SCORE.INTRA.POLAR>
0

>  <SCORE.INTRA.POLAR.0>
0

>  <SCORE.INTRA.REPUL>
0

>  <SCORE.INTRA.REPUL.0>
0

>  <SCORE.INTRA.SOLV>
-1.79228

>  <SCORE.INTRA.SOLV.lig_0>
-47.9129

>  <SCORE.INTRA.VDW>
-4.11719

>  <SCORE.INTRA.VDW.0>
2.00851

>  <SCORE.INTRA.norm>
-0.384609

>  <SCORE.RESTR>
0

>  <SCORE.RESTR.CAVITY>
0

>  <SCORE.RESTR.norm>
0

>  <SCORE.SYSTEM>
0

>  <SCORE.SYSTEM.CONST>
0

>  <SCORE.SYSTEM.DIHEDRAL>
0

>  <SCORE.SYSTEM.SOLV>
0

>  <SCORE.SYSTEM.norm>
0

>  <SCORE.heavy>
27

>  <SCORE.norm>
-0.81763

>  <RMSD>
13.147

$$$$
ligand
 OpenBabel11021811483D
libRbt.so/2013.1/901 2013/11/27
 27 29  0  0  0  0  0  0  0  0999 V2000
   -8.5159  -12.5951   22.7207 N   0  0  0  0  0  0  0  0  0  0  0  0
   -8.2750  -11.4110   23.5409 C   0  0  2  0  0  0  0  0  0  0  0  0
   -6.7897  -11.0689   23.6244 C   0  0  0  0  0  0  0  0  0  0  0  0
   -5.9270  -11.9390   23.4862 O   0  0  0  0  0  0  0  0  0  0  0  0
   -8.8860  -11.5767   24.9291 C   0  0  0  0  0  0  0  0  0  0  0  0
  -10.3803  -11.8581   24.9000 C   0  0  0  0  0  0  0  0  0  0  0  0
  -11.3817  -10.4423   24.3812 S   0  0  2  0  0  0  0  0  0  0  0  0
  -13.0458  -11.1233   24.5901 C   0  0  0  0  0  0  0  0  0  0  0  0
  -11.1882  -10.5247   22.5800 C   0  0  0  0  0  0  0  0  0  0  0  0
  -12.0450   -9.4473   21.9308 C   0  0  1  0  0  0  0  0  0  0  0  0
  -11.2839   -8.8230   20.9245 O   0  0  0  0  0  0  0  0  0  0  0  0
  -13.2906   -9.9383   21.2172 C   0  0  1  0  0  0  0  0  0  0  0  0
  -14.4218   -9.8412   22.0536 O   0  0  0  0  0  0  0  0  0  0  0  0
  -13.4199   -8.9758   20.0540 C   0  0  1  0  0  0  0  0  0  0  0  0
  -14.4736   -8.0857   20.3282 O   0  0  0  0  0  0  0  0  0  0  0  0
  -12.1104   -8.2032   19.9728 C   0  0  2  0  0  0  0  0  0  0  0  0
   -6.4242   -9.9128   23.8374 O   0  0  0  0  0  0  0  0  0  0  0  0
   -9.3188   -6.0759   16.0412 N   0  0  0  0  0  0  0  0  0  0  0  0
   -9.6827   -5.4941   17.2396 C   0  0  0  0  0  0  0  0  0  0  0  0
  -10.4252   -6.2000   18.1673 N   0  0  0  0  0  0  0  0  0  0  0  0
  -10.8098   -7.4726   17.9094 C   0  0  0  0  0  0  0  0  0  0  0  0
  -10.4456   -8.0774   16.7127 C   0  0  0  0  0  0  0  0  0  0  0  0
   -9.7015   -7.3726   15.7744 C   0  0  0  0  0  0  0  0  0  0  0  0
   -9.3609   -7.9488   14.6241 N   0  0  0  0  0  0  0  0  0  0  0  0
  -10.9447   -9.3322   16.7140 N   0  0  0  0  0  0  0  0  0  0  0  0
  -11.5959   -9.5382   17.8828 C   0  0  0  0  0  0  0  0  0  0  0  0
  -11.5223   -8.3967   18.6366 N   0  0  0  0  0  0  0  0  0  0  0  0
  2  1  1  6  0  0  0
  2  3  1  0  0  0  0
  2  5  1  0  0  0  0
  3  4  1  0  0  0  0
  3 17  1  0  0  0  0
  5  6  1  0  0  0  0
  7  6  1  1  0  0  0
  7  8  1  0  0  0  0
  7  9  1  0  0  0  0
 10  9  1  6  0  0  0
 10 11  1  0  0  0  0
 10 12  1  0  0  0  0
 11 16  1  0  0  0  0
 12 13  1  1  0  0  0
 12 14  1  0  0  0  0
 14 15  1  1  0  0  0
 14 16  1  0  0  0  0
 16 27  1  6  0  0  0
 18 19  2  0  0  0  0
 18 23  1  0  0  0  0
 19 20  1  0  0  0  0
 20 21  2  0  0  0  0
 21 22  1  0  0  0  0
 21 27  1  0  0  0  0
 22 23  2  0  0  0  0
 22 25  1  0  0  0  0
 23 24  1  0  0  0  0
 25 26  2  0  0  0  0
 26 27  1  0  0  0  0
M  END
>  <CHROM.1>
-26.30491336,-57.22830864,-70.21188602,-176.10293734,176.35114128,135.91805074
-101.97556177,-10.62883373,-9.42020688,20.83817723,-1.42654044,0.11440117
-1.10135221

>  <Name>
ligand

>  <RI>
0

>  <Rbt.Current_Directory>
/home/itssahil/PROJECTS/Mol_Feturizer/New_Systems/rnas/3GX6

>  <Rbt.Executable>
rbdock ($Id: //depot/dev/client3/rdock/2013.1/src/exe/rbdock.cxx#4 $)

>  <Rbt.Library>
libRbt.so (2013.1, Build901 2013/11/27)

>  <Rbt.Parameter_File>
/export/apps/rDock/src/rDock_2013.1_src/data/scripts/dock_solv.prm

>  <Rbt.Receptor>
prm/blind_docking_40.prm

>  <SCORE>
-18.9498

>  <SCORE.INTER>
-11.6606

>  <SCORE.INTER.CONST>
1

>  <SCORE.INTER.POLAR>
0

>  <SCORE.INTER.ROT>
7

>  <SCORE.INTER.SOLV>
14.8406

>  <SCORE.INTER.VDW>
-20.9873

>  <SCORE.INTER.norm>
-0.431875

>  <SCORE.INTRA>
-7.28917

>  <SCORE.INTRA.DIHEDRAL>
-6.5723

>  <SCORE.INTRA.DIHEDRAL.0>
15.0182

>  <SCORE.INTRA.POLAR>
0

>  <SCORE.INTRA.POLAR.0>
0

>  <SCORE.INTRA.REPUL>
0

>  <SCORE.INTRA.REPUL.0>
0

>  <SCORE.INTRA.SOLV>
0.524811

>  <SCORE.INTRA.SOLV.lig_0>
-47.9129

>  <SCORE.INTRA.VDW>
-4.26542

>  <SCORE.INTRA.VDW.0>
2.00851

>  <SCORE.INTRA.norm>
-0.269969

>  <SCORE.RESTR>
0

>  <SCORE.RESTR.CAVITY>
0

>  <SCORE.RESTR.norm>
0

>  <SCORE.SYSTEM>
0

>  <SCORE.SYSTEM.CONST>
0

>  <SCORE.SYSTEM.DIHEDRAL>
0

>  <SCORE.SYSTEM.SOLV>
0

>  <SCORE.SYSTEM.norm>
0

>  <SCORE.heavy>
27

>  <SCORE.norm>
-0.701845

>  <RMSD>
13.204

$$$$
ligand
 OpenBabel11021811483D
libRbt.so/2013.1/901 2013/11/27
 27 29  0  0  0  0  0  0  0  0999 V2000
   -7.4847   -6.4176   14.2035 N   0  0  0  0  0  0  0  0  0  0  0  0
   -8.7560   -6.1104   14.8532 C   0  0  2  0  0  0  0  0  0  0  0  0
   -9.3091   -4.7582   14.4110 C   0  0  0  0  0  0  0  0  0  0  0  0
   -8.5832   -3.7636   14.3460 O   0  0  0  0  0  0  0  0  0  0  0  0
   -8.6244   -6.1874   16.3713 C   0  0  0  0  0  0  0  0  0  0  0  0
   -8.3856   -7.5991   16.8844 C   0  0  0  0  0  0  0  0  0  0  0  0
   -9.9054   -8.5119   17.2495 S   0  0  2  0  0  0  0  0  0  0  0  0
  -10.8158   -8.2647   15.7046 C   0  0  0  0  0  0  0  0  0  0  0  0
  -10.7518   -7.3460   18.3507 C   0  0  0  0  0  0  0  0  0  0  0  0
  -12.1647   -7.8428   18.6214 C   0  0  1  0  0  0  0  0  0  0  0  0
  -12.0805   -9.0240   19.3825 O   0  0  0  0  0  0  0  0  0  0  0  0
  -13.0402   -6.9190   19.4472 C   0  0  1  0  0  0  0  0  0  0  0  0
  -13.8552   -6.1218   18.6173 O   0  0  0  0  0  0  0  0  0  0  0  0
  -13.8955   -7.8819   20.2456 C   0  0  1  0  0  0  0  0  0  0  0  0
  -15.1911   -7.8848   19.6985 O   0  0  0  0  0  0  0  0  0  0  0  0
  -13.2732   -9.2623   20.0850 C   0  0  2  0  0  0  0  0  0  0  0  0
  -10.4976   -4.6341   14.1146 O   0  0  0  0  0  0  0  0  0  0  0  0
   -9.4945  -11.0585   23.2898 N   0  0  0  0  0  0  0  0  0  0  0  0
   -9.3677  -10.6132   21.9888 C   0  0  0  0  0  0  0  0  0  0  0  0
  -10.4730  -10.1743   21.2846 N   0  0  0  0  0  0  0  0  0  0  0  0
  -11.6979  -10.1802   21.8622 C   0  0  0  0  0  0  0  0  0  0  0  0
  -11.8435  -10.6167   23.1732 C   0  0  0  0  0  0  0  0  0  0  0  0
  -10.7369  -11.0618   23.8861 C   0  0  0  0  0  0  0  0  0  0  0  0
  -10.8781  -11.4888   25.1386 N   0  0  0  0  0  0  0  0  0  0  0  0
  -13.1493  -10.5130   23.5017 N   0  0  0  0  0  0  0  0  0  0  0  0
  -13.8238  -10.0083   22.4420 C   0  0  0  0  0  0  0  0  0  0  0  0
  -12.9404   -9.7954   21.4168 N   0  0  0  0  0  0  0  0  0  0  0  0
  2  1  1  6  0  0  0
  2  3  1  0  0  0  0
  2  5  1  0  0  0  0
  3  4  1  0  0  0  0
  3 17  1  0  0  0  0
  5  6  1  0  0  0  0
  7  6  1  6  0  0  0
  7  8  1  0  0  0  0
  7  9  1  0  0  0  0
 10  9  1  1  0  0  0
 10 11  1  0  0  0  0
 10 12  1  0  0  0  0
 11 16  1  0  0  0  0
 12 13  1  6  0  0  0
 12 14  1  0  0  0  0
 14 15  1  6  0  0  0
 14 16  1  0  0  0  0
 16 27  1  1  0  0  0
 18 19  2  0  0  0  0
 18 23  1  0  0  0  0
 19 20  1  0  0  0  0
 20 21  2  0  0  0  0
 21 22  1  0  0  0  0
 21 27  1  0  0  0  0
 22 23  2  0  0  0  0
 22 25  1  0  0  0  0
 23 24  1  0  0  0  0
 25 26  2  0  0  0  0
 26 27  1  0  0  0  0
M  END
>  <CHROM.1>
-45.29508243,-67.85984958,-89.56204504,50.92454434,171.86212404,67.45541686
-8.30920178,-11.09993516,-8.22672453,19.07062894,-1.27681469,-0.23421937
2.18173070

>  <Name>
ligand

>  <RI>
0

>  <Rbt.Current_Directory>
/home/itssahil/PROJECTS/Mol_Feturizer/New_Systems/rnas/3GX6

>  <Rbt.Executable>
rbdock ($Id: //depot/dev/client3/rdock/2013.1/src/exe/rbdock.cxx#4 $)

>  <Rbt.Library>
libRbt.so (2013.1, Build901 2013/11/27)

>  <Rbt.Parameter_File>
/export/apps/rDock/src/rDock_2013.1_src/data/scripts/dock_solv.prm

>  <Rbt.Receptor>
prm/blind_docking_40.prm

>  <SCORE>
-21.1386

>  <SCORE.INTER>
-13.5543

>  <SCORE.INTER.CONST>
1

>  <SCORE.INTER.POLAR>
0

>  <SCORE.INTER.ROT>
7

>  <SCORE.INTER.SOLV>
14.0257

>  <SCORE.INTER.VDW>
-21.9781

>  <SCORE.INTER.norm>
-0.502011

>  <SCORE.INTRA>
-7.58433

>  <SCORE.INTRA.DIHEDRAL>
-8.68159

>  <SCORE.INTRA.DIHEDRAL.0>
15.0182

>  <SCORE.INTRA.POLAR>
0

>  <SCORE.INTRA.POLAR.0>
0

>  <SCORE.INTRA.REPUL>
0

>  <SCORE.INTRA.REPUL.0>
0

>  <SCORE.INTRA.SOLV>
-0.474688

>  <SCORE.INTRA.SOLV.lig_0>
-47.9129

>  <SCORE.INTRA.VDW>
-3.00619

>  <SCORE.INTRA.VDW.0>
2.00851

>  <SCORE.INTRA.norm>
-0.280901

>  <SCORE.RESTR>
0

>  <SCORE.RESTR.CAVITY>
0

>  <SCORE.RESTR.norm>
0

>  <SCORE.SYSTEM>
0

>  <SCORE.SYSTEM.CONST>
0

>  <SCORE.SYSTEM.DIHEDRAL>
0

>  <SCORE.SYSTEM.SOLV>
0

>  <SCORE.SYSTEM.norm>
0

>  <SCORE.heavy>
27

>  <SCORE.norm>
-0.782912

>  <RMSD>
13.514

$$$$
ligand
 OpenBabel11021811483D
libRbt.so/2013.1/901 2013/11/27
 27 29  0  0  0  0  0  0  0  0999 V2000
   -8.6960   -6.5066   15.0399 N   0  0  0  0  0  0  0  0  0  0  0  0
   -8.0286   -6.4559   16.3380 C   0  0  2  0  0  0  0  0  0  0  0  0
   -6.6745   -5.7563   16.2550 C   0  0  0  0  0  0  0  0  0  0  0  0
   -5.9464   -5.6586   17.2453 O   0  0  0  0  0  0  0  0  0  0  0  0
   -7.8966   -7.8528   16.9373 C   0  0  0  0  0  0  0  0  0  0  0  0
   -9.2344   -8.5394   17.1654 C   0  0  0  0  0  0  0  0  0  0  0  0
  -10.2262   -7.7907   18.4815 S   0  0  2  0  0  0  0  0  0  0  0  0
   -9.2866   -8.3129   19.9379 C   0  0  0  0  0  0  0  0  0  0  0  0
  -11.6358   -8.9299   18.5414 C   0  0  0  0  0  0  0  0  0  0  0  0
  -12.6077   -8.4736   19.6200 C   0  0  1  0  0  0  0  0  0  0  0  0
  -13.1378   -7.2263   19.2395 O   0  0  0  0  0  0  0  0  0  0  0  0
  -13.8236   -9.3572   19.8269 C   0  0  1  0  0  0  0  0  0  0  0  0
  -13.6151  -10.2609   20.8892 O   0  0  0  0  0  0  0  0  0  0  0  0
  -14.9087   -8.3652   20.1936 C   0  0  1  0  0  0  0  0  0  0  0  0
  -15.1580   -8.4686   21.5738 O   0  0  0  0  0  0  0  0  0  0  0  0
  -14.3640   -6.9787   19.8782 C   0  0  2  0  0  0  0  0  0  0  0  0
   -6.2849   -5.2696   15.1934 O   0  0  0  0  0  0  0  0  0  0  0  0
  -19.3251   -6.3807   18.2033 N   0  0  0  0  0  0  0  0  0  0  0  0
  -18.8631   -7.1805   19.2298 C   0  0  0  0  0  0  0  0  0  0  0  0
  -17.5164   -7.2212   19.5382 N   0  0  0  0  0  0  0  0  0  0  0  0
  -16.6309   -6.4787   18.8322 C   0  0  0  0  0  0  0  0  0  0  0  0
  -17.0784   -5.6616   17.8015 C   0  0  0  0  0  0  0  0  0  0  0  0
  -18.4306   -5.6179   17.4844 C   0  0  0  0  0  0  0  0  0  0  0  0
  -18.8578   -4.8424   16.4908 N   0  0  0  0  0  0  0  0  0  0  0  0
  -16.0051   -5.0333   17.2752 N   0  0  0  0  0  0  0  0  0  0  0  0
  -14.9004   -5.4188   17.9563 C   0  0  0  0  0  0  0  0  0  0  0  0
  -15.2690   -6.3141   18.9254 N   0  0  0  0  0  0  0  0  0  0  0  0
  2  1  1  6  0  0  0
  2  3  1  0  0  0  0
  2  5  1  0  0  0  0
  3  4  1  0  0  0  0
  3 17  1  0  0  0  0
  5  6  1  0  0  0  0
  7  6  1  6  0  0  0
  7  8  1  0  0  0  0
  7  9  1  0  0  0  0
 10  9  1  6  0  0  0
 10 11  1  0  0  0  0
 10 12  1  0  0  0  0
 11 16  1  0  0  0  0
 12 13  1  1  0  0  0
 12 14  1  0  0  0  0
 14 15  1  1  0  0  0
 14 16  1  0  0  0  0
 16 27  1  6  0  0  0
 18 19  2  0  0  0  0
 18 23  1  0  0  0  0
 19 20  1  0  0  0  0
 20 21  2  0  0  0  0
 21 22  1  0  0  0  0
 21 27  1  0  0  0  0
 22 23  2  0  0  0  0
 22 25  1  0  0  0  0
 23 24  1  0  0  0  0
 25 26  2  0  0  0  0
 26 27  1  0  0  0  0
M  END
>  <CHROM.1>
-177.56290308,-60.24704390,-69.02359732,-71.93308937,179.54341934,65.09624727
144.84507544,-12.85671339,-7.11676058,18.32626417,0.12878954,0.14322795,-0.81654198

>  <Name>
ligand

>  <RI>
0

>  <Rbt.Current_Directory>
/home/itssahil/PROJECTS/Mol_Feturizer/New_Systems/rnas/3GX6

>  <Rbt.Executable>
rbdock ($Id: //depot/dev/client3/rdock/2013.1/src/exe/rbdock.cxx#4 $)

>  <Rbt.Library>
libRbt.so (2013.1, Build901 2013/11/27)

>  <Rbt.Parameter_File>
/export/apps/rDock/src/rDock_2013.1_src/data/scripts/dock_solv.prm

>  <Rbt.Receptor>
prm/blind_docking_40.prm

>  <SCORE>
-25.6868

>  <SCORE.INTER>
-16.0354

>  <SCORE.INTER.CONST>
1

>  <SCORE.INTER.POLAR>
0

>  <SCORE.INTER.ROT>
7

>  <SCORE.INTER.SOLV>
13.6871

>  <SCORE.INTER.VDW>
-23.5193

>  <SCORE.INTER.norm>
-0.593904

>  <SCORE.INTRA>
-9.6514

>  <SCORE.INTRA.DIHEDRAL>
-11.1852

>  <SCORE.INTRA.DIHEDRAL.0>
15.0182

>  <SCORE.INTRA.POLAR>
0

>  <SCORE.INTRA.POLAR.0>
0

>  <SCORE.INTRA.REPUL>
0

>  <SCORE.INTRA.REPUL.0>
0

>  <SCORE.INTRA.SOLV>
-0.57405

>  <SCORE.INTRA.SOLV.lig_0>
-47.9129

>  <SCORE.INTRA.VDW>
-3.77175

>  <SCORE.INTRA.VDW.0>
2.00851

>  <SCORE.INTRA.norm>
-0.357459

>  <SCORE.RESTR>
0

>  <SCORE.RESTR.CAVITY>
0

>  <SCORE.RESTR.norm>
0

>  <SCORE.SYSTEM>
0

>  <SCORE.SYSTEM.CONST>
0

>  <SCORE.SYSTEM.DIHEDRAL>
0

>  <SCORE.SYSTEM.SOLV>
0

>  <SCORE.SYSTEM.norm>
0

>  <SCORE.heavy>
27

>  <SCORE.norm>
-0.951363

>  <RMSD>
13.695

$$$$
ligand
 OpenBabel11021811483D
libRbt.so/2013.1/901 2013/11/27
 27 29  0  0  0  0  0  0  0  0999 V2000
   -8.4146   -0.7214   19.2965 N   0  0  0  0  0  0  0  0  0  0  0  0
   -7.2716   -1.1815   18.5126 C   0  0  2  0  0  0  0  0  0  0  0  0
   -7.3294   -0.6784   17.0726 C   0  0  0  0  0  0  0  0  0  0  0  0
   -6.3914   -0.0475   16.5802 O   0  0  0  0  0  0  0  0  0  0  0  0
   -7.1511   -2.7015   18.5658 C   0  0  0  0  0  0  0  0  0  0  0  0
   -8.4073   -3.4220   18.1013 C   0  0  0  0  0  0  0  0  0  0  0  0
   -8.2646   -5.2264   18.1180 S   0  0  2  0  0  0  0  0  0  0  0  0
   -7.2777   -5.4913   16.6239 C   0  0  0  0  0  0  0  0  0  0  0  0
   -9.9155   -5.7081   17.5428 C   0  0  0  0  0  0  0  0  0  0  0  0
  -10.0062   -7.2262   17.4843 C   0  0  1  0  0  0  0  0  0  0  0  0
   -9.6653   -7.7393   18.7500 O   0  0  0  0  0  0  0  0  0  0  0  0
  -11.3852   -7.7928   17.2024 C   0  0  1  0  0  0  0  0  0  0  0  0
  -11.5412   -8.0802   15.8307 O   0  0  0  0  0  0  0  0  0  0  0  0
  -11.3985   -9.0764   18.0074 C   0  0  1  0  0  0  0  0  0  0  0  0
  -11.2652  -10.1594   17.1201 O   0  0  0  0  0  0  0  0  0  0  0  0
  -10.1919   -9.0282   18.9350 C   0  0  2  0  0  0  0  0  0  0  0  0
   -8.3211   -0.8901   16.3744 O   0  0  0  0  0  0  0  0  0  0  0  0
  -13.3647   -7.1701   22.7107 N   0  0  0  0  0  0  0  0  0  0  0  0
  -13.2286   -6.7175   21.4131 C   0  0  0  0  0  0  0  0  0  0  0  0
  -12.3393   -7.3240   20.5463 N   0  0  0  0  0  0  0  0  0  0  0  0
  -11.5852   -8.3693   20.9616 C   0  0  0  0  0  0  0  0  0  0  0  0
  -11.7147   -8.8440   22.2610 C   0  0  0  0  0  0  0  0  0  0  0  0
  -12.6049   -8.2372   23.1386 C   0  0  0  0  0  0  0  0  0  0  0  0
  -12.7219   -8.6859   24.3860 N   0  0  0  0  0  0  0  0  0  0  0  0
  -10.8648   -9.8829   22.4091 N   0  0  0  0  0  0  0  0  0  0  0  0
  -10.2190  -10.0849   21.2366 C   0  0  0  0  0  0  0  0  0  0  0  0
  -10.6531   -9.1565   20.3276 N   0  0  0  0  0  0  0  0  0  0  0  0
  2  1  1  1  0  0  0
  2  3  1  0  0  0  0
  2  5  1  0  0  0  0
  3  4  1  0  0  0  0
  3 17  1  0  0  0  0
  5  6  1  0  0  0  0
  7  6  1  6  0  0  0
  7  8  1  0  0  0  0
  7  9  1  0  0  0  0
 10  9  1  1  0  0  0
 10 11  1  0  0  0  0
 10 12  1  0  0  0  0
 11 16  1  0  0  0  0
 12 13  1  6  0  0  0
 12 14  1  0  0  0  0
 14 15  1  6  0  0  0
 14 16  1  0  0  0  0
 16 27  1  1  0  0  0
 18 19  2  0  0  0  0
 18 23  1  0  0  0  0
 19 20  1  0  0  0  0
 20 21  2  0  0  0  0
 21 22  1  0  0  0  0
 21 27  1  0  0  0  0
 22 23  2  0  0  0  0
 22 25  1  0  0  0  0
 23 24  1  0  0  0  0
 25 26  2  0  0  0  0
 26 27  1  0  0  0  0
M  END
>  <CHROM.1>
125.02093017,56.39890589,178.49595293,-77.00804309,179.99276186,55.04056312
57.89374181,-9.98853036,-6.17472999,19.08403917,0.20863203,1.06946495,0.84811157

>  <Name>
ligand

>  <RI>
0

>  <Rbt.Current_Directory>
/home/itssahil/PROJECTS/Mol_Feturizer/New_Systems/rnas/3GX6

>  <Rbt.Executable>
rbdock ($Id: //depot/dev/client3/rdock/2013.1/src/exe/rbdock.cxx#4 $)

>  <Rbt.Library>
libRbt.so (2013.1, Build901 2013/11/27)

>  <Rbt.Parameter_File>
/export/apps/rDock/src/rDock_2013.1_src/data/scripts/dock_solv.prm

>  <Rbt.Receptor>
prm/blind_docking_40.prm

>  <SCORE>
-20.5493

>  <SCORE.INTER>
-9.89171

>  <SCORE.INTER.CONST>
1

>  <SCORE.INTER.POLAR>
0

>  <SCORE.INTER.ROT>
7

>  <SCORE.INTER.SOLV>
9.04741

>  <SCORE.INTER.VDW>
-17.8769

>  <SCORE.INTER.norm>
-0.36636

>  <SCORE.INTRA>
-10.6576

>  <SCORE.INTRA.DIHEDRAL>
-11.234

>  <SCORE.INTRA.DIHEDRAL.0>
15.0182

>  <SCORE.INTRA.POLAR>
0

>  <SCORE.INTRA.POLAR.0>
0

>  <SCORE.INTRA.REPUL>
0

>  <SCORE.INTRA.REPUL.0>
0

>  <SCORE.INTRA.SOLV>
-1.09071

>  <SCORE.INTRA.SOLV.lig_0>
-47.9129

>  <SCORE.INTRA.VDW>
-4.4952

>  <SCORE.INTRA.VDW.0>
2.00851

>  <SCORE.INTRA.norm>
-0.394724

>  <SCORE.RESTR>
0

>  <SCORE.RESTR.CAVITY>
0

>  <SCORE.RESTR.norm>
0

>  <SCORE.SYSTEM>
0

>  <SCORE.SYSTEM.CONST>
0

>  <SCORE.SYSTEM.DIHEDRAL>
0

>  <SCORE.SYSTEM.SOLV>
0

>  <SCORE.SYSTEM.norm>
0

>  <SCORE.heavy>
27

>  <SCORE.norm>
-0.761084

>  <RMSD>
13.719

$$$$
ligand
 OpenBabel11021811483D
libRbt.so/2013.1/901 2013/11/27
 27 29  0  0  0  0  0  0  0  0999 V2000
   -7.4906   -0.2416   18.6857 N   0  0  0  0  0  0  0  0  0  0  0  0
   -8.7413   -0.7674   18.1450 C   0  0  2  0  0  0  0  0  0  0  0  0
   -9.9138   -0.5358   19.0945 C   0  0  0  0  0  0  0  0  0  0  0  0
   -9.8553   -0.8846   20.2758 O   0  0  0  0  0  0  0  0  0  0  0  0
   -8.6010   -2.2434   17.7848 C   0  0  0  0  0  0  0  0  0  0  0  0
   -8.0472   -3.0905   18.9201 C   0  0  0  0  0  0  0  0  0  0  0  0
   -7.8761   -4.8447   18.5080 S   0  0  2  0  0  0  0  0  0  0  0  0
   -6.8607   -4.7332   17.0137 C   0  0  0  0  0  0  0  0  0  0  0  0
   -9.5095   -5.1939   17.8019 C   0  0  0  0  0  0  0  0  0  0  0  0
   -9.6638   -6.6952   17.6058 C   0  0  1  0  0  0  0  0  0  0  0  0
   -9.4766   -7.3259   18.8503 O   0  0  0  0  0  0  0  0  0  0  0  0
  -11.0318   -7.1615   17.1443 C   0  0  1  0  0  0  0  0  0  0  0  0
  -11.0614   -7.3291   15.7444 O   0  0  0  0  0  0  0  0  0  0  0  0
  -11.1857   -8.5030   17.8319 C   0  0  1  0  0  0  0  0  0  0  0  0
  -11.0135   -9.5169   16.8726 O   0  0  0  0  0  0  0  0  0  0  0  0
  -10.0781   -8.5950   18.8728 C   0  0  2  0  0  0  0  0  0  0  0  0
  -10.9469    0.0015   18.6948 O   0  0  0  0  0  0  0  0  0  0  0  0
  -10.1252  -11.4934   23.2742 N   0  0  0  0  0  0  0  0  0  0  0  0
   -9.3184  -11.6439   22.1636 C   0  0  0  0  0  0  0  0  0  0  0  0
   -9.4406  -10.7892   21.0844 N   0  0  0  0  0  0  0  0  0  0  0  0
  -10.3587   -9.7939   21.1013 C   0  0  0  0  0  0  0  0  0  0  0  0
  -11.1734   -9.6217   22.2136 C   0  0  0  0  0  0  0  0  0  0  0  0
  -11.0577  -10.4791   23.3010 C   0  0  0  0  0  0  0  0  0  0  0  0
  -11.8446  -10.3200   24.3624 N   0  0  0  0  0  0  0  0  0  0  0  0
  -11.9823   -8.5670   21.9754 N   0  0  0  0  0  0  0  0  0  0  0  0
  -11.6874   -8.0620   20.7545 C   0  0  0  0  0  0  0  0  0  0  0  0
  -10.6832   -8.8094   20.1981 N   0  0  0  0  0  0  0  0  0  0  0  0
  2  1  1  1  0  0  0
  2  3  1  0  0  0  0
  2  5  1  0  0  0  0
  3  4  1  0  0  0  0
  3 17  1  0  0  0  0
  5  6  1  0  0  0  0
  7  6  1  6  0  0  0
  7  8  1  0  0  0  0
  7  9  1  0  0  0  0
 10  9  1  1  0  0  0
 10 11  1  0  0  0  0
 10 12  1  0  0  0  0
 11 16  1  0  0  0  0
 12 13  1  6  0  0  0
 12 14  1  0  0  0  0
 14 15  1  6  0  0  0
 14 16  1  0  0  0  0
 16 27  1  1  0  0  0
 18 19  2  0  0  0  0
 18 23  1  0  0  0  0
 19 20  1  0  0  0  0
 20 21  2  0  0  0  0
 21 22  1  0  0  0  0
 21 27  1  0  0  0  0
 22 23  2  0  0  0  0
 22 25  1  0  0  0  0
 23 24  1  0  0  0  0
 25 26  2  0  0  0  0
 26 27  1  0  0  0  0
M  END
>  <CHROM.1>
-52.27784576,51.92456946,179.95804370,54.71552774,-170.20793235,57.43982664
-118.66290762,-9.85062697,-6.38778846,19.43553452,0.35171052,1.35856004,0.84878758

>  <Name>
ligand

>  <RI>
0

>  <Rbt.Current_Directory>
/home/itssahil/PROJECTS/Mol_Feturizer/New_Systems/rnas/3GX6

>  <Rbt.Executable>
rbdock ($Id: //depot/dev/client3/rdock/2013.1/src/exe/rbdock.cxx#4 $)

>  <Rbt.Library>
libRbt.so (2013.1, Build901 2013/11/27)

>  <Rbt.Parameter_File>
/export/apps/rDock/src/rDock_2013.1_src/data/scripts/dock_solv.prm

>  <Rbt.Receptor>
prm/blind_docking_60.prm

>  <SCORE>
-21.5775

>  <SCORE.INTER>
-12.8203

>  <SCORE.INTER.CONST>
1

>  <SCORE.INTER.POLAR>
0

>  <SCORE.INTER.ROT>
7

>  <SCORE.INTER.SOLV>
9.40784

>  <SCORE.INTER.VDW>
-19.9495

>  <SCORE.INTER.norm>
-0.474828

>  <SCORE.INTRA>
-8.75714

>  <SCORE.INTRA.DIHEDRAL>
-10.6005

>  <SCORE.INTRA.DIHEDRAL.0>
15.0182

>  <SCORE.INTRA.POLAR>
0

>  <SCORE.INTRA.POLAR.0>
0

>  <SCORE.INTRA.REPUL>
0

>  <SCORE.INTRA.REPUL.0>
0

>  <SCORE.INTRA.SOLV>
-1.1309

>  <SCORE.INTRA.SOLV.lig_0>
-47.9129

>  <SCORE.INTRA.VDW>
-2.89142

>  <SCORE.INTRA.VDW.0>
2.00851

>  <SCORE.INTRA.norm>
-0.324339

>  <SCORE.RESTR>
0

>  <SCORE.RESTR.CAVITY>
0

>  <SCORE.RESTR.norm>
0

>  <SCORE.SYSTEM>
0

>  <SCORE.SYSTEM.CONST>
0

>  <SCORE.SYSTEM.DIHEDRAL>
0

>  <SCORE.SYSTEM.SOLV>
0

>  <SCORE.SYSTEM.norm>
0

>  <SCORE.heavy>
27

>  <SCORE.norm>
-0.799166

>  <RMSD>
13.802

$$$$
ligand
 OpenBabel11021811483D
libRbt.so/2013.1/901 2013/11/27
 27 29  0  0  0  0  0  0  0  0999 V2000
  -11.6343  -10.4190   24.3140 N   0  0  0  0  0  0  0  0  0  0  0  0
  -11.0857  -10.8466   23.0298 C   0  0  2  0  0  0  0  0  0  0  0  0
   -9.7094  -11.4884   23.1841 C   0  0  0  0  0  0  0  0  0  0  0  0
   -9.2529  -12.2333   22.3140 O   0  0  0  0  0  0  0  0  0  0  0  0
  -11.0501   -9.6865   22.0395 C   0  0  0  0  0  0  0  0  0  0  0  0
  -12.4321   -9.1941   21.6384 C   0  0  0  0  0  0  0  0  0  0  0  0
  -12.4058   -7.7899   20.4966 S   0  0  2  0  0  0  0  0  0  0  0  0
  -14.1627   -7.6763   20.0759 C   0  0  0  0  0  0  0  0  0  0  0  0
  -11.7334   -8.5713   19.0047 C   0  0  0  0  0  0  0  0  0  0  0  0
  -11.6031   -7.5283   17.9040 C   0  0  1  0  0  0  0  0  0  0  0  0
  -11.0034   -6.3787   18.4521 O   0  0  0  0  0  0  0  0  0  0  0  0
  -10.7065   -7.9078   16.7404 C   0  0  1  0  0  0  0  0  0  0  0  0
  -11.4626   -8.4322   15.6718 O   0  0  0  0  0  0  0  0  0  0  0  0
  -10.0881   -6.5839   16.3393 C   0  0  1  0  0  0  0  0  0  0  0  0
  -10.6953   -6.1525   15.1464 O   0  0  0  0  0  0  0  0  0  0  0  0
  -10.4000   -5.5952   17.4546 C   0  0  2  0  0  0  0  0  0  0  0  0
   -9.0285  -11.2769   24.1878 O   0  0  0  0  0  0  0  0  0  0  0  0
   -7.9312   -1.4377   19.5510 N   0  0  0  0  0  0  0  0  0  0  0  0
   -9.2539   -1.5386   19.1670 C   0  0  0  0  0  0  0  0  0  0  0  0
   -9.7418   -2.7135   18.6271 N   0  0  0  0  0  0  0  0  0  0  0  0
   -8.9253   -3.7814   18.4633 C   0  0  0  0  0  0  0  0  0  0  0  0
   -7.5937   -3.7012   18.8518 C   0  0  0  0  0  0  0  0  0  0  0  0
   -7.0958   -2.5221   19.3929 C   0  0  0  0  0  0  0  0  0  0  0  0
   -5.8180   -2.4425   19.7562 N   0  0  0  0  0  0  0  0  0  0  0  0
   -7.0132   -4.8920   18.5895 N   0  0  0  0  0  0  0  0  0  0  0  0
   -7.9450   -5.7218   18.0643 C   0  0  0  0  0  0  0  0  0  0  0  0
   -9.1363   -5.0508   17.9791 N   0  0  0  0  0  0  0  0  0  0  0  0
  2  1  1  1  0  0  0
  2  3  1  0  0  0  0
  2  5  1  0  0  0  0
  3  4  1  0  0  0  0
  3 17  1  0  0  0  0
  5  6  1  0  0  0  0
  7  6  1  1  0  0  0
  7  8  1  0  0  0  0
  7  9  1  0  0  0  0
 10  9  1  1  0  0  0
 10 11  1  0  0  0  0
 10 12  1  0  0  0  0
 11 16  1  0  0  0  0
 12 13  1  6  0  0  0
 12 14  1  0  0  0  0
 14 15  1  6  0  0  0
 14 16  1  0  0  0  0
 16 27  1  1  0  0  0
 18 19  2  0  0  0  0
 18 23  1  0  0  0  0
 19 20  1  0  0  0  0
 20 21  2  0  0  0  0
 21 22  1  0  0  0  0
 21 27  1  0  0  0  0
 22 23  2  0  0  0  0
 22 25  1  0  0  0  0
 23 24  1  0  0  0  0
 25 26  2  0  0  0  0
 26 27  1  0  0  0  0
M  END
>  <CHROM.1>
159.42213987,-66.23783065,178.50795375,171.79294685,-178.91792366,46.32384331
-100.49690798,-10.12930293,-6.87910858,19.55131896,-2.02121855,-0.81700988
-0.87711578

>  <Name>
ligand

>  <RI>
0

>  <Rbt.Current_Directory>
/home/itssahil/PROJECTS/Mol_Feturizer/New_Systems/rnas/3GX6

>  <Rbt.Executable>
rbdock ($Id: //depot/dev/client3/rdock/2013.1/src/exe/rbdock.cxx#4 $)

>  <Rbt.Library>
libRbt.so (2013.1, Build901 2013/11/27)

>  <Rbt.Parameter_File>
/export/apps/rDock/src/rDock_2013.1_src/data/scripts/dock_solv.prm

>  <Rbt.Receptor>
prm/blind_docking_100.prm

>  <SCORE>
-23.1161

>  <SCORE.INTER>
-13.5154

>  <SCORE.INTER.CONST>
1

>  <SCORE.INTER.POLAR>
0

>  <SCORE.INTER.ROT>
7

>  <SCORE.INTER.SOLV>
11.7499

>  <SCORE.INTER.VDW>
-21.1936

>  <SCORE.INTER.norm>
-0.500571

>  <SCORE.INTRA>
-9.60064

>  <SCORE.INTRA.DIHEDRAL>
-10.7382

>  <SCORE.INTRA.DIHEDRAL.0>
15.0182

>  <SCORE.INTRA.POLAR>
0

>  <SCORE.INTRA.POLAR.0>
0

>  <SCORE.INTRA.REPUL>
0

>  <SCORE.INTRA.REPUL.0>
0

>  <SCORE.INTRA.SOLV>
-1.18062

>  <SCORE.INTRA.SOLV.lig_0>
-47.9129

>  <SCORE.INTRA.VDW>
-3.64122

>  <SCORE.INTRA.VDW.0>
2.00851

>  <SCORE.INTRA.norm>
-0.355579

>  <SCORE.RESTR>
0

>  <SCORE.RESTR.CAVITY>
0

>  <SCORE.RESTR.norm>
0

>  <SCORE.SYSTEM>
0

>  <SCORE.SYSTEM.CONST>
0

>  <SCORE.SYSTEM.DIHEDRAL>
0

>  <SCORE.SYSTEM.SOLV>
0

>  <SCORE.SYSTEM.norm>
0

>  <SCORE.heavy>
27

>  <SCORE.norm>
-0.85615

>  <RMSD>
13.839

$$$$
ligand
 OpenBabel11021811483D
libRbt.so/2013.1/901 2013/11/27
 27 29  0  0  0  0  0  0  0  0999 V2000
   -9.0944   -0.3641   19.8517 N   0  0  0  0  0  0  0  0  0  0  0  0
   -8.8573   -1.0374   18.5776 C   0  0  2  0  0  0  0  0  0  0  0  0
   -9.8639   -0.6108   17.5124 C   0  0  0  0  0  0  0  0  0  0  0  0
   -9.6037   -0.7162   16.3117 O   0  0  0  0  0  0  0  0  0  0  0  0
   -8.8459   -2.5526   18.7563 C   0  0  0  0  0  0  0  0  0  0  0  0
   -8.2629   -3.2954   17.5640 C   0  0  0  0  0  0  0  0  0  0  0  0
   -8.1376   -5.0848   17.8065 S   0  0  2  0  0  0  0  0  0  0  0  0
   -7.3935   -5.5779   16.2318 C   0  0  0  0  0  0  0  0  0  0  0  0
   -9.8618   -5.5881   17.5574 C   0  0  0  0  0  0  0  0  0  0  0  0
   -9.9418   -7.1071   17.5080 C   0  0  1  0  0  0  0  0  0  0  0  0
   -9.6314   -7.6086   18.7862 O   0  0  0  0  0  0  0  0  0  0  0  0
  -11.3093   -7.6843   17.1940 C   0  0  1  0  0  0  0  0  0  0  0  0
  -11.4271   -7.9829   15.8209 O   0  0  0  0  0  0  0  0  0  0  0  0
  -11.3362   -8.9620   18.0081 C   0  0  1  0  0  0  0  0  0  0  0  0
  -11.1730  -10.0507   17.1329 O   0  0  0  0  0  0  0  0  0  0  0  0
  -10.1550   -8.8994   18.9669 C   0  0  2  0  0  0  0  0  0  0  0  0
  -10.9576   -0.1463   17.8343 O   0  0  0  0  0  0  0  0  0  0  0  0
   -9.9609  -11.5863   23.4966 N   0  0  0  0  0  0  0  0  0  0  0  0
   -9.2622  -11.8304   22.3307 C   0  0  0  0  0  0  0  0  0  0  0  0
   -9.4358  -11.0207   21.2241 N   0  0  0  0  0  0  0  0  0  0  0  0
  -10.2990   -9.9782   21.2686 C   0  0  0  0  0  0  0  0  0  0  0  0
  -11.0043   -9.7121   22.4358 C   0  0  0  0  0  0  0  0  0  0  0  0
  -10.8366  -10.5237   23.5512 C   0  0  0  0  0  0  0  0  0  0  0  0
  -11.5194  -10.2744   24.6660 N   0  0  0  0  0  0  0  0  0  0  0  0
  -11.7781   -8.6278   22.2141 N   0  0  0  0  0  0  0  0  0  0  0  0
  -11.5662   -8.1958   20.9488 C   0  0  0  0  0  0  0  0  0  0  0  0
  -10.6521   -9.0203   20.3477 N   0  0  0  0  0  0  0  0  0  0  0  0
  2  1  1  1  0  0  0
  2  3  1  0  0  0  0
  2  5  1  0  0  0  0
  3  4  1  0  0  0  0
  3 17  1  0  0  0  0
  5  6  1  0  0  0  0
  7  6  1  6  0  0  0
  7  8  1  0  0  0  0
  7  9  1  0  0  0  0
 10  9  1  1  0  0  0
 10 11  1  0  0  0  0
 10 12  1  0  0  0  0
 11 16  1  0  0  0  0
 12 13  1  6  0  0  0
 12 14  1  0  0  0  0
 14 15  1  6  0  0  0
 14 16  1  0  0  0  0
 16 27  1  1  0  0  0
 18 19  2  0  0  0  0
 18 23  1  0  0  0  0
 19 20  1  0  0  0  0
 20 21  2  0  0  0  0
 21 22  1  0  0  0  0
 21 27  1  0  0  0  0
 22 23  2  0  0  0  0
 22 25  1  0  0  0  0
 23 24  1  0  0  0  0
 25 26  2  0  0  0  0
 26 27  1  0  0  0  0
M  END
>  <CHROM.1>
156.85266746,-165.37101002,176.02497251,-178.95014213,171.32716235,67.70382470
-125.28005843,-9.98033799,-6.64386769,19.22226812,-0.00615230,1.43014842
1.11490392

>  <Name>
ligand

>  <RI>
0

>  <Rbt.Current_Directory>
/home/itssahil/PROJECTS/Mol_Feturizer/New_Systems/rnas/3GX6

>  <Rbt.Executable>
rbdock ($Id: //depot/dev/client3/rdock/2013.1/src/exe/rbdock.cxx#4 $)

>  <Rbt.Library>
libRbt.so (2013.1, Build901 2013/11/27)

>  <Rbt.Parameter_File>
/export/apps/rDock/src/rDock_2013.1_src/data/scripts/dock_solv.prm

>  <Rbt.Receptor>
prm/blind_docking_40.prm

>  <SCORE>
-22.8588

>  <SCORE.INTER>
-12.3719

>  <SCORE.INTER.CONST>
1

>  <SCORE.INTER.POLAR>
0

>  <SCORE.INTER.ROT>
7

>  <SCORE.INTER.SOLV>
12.9075

>  <SCORE.INTER.VDW>
-20.8171

>  <SCORE.INTER.norm>
-0.458218

>  <SCORE.INTRA>
-10.4869

>  <SCORE.INTRA.DIHEDRAL>
-10.5369

>  <SCORE.INTRA.DIHEDRAL.0>
15.0182

>  <SCORE.INTRA.POLAR>
0

>  <SCORE.INTRA.POLAR.0>
0

>  <SCORE.INTRA.REPUL>
0

>  <SCORE.INTRA.REPUL.0>
0

>  <SCORE.INTRA.SOLV>
-1.85493

>  <SCORE.INTRA.SOLV.lig_0>
-47.9129

>  <SCORE.INTRA.VDW>
-4.29102

>  <SCORE.INTRA.VDW.0>
2.00851

>  <SCORE.INTRA.norm>
-0.388404

>  <SCORE.RESTR>
0

>  <SCORE.RESTR.CAVITY>
0

>  <SCORE.RESTR.norm>
0

>  <SCORE.SYSTEM>
0

>  <SCORE.SYSTEM.CONST>
0

>  <SCORE.SYSTEM.DIHEDRAL>
0

>  <SCORE.SYSTEM.SOLV>
0

>  <SCORE.SYSTEM.norm>
0

>  <SCORE.heavy>
27

>  <SCORE.norm>
-0.846622

>  <RMSD>
13.849

$$$$
ligand
 OpenBabel11021811483D
libRbt.so/2013.1/901 2013/11/27
 27 29  0  0  0  0  0  0  0  0999 V2000
   -7.1441    0.0265   19.4050 N   0  0  0  0  0  0  0  0  0  0  0  0
   -8.2297   -0.8112   18.9023 C   0  0  2  0  0  0  0  0  0  0  0  0
   -9.5176   -0.6115   19.6968 C   0  0  0  0  0  0  0  0  0  0  0  0
   -9.5041   -0.5573   20.9286 O   0  0  0  0  0  0  0  0  0  0  0  0
   -7.8162   -2.2796   18.8740 C   0  0  0  0  0  0  0  0  0  0  0  0
   -8.9061   -3.2025   18.3510 C   0  0  0  0  0  0  0  0  0  0  0  0
   -8.4057   -4.9386   18.2437 S   0  0  2  0  0  0  0  0  0  0  0  0
   -7.3900   -4.8953   16.7460 C   0  0  0  0  0  0  0  0  0  0  0  0
   -9.9287   -5.6983   17.6177 C   0  0  0  0  0  0  0  0  0  0  0  0
   -9.7223   -7.1995   17.4760 C   0  0  1  0  0  0  0  0  0  0  0  0
   -9.4137   -7.7257   18.7446 O   0  0  0  0  0  0  0  0  0  0  0  0
  -10.9342   -7.9903   17.0201 C   0  0  1  0  0  0  0  0  0  0  0  0
  -10.8992   -8.2076   15.6271 O   0  0  0  0  0  0  0  0  0  0  0  0
  -10.7803   -9.3061   17.7555 C   0  0  1  0  0  0  0  0  0  0  0  0
  -10.3579  -10.2829   16.8361 O   0  0  0  0  0  0  0  0  0  0  0  0
   -9.7003   -9.0993   18.8089 C   0  0  2  0  0  0  0  0  0  0  0  0
  -10.5998   -0.5055   19.1195 O   0  0  0  0  0  0  0  0  0  0  0  0
   -9.3502  -12.0474   23.1633 N   0  0  0  0  0  0  0  0  0  0  0  0
   -8.5430  -12.0827   22.0434 C   0  0  0  0  0  0  0  0  0  0  0  0
   -8.7790  -11.2330   20.9792 N   0  0  0  0  0  0  0  0  0  0  0  0
   -9.8104  -10.3564   21.0202 C   0  0  0  0  0  0  0  0  0  0  0  0
  -10.6279  -10.3006   22.1422 C   0  0  0  0  0  0  0  0  0  0  0  0
  -10.3980  -11.1539   23.2146 C   0  0  0  0  0  0  0  0  0  0  0  0
  -11.1870  -11.1069   24.2853 N   0  0  0  0  0  0  0  0  0  0  0  0
  -11.5608   -9.3480   21.9281 N   0  0  0  0  0  0  0  0  0  0  0  0
  -11.3421   -8.7928   20.7130 C   0  0  0  0  0  0  0  0  0  0  0  0
  -10.2609   -9.4049   20.1358 N   0  0  0  0  0  0  0  0  0  0  0  0
  2  1  1  1  0  0  0
  2  3  1  0  0  0  0
  2  5  1  0  0  0  0
  3  4  1  0  0  0  0
  3 17  1  0  0  0  0
  5  6  1  0  0  0  0
  7  6  1  6  0  0  0
  7  8  1  0  0  0  0
  7  9  1  0  0  0  0
 10  9  1  1  0  0  0
 10 11  1  0  0  0  0
 10 12  1  0  0  0  0
 11 16  1  0  0  0  0
 12 13  1  6  0  0  0
 12 14  1  0  0  0  0
 14 15  1  6  0  0  0
 14 16  1  0  0  0  0
 16 27  1  1  0  0  0
 18 19  2  0  0  0  0
 18 23  1  0  0  0  0
 19 20  1  0  0  0  0
 20 21  2  0  0  0  0
 21 22  1  0  0  0  0
 21 27  1  0  0  0  0
 22 23  2  0  0  0  0
 22 25  1  0  0  0  0
 23 24  1  0  0  0  0
 25 26  2  0  0  0  0
 26 27  1  0  0  0  0
M  END
>  <CHROM.1>
-44.17296220,-179.68605357,177.47870901,-76.79814024,-179.01254540,60.36123548
-126.07343288,-9.60454970,-6.80694058,19.47879005,-0.18834035,1.41828565
1.50374533

>  <Name>
ligand

>  <RI>
0

>  <Rbt.Current_Directory>
/home/itssahil/PROJECTS/Mol_Feturizer/New_Systems/rnas/3GX6

>  <Rbt.Executable>
rbdock ($Id: //depot/dev/client3/rdock/2013.1/src/exe/rbdock.cxx#4 $)

>  <Rbt.Library>
libRbt.so (2013.1, Build901 2013/11/27)

>  <Rbt.Parameter_File>
/export/apps/rDock/src/rDock_2013.1_src/data/scripts/dock_solv.prm

>  <Rbt.Receptor>
prm/blind_docking_40.prm

>  <SCORE>
-23.9129

>  <SCORE.INTER>
-13.3006

>  <SCORE.INTER.CONST>
1

>  <SCORE.INTER.POLAR>
0

>  <SCORE.INTER.ROT>
7

>  <SCORE.INTER.SOLV>
13.1148

>  <SCORE.INTER.VDW>
-21.5053

>  <SCORE.INTER.norm>
-0.492613

>  <SCORE.INTRA>
-10.6123

>  <SCORE.INTRA.DIHEDRAL>
-11.3366

>  <SCORE.INTRA.DIHEDRAL.0>
15.0182

>  <SCORE.INTRA.POLAR>
0

>  <SCORE.INTRA.POLAR.0>
0

>  <SCORE.INTRA.REPUL>
0

>  <SCORE.INTRA.REPUL.0>
0

>  <SCORE.INTRA.SOLV>
-1.87507

>  <SCORE.INTRA.SOLV.lig_0>
-47.9129

>  <SCORE.INTRA.VDW>
-4.00646

>  <SCORE.INTRA.VDW.0>
2.00851

>  <SCORE.INTRA.norm>
-0.393048

>  <SCORE.RESTR>
0

>  <SCORE.RESTR.CAVITY>
0

>  <SCORE.RESTR.norm>
0

>  <SCORE.SYSTEM>
0

>  <SCORE.SYSTEM.CONST>
0

>  <SCORE.SYSTEM.DIHEDRAL>
0

>  <SCORE.SYSTEM.SOLV>
0

>  <SCORE.SYSTEM.norm>
0

>  <SCORE.heavy>
27

>  <SCORE.norm>
-0.885661

>  <RMSD>
13.993

$$$$
ligand
 OpenBabel11021811483D
libRbt.so/2013.1/901 2013/11/27
 27 29  0  0  0  0  0  0  0  0999 V2000
   -6.1670  -16.1192   19.2632 N   0  0  0  0  0  0  0  0  0  0  0  0
   -7.4908  -16.0105   19.8702 C   0  0  2  0  0  0  0  0  0  0  0  0
   -8.5829  -16.5610   18.9568 C   0  0  0  0  0  0  0  0  0  0  0  0
   -9.0880  -15.8623   18.0753 O   0  0  0  0  0  0  0  0  0  0  0  0
   -7.7844  -14.5710   20.2823 C   0  0  0  0  0  0  0  0  0  0  0  0
   -7.0012  -14.1233   21.5067 C   0  0  0  0  0  0  0  0  0  0  0  0
   -7.2450  -12.3816   21.9348 S   0  0  2  0  0  0  0  0  0  0  0  0
   -6.5148  -12.3454   23.5907 C   0  0  0  0  0  0  0  0  0  0  0  0
   -9.0154  -12.3675   22.3272 C   0  0  0  0  0  0  0  0  0  0  0  0
   -9.4662  -10.9348   22.5730 C   0  0  1  0  0  0  0  0  0  0  0  0
   -9.1104  -10.1603   21.4527 O   0  0  0  0  0  0  0  0  0  0  0  0
  -10.9628  -10.7314   22.7171 C   0  0  1  0  0  0  0  0  0  0  0  0
  -11.3404  -10.7128   24.0757 O   0  0  0  0  0  0  0  0  0  0  0  0
  -11.1835   -9.3664   22.0975 C   0  0  1  0  0  0  0  0  0  0  0  0
  -11.4124   -8.4404   23.1309 O   0  0  0  0  0  0  0  0  0  0  0  0
   -9.8998   -9.0019   21.3640 C   0  0  2  0  0  0  0  0  0  0  0  0
   -8.9851  -17.7172   19.0877 O   0  0  0  0  0  0  0  0  0  0  0  0
   -8.0312   -7.7532   16.5969 N   0  0  0  0  0  0  0  0  0  0  0  0
   -7.3270   -7.9055   17.7750 C   0  0  0  0  0  0  0  0  0  0  0  0
   -7.9802   -8.2358   18.9473 N   0  0  0  0  0  0  0  0  0  0  0  0
   -9.3231   -8.4101   18.9557 C   0  0  0  0  0  0  0  0  0  0  0  0
  -10.0473   -8.2695   17.7783 C   0  0  0  0  0  0  0  0  0  0  0  0
   -9.3973   -7.9349   16.5966 C   0  0  0  0  0  0  0  0  0  0  0  0
  -10.0923   -7.7909   15.4709 N   0  0  0  0  0  0  0  0  0  0  0  0
  -11.3471   -8.5016   18.0612 N   0  0  0  0  0  0  0  0  0  0  0  0
  -11.4574   -8.8005   19.3770 C   0  0  0  0  0  0  0  0  0  0  0  0
  -10.2130   -8.7491   19.9475 N   0  0  0  0  0  0  0  0  0  0  0  0
  2  1  1  6  0  0  0
  2  3  1  0  0  0  0
  2  5  1  0  0  0  0
  3  4  1  0  0  0  0
  3 17  1  0  0  0  0
  5  6  1  0  0  0  0
  7  6  1  1  0  0  0
  7  8  1  0  0  0  0
  7  9  1  0  0  0  0
 10  9  1  6  0  0  0
 10 11  1  0  0  0  0
 10 12  1  0  0  0  0
 11 16  1  0  0  0  0
 12 13  1  1  0  0  0
 12 14  1  0  0  0  0
 14 15  1  1  0  0  0
 14 16  1  0  0  0  0
 16 27  1  6  0  0  0
 18 19  2  0  0  0  0
 18 23  1  0  0  0  0
 19 20  1  0  0  0  0
 20 21  2  0  0  0  0
 21 22  1  0  0  0  0
 21 27  1  0  0  0  0
 22 23  2  0  0  0  0
 22 25  1  0  0  0  0
 23 24  1  0  0  0  0
 25 26  2  0  0  0  0
 26 27  1  0  0  0  0
M  END
>  <CHROM.1>
-84.49161158,-72.94120418,175.69761259,167.11533203,-173.83402241,54.58558842
-66.08487923,-9.04064237,-11.24597587,20.22605899,-0.62405660,1.22338624
-1.10177011

>  <Name>
ligand

>  <RI>
0

>  <Rbt.Current_Directory>
/home/itssahil/PROJECTS/Mol_Feturizer/New_Systems/rnas/3GX6

>  <Rbt.Executable>
rbdock ($Id: //depot/dev/client3/rdock/2013.1/src/exe/rbdock.cxx#4 $)

>  <Rbt.Library>
libRbt.so (2013.1, Build901 2013/11/27)

>  <Rbt.Parameter_File>
/export/apps/rDock/src/rDock_2013.1_src/data/scripts/dock_solv.prm

>  <Rbt.Receptor>
prm/blind_docking_60.prm

>  <SCORE>
-24.7349

>  <SCORE.INTER>
-15.6378

>  <SCORE.INTER.CONST>
1

>  <SCORE.INTER.POLAR>
0

>  <SCORE.INTER.ROT>
7

>  <SCORE.INTER.SOLV>
12.6115

>  <SCORE.INTER.VDW>
-22.8957

>  <SCORE.INTER.norm>
-0.579177

>  <SCORE.INTRA>
-9.09707

>  <SCORE.INTRA.DIHEDRAL>
-10.3121

>  <SCORE.INTRA.DIHEDRAL.0>
15.0182

>  <SCORE.INTRA.POLAR>
0

>  <SCORE.INTRA.POLAR.0>
0

>  <SCORE.INTRA.REPUL>
0

>  <SCORE.INTRA.REPUL.0>
0

>  <SCORE.INTRA.SOLV>
-1.25143

>  <SCORE.INTRA.SOLV.lig_0>
-47.9129

>  <SCORE.INTRA.VDW>
-3.31532

>  <SCORE.INTRA.VDW.0>
2.00851

>  <SCORE.INTRA.norm>
-0.336928

>  <SCORE.RESTR>
0

>  <SCORE.RESTR.CAVITY>
0

>  <SCORE.RESTR.norm>
0

>  <SCORE.SYSTEM>
0

>  <SCORE.SYSTEM.CONST>
0

>  <SCORE.SYSTEM.DIHEDRAL>
0

>  <SCORE.SYSTEM.SOLV>
0

>  <SCORE.SYSTEM.norm>
0

>  <SCORE.heavy>
27

>  <SCORE.norm>
-0.916106

>  <RMSD>
14.108

$$$$
ligand
 OpenBabel11021811483D
libRbt.so/2013.1/901 2013/11/27
 27 29  0  0  0  0  0  0  0  0999 V2000
   -6.9434   -4.7682   17.9614 N   0  0  0  0  0  0  0  0  0  0  0  0
   -6.4119   -5.7345   17.0039 C   0  0  2  0  0  0  0  0  0  0  0  0
   -6.2913   -5.1404   15.6030 C   0  0  0  0  0  0  0  0  0  0  0  0
   -6.8950   -5.6339   14.6478 O   0  0  0  0  0  0  0  0  0  0  0  0
   -7.2486   -7.0103   16.9963 C   0  0  0  0  0  0  0  0  0  0  0  0
   -8.7390   -6.7525   16.8380 C   0  0  0  0  0  0  0  0  0  0  0  0
   -9.7339   -8.2598   16.7181 S   0  0  2  0  0  0  0  0  0  0  0  0
   -9.5450   -8.6385   14.9582 C   0  0  0  0  0  0  0  0  0  0  0  0
  -11.4106   -7.5701   16.7547 C   0  0  0  0  0  0  0  0  0  0  0  0
  -11.7793   -7.2163   18.1883 C   0  0  1  0  0  0  0  0  0  0  0  0
  -12.9704   -6.4663   18.1669 O   0  0  0  0  0  0  0  0  0  0  0  0
  -12.0852   -8.3912   19.0983 C   0  0  1  0  0  0  0  0  0  0  0  0
  -10.9493   -8.7551   19.8505 O   0  0  0  0  0  0  0  0  0  0  0  0
  -13.1614   -7.8436   20.0136 C   0  0  1  0  0  0  0  0  0  0  0  0
  -12.5892   -7.5950   21.2740 O   0  0  0  0  0  0  0  0  0  0  0  0
  -13.6346   -6.5314   19.4029 C   0  0  2  0  0  0  0  0  0  0  0  0
   -5.5813   -4.1555   15.3992 O   0  0  0  0  0  0  0  0  0  0  0  0
  -17.7924   -4.5086   16.8738 N   0  0  0  0  0  0  0  0  0  0  0  0
  -16.4763   -4.0943   16.8168 C   0  0  0  0  0  0  0  0  0  0  0  0
  -15.5026   -4.7417   17.5537 N   0  0  0  0  0  0  0  0  0  0  0  0
  -15.8292   -5.7901   18.3463 C   0  0  0  0  0  0  0  0  0  0  0  0
  -17.1468   -6.2265   18.4097 C   0  0  0  0  0  0  0  0  0  0  0  0
  -18.1312   -5.5785   17.6735 C   0  0  0  0  0  0  0  0  0  0  0  0
  -19.3948   -5.9907   17.7418 N   0  0  0  0  0  0  0  0  0  0  0  0
  -17.1947   -7.2776   19.2561 N   0  0  0  0  0  0  0  0  0  0  0  0
  -15.9440   -7.5243   19.7117 C   0  0  0  0  0  0  0  0  0  0  0  0
  -15.0844   -6.6125   19.1582 N   0  0  0  0  0  0  0  0  0  0  0  0
  2  1  1  1  0  0  0
  2  3  1  0  0  0  0
  2  5  1  0  0  0  0
  3  4  1  0  0  0  0
  3 17  1  0  0  0  0
  5  6  1  0  0  0  0
  7  6  1  6  0  0  0
  7  8  1  0  0  0  0
  7  9  1  0  0  0  0
 10  9  1  6  0  0  0
 10 11  1  0  0  0  0
 10 12  1  0  0  0  0
 11 16  1  0  0  0  0
 12 13  1  1  0  0  0
 12 14  1  0  0  0  0
 14 15  1  1  0  0  0
 14 16  1  0  0  0  0
 16 27  1  6  0  0  0
 18 19  2  0  0  0  0
 18 23  1  0  0  0  0
 19 20  1  0  0  0  0
 20 21  2  0  0  0  0
 21 22  1  0  0  0  0
 21 27  1  0  0  0  0
 22 23  2  0  0  0  0
 22 25  1  0  0  0  0
 23 24  1  0  0  0  0
 25 26  2  0  0  0  0
 26 27  1  0  0  0  0
M  END
>  <CHROM.1>
-120.38498164,50.81231543,176.20233214,-82.98823700,-78.42897515,169.44103162
-50.36253342,-12.12388069,-6.57841170,17.72680812,0.14875592,0.15786692,-0.80748958

>  <Name>
ligand

>  <RI>
0

>  <Rbt.Current_Directory>
/home/itssahil/PROJECTS/Mol_Feturizer/New_Systems/rnas/3GX6

>  <Rbt.Executable>
rbdock ($Id: //depot/dev/client3/rdock/2013.1/src/exe/rbdock.cxx#4 $)

>  <Rbt.Library>
libRbt.so (2013.1, Build901 2013/11/27)

>  <Rbt.Parameter_File>
/export/apps/rDock/src/rDock_2013.1_src/data/scripts/dock_solv.prm

>  <Rbt.Receptor>
prm/blind_docking_100.prm

>  <SCORE>
-26.6122

>  <SCORE.INTER>
-17.857

>  <SCORE.INTER.CONST>
1

>  <SCORE.INTER.POLAR>
0

>  <SCORE.INTER.ROT>
7

>  <SCORE.INTER.SOLV>
14.3313

>  <SCORE.INTER.VDW>
-24.9484

>  <SCORE.INTER.norm>
-0.661371

>  <SCORE.INTRA>
-8.75522

>  <SCORE.INTRA.DIHEDRAL>
-10.1363

>  <SCORE.INTRA.DIHEDRAL.0>
15.0182

>  <SCORE.INTRA.POLAR>
0

>  <SCORE.INTRA.POLAR.0>
0

>  <SCORE.INTRA.REPUL>
0

>  <SCORE.INTRA.REPUL.0>
0

>  <SCORE.INTRA.SOLV>
-0.939615

>  <SCORE.INTRA.SOLV.lig_0>
-47.9129

>  <SCORE.INTRA.VDW>
-3.21729

>  <SCORE.INTRA.VDW.0>
2.00851

>  <SCORE.INTRA.norm>
-0.324268

>  <SCORE.RESTR>
0

>  <SCORE.RESTR.CAVITY>
0

>  <SCORE.RESTR.norm>
0

>  <SCORE.SYSTEM>
0

>  <SCORE.SYSTEM.CONST>
0

>  <SCORE.SYSTEM.DIHEDRAL>
0

>  <SCORE.SYSTEM.SOLV>
0

>  <SCORE.SYSTEM.norm>
0

>  <SCORE.heavy>
27

>  <SCORE.norm>
-0.985638

>  <RMSD>
14.223

$$$$
ligand
 OpenBabel11021811483D
libRbt.so/2013.1/901 2013/11/27
 27 29  0  0  0  0  0  0  0  0999 V2000
  -12.1843   -8.2680   24.3595 N   0  0  0  0  0  0  0  0  0  0  0  0
  -11.6748   -8.4970   23.0101 C   0  0  2  0  0  0  0  0  0  0  0  0
  -12.0674   -9.8733   22.4793 C   0  0  0  0  0  0  0  0  0  0  0  0
  -11.6528  -10.9041   23.0139 O   0  0  0  0  0  0  0  0  0  0  0  0
  -10.1640   -8.2909   22.9561 C   0  0  0  0  0  0  0  0  0  0  0  0
   -9.6104   -8.2599   21.5399 C   0  0  0  0  0  0  0  0  0  0  0  0
   -9.6632   -9.8615   20.6983 S   0  0  2  0  0  0  0  0  0  0  0  0
   -8.3534  -10.7414   21.5851 C   0  0  0  0  0  0  0  0  0  0  0  0
   -8.8283   -9.4595   19.1395 C   0  0  0  0  0  0  0  0  0  0  0  0
   -9.7530   -8.6143   18.2753 C   0  0  1  0  0  0  0  0  0  0  0  0
   -9.6476   -7.2742   18.6934 O   0  0  0  0  0  0  0  0  0  0  0  0
   -9.4207   -8.5789   16.7954 C   0  0  1  0  0  0  0  0  0  0  0  0
  -10.1908   -9.5216   16.0833 O   0  0  0  0  0  0  0  0  0  0  0  0
   -9.8147   -7.1731   16.3900 C   0  0  1  0  0  0  0  0  0  0  0  0
  -11.0146   -7.2405   15.6596 O   0  0  0  0  0  0  0  0  0  0  0  0
  -10.0460   -6.3914   17.6761 C   0  0  2  0  0  0  0  0  0  0  0  0
  -12.8051   -9.9797   21.4994 O   0  0  0  0  0  0  0  0  0  0  0  0
   -5.4495   -4.3349   16.1211 N   0  0  0  0  0  0  0  0  0  0  0  0
   -5.9489   -5.5964   15.8639 C   0  0  0  0  0  0  0  0  0  0  0  0
   -7.1834   -5.9778   16.3548 N   0  0  0  0  0  0  0  0  0  0  0  0
   -7.9179   -5.1180   17.0999 C   0  0  0  0  0  0  0  0  0  0  0  0
   -7.4355   -3.8416   17.3618 C   0  0  0  0  0  0  0  0  0  0  0  0
   -6.1941   -3.4526   16.8736 C   0  0  0  0  0  0  0  0  0  0  0  0
   -5.7279   -2.2332   17.1326 N   0  0  0  0  0  0  0  0  0  0  0  0
   -8.3564   -3.1960   18.1092 N   0  0  0  0  0  0  0  0  0  0  0  0
   -9.4092   -4.0232   18.3092 C   0  0  0  0  0  0  0  0  0  0  0  0
   -9.1554   -5.2188   17.6905 N   0  0  0  0  0  0  0  0  0  0  0  0
  2  1  1  1  0  0  0
  2  3  1  0  0  0  0
  2  5  1  0  0  0  0
  3  4  1  0  0  0  0
  3 17  1  0  0  0  0
  5  6  1  0  0  0  0
  7  6  1  1  0  0  0
  7  8  1  0  0  0  0
  7  9  1  0  0  0  0
 10  9  1  1  0  0  0
 10 11  1  0  0  0  0
 10 12  1  0  0  0  0
 11 16  1  0  0  0  0
 12 13  1  6  0  0  0
 12 14  1  0  0  0  0
 14 15  1  6  0  0  0
 14 16  1  0  0  0  0
 16 27  1  6  0  0  0
 18 19  2  0  0  0  0
 18 23  1  0  0  0  0
 19 20  1  0  0  0  0
 20 21  2  0  0  0  0
 21 22  1  0  0  0  0
 21 27  1  0  0  0  0
 22 23  2  0  0  0  0
 22 25  1  0  0  0  0
 23 24  1  0  0  0  0
 25 26  2  0  0  0  0
 26 27  1  0  0  0  0
M  END
>  <CHROM.1>
-64.28096706,-169.28801711,-69.64191002,-72.13025729,-72.88129254,82.68392158
83.12253844,-9.33224856,-7.33876304,19.04339834,-2.73942618,-1.05602131,-1.93050262

>  <Name>
ligand

>  <RI>
0

>  <Rbt.Current_Directory>
/home/itssahil/PROJECTS/Mol_Feturizer/New_Systems/rnas/3GX6

>  <Rbt.Executable>
rbdock ($Id: //depot/dev/client3/rdock/2013.1/src/exe/rbdock.cxx#4 $)

>  <Rbt.Library>
libRbt.so (2013.1, Build901 2013/11/27)

>  <Rbt.Parameter_File>
/export/apps/rDock/src/rDock_2013.1_src/data/scripts/dock_solv.prm

>  <Rbt.Receptor>
prm/blind_docking_80.prm

>  <SCORE>
-17.2053

>  <SCORE.INTER>
-6.98537

>  <SCORE.INTER.CONST>
1

>  <SCORE.INTER.POLAR>
0

>  <SCORE.INTER.ROT>
7

>  <SCORE.INTER.SOLV>
12.2517

>  <SCORE.INTER.VDW>
-17.0075

>  <SCORE.INTER.norm>
-0.258717

>  <SCORE.INTRA>
-10.2199

>  <SCORE.INTRA.DIHEDRAL>
-9.32316

>  <SCORE.INTRA.DIHEDRAL.0>
15.0182

>  <SCORE.INTRA.POLAR>
0

>  <SCORE.INTRA.POLAR.0>
0

>  <SCORE.INTRA.REPUL>
0

>  <SCORE.INTRA.REPUL.0>
0

>  <SCORE.INTRA.SOLV>
-1.63922

>  <SCORE.INTRA.SOLV.lig_0>
-47.9129

>  <SCORE.INTRA.VDW>
-4.73873

>  <SCORE.INTRA.VDW.0>
2.00851

>  <SCORE.INTRA.norm>
-0.378515

>  <SCORE.RESTR>
0

>  <SCORE.RESTR.CAVITY>
0

>  <SCORE.RESTR.norm>
0

>  <SCORE.SYSTEM>
0

>  <SCORE.SYSTEM.CONST>
0

>  <SCORE.SYSTEM.DIHEDRAL>
0

>  <SCORE.SYSTEM.SOLV>
0

>  <SCORE.SYSTEM.norm>
0

>  <SCORE.heavy>
27

>  <SCORE.norm>
-0.637233

>  <RMSD>
14.457

$$$$
ligand
 OpenBabel11021811483D
libRbt.so/2013.1/901 2013/11/27
 27 29  0  0  0  0  0  0  0  0999 V2000
  -10.6498   -7.8322   18.5379 N   0  0  0  0  0  0  0  0  0  0  0  0
  -11.0858   -7.1220   17.3385 C   0  0  2  0  0  0  0  0  0  0  0  0
  -10.9878   -7.9969   16.0916 C   0  0  0  0  0  0  0  0  0  0  0  0
   -9.9436   -8.5890   15.8095 O   0  0  0  0  0  0  0  0  0  0  0  0
  -10.3113   -5.8189   17.1654 C   0  0  0  0  0  0  0  0  0  0  0  0
   -8.8040   -6.0159   17.1169 C   0  0  0  0  0  0  0  0  0  0  0  0
   -7.8816   -4.5101   16.7194 S   0  0  2  0  0  0  0  0  0  0  0  0
   -6.1840   -5.1318   16.8094 C   0  0  0  0  0  0  0  0  0  0  0  0
   -8.0108   -3.6034   18.2846 C   0  0  0  0  0  0  0  0  0  0  0  0
   -9.0501   -2.5004   18.1443 C   0  0  1  0  0  0  0  0  0  0  0  0
   -9.3496   -2.0083   19.4287 O   0  0  0  0  0  0  0  0  0  0  0  0
   -8.6106   -1.2778   17.3607 C   0  0  1  0  0  0  0  0  0  0  0  0
   -9.0301   -1.3628   16.0171 O   0  0  0  0  0  0  0  0  0  0  0  0
   -9.3339   -0.1451   18.0606 C   0  0  1  0  0  0  0  0  0  0  0  0
  -10.4012    0.2722   17.2454 O   0  0  0  0  0  0  0  0  0  0  0  0
   -9.8812   -0.7097   19.3645 C   0  0  2  0  0  0  0  0  0  0  0  0
  -11.9530   -8.1239   15.3380 O   0  0  0  0  0  0  0  0  0  0  0  0
   -8.5381    4.0626   21.1522 N   0  0  0  0  0  0  0  0  0  0  0  0
   -9.0537    3.7304   19.9150 C   0  0  0  0  0  0  0  0  0  0  0  0
   -9.3510    2.4163   19.6066 N   0  0  0  0  0  0  0  0  0  0  0  0
   -9.1352    1.4355   20.5151 C   0  0  0  0  0  0  0  0  0  0  0  0
   -8.6250    1.7519   21.7682 C   0  0  0  0  0  0  0  0  0  0  0  0
   -8.3214    3.0706   22.0839 C   0  0  0  0  0  0  0  0  0  0  0  0
   -7.8239    3.3722   23.2808 N   0  0  0  0  0  0  0  0  0  0  0  0
   -8.5161    0.6050   22.4727 N   0  0  0  0  0  0  0  0  0  0  0  0
   -8.9588   -0.4186   21.7053 C   0  0  0  0  0  0  0  0  0  0  0  0
   -9.3471    0.0772   20.4887 N   0  0  0  0  0  0  0  0  0  0  0  0
  2  1  1  1  0  0  0
  2  3  1  0  0  0  0
  2  5  1  0  0  0  0
  3  4  1  0  0  0  0
  3 17  1  0  0  0  0
  5  6  1  0  0  0  0
  7  6  1  1  0  0  0
  7  8  1  0  0  0  0
  7  9  1  0  0  0  0
 10  9  1  1  0  0  0
 10 11  1  0  0  0  0
 10 12  1  0  0  0  0
 11 16  1  0  0  0  0
 12 13  1  6  0  0  0
 12 14  1  0  0  0  0
 14 15  1  6  0  0  0
 14 16  1  0  0  0  0
 16 27  1  1  0  0  0
 18 19  2  0  0  0  0
 18 23  1  0  0  0  0
 19 20  1  0  0  0  0
 20 21  2  0  0  0  0
 21 22  1  0  0  0  0
 21 27  1  0  0  0  0
 22 23  2  0  0  0  0
 22 25  1  0  0  0  0
 23 24  1  0  0  0  0
 25 26  2  0  0  0  0
 26 27  1  0  0  0  0
M  END
>  <CHROM.1>
-51.81881536,56.44632046,173.23895525,178.30414646,-103.23878376,167.16512475
150.69561479,-9.17709874,-2.18147855,18.61639202,2.37171219,-1.41086974,-1.88797757

>  <Name>
ligand

>  <RI>
0

>  <Rbt.Current_Directory>
/home/itssahil/PROJECTS/Mol_Feturizer/New_Systems/rnas/3GX6

>  <Rbt.Executable>
rbdock ($Id: //depot/dev/client3/rdock/2013.1/src/exe/rbdock.cxx#4 $)

>  <Rbt.Library>
libRbt.so (2013.1, Build901 2013/11/27)

>  <Rbt.Parameter_File>
/export/apps/rDock/src/rDock_2013.1_src/data/scripts/dock_solv.prm

>  <Rbt.Receptor>
prm/blind_docking_60.prm

>  <SCORE>
-21.0367

>  <SCORE.INTER>
-12.0278

>  <SCORE.INTER.CONST>
1

>  <SCORE.INTER.POLAR>
0

>  <SCORE.INTER.ROT>
7

>  <SCORE.INTER.SOLV>
10.7357

>  <SCORE.INTER.VDW>
-19.8638

>  <SCORE.INTER.norm>
-0.445474

>  <SCORE.INTRA>
-9.00893

>  <SCORE.INTRA.DIHEDRAL>
-8.20231

>  <SCORE.INTRA.DIHEDRAL.0>
15.0182

>  <SCORE.INTRA.POLAR>
0

>  <SCORE.INTRA.POLAR.0>
0

>  <SCORE.INTRA.REPUL>
0

>  <SCORE.INTRA.REPUL.0>
0

>  <SCORE.INTRA.SOLV>
-0.991428

>  <SCORE.INTRA.SOLV.lig_0>
-47.9129

>  <SCORE.INTRA.VDW>
-4.41206

>  <SCORE.INTRA.VDW.0>
2.00851

>  <SCORE.INTRA.norm>
-0.333664

>  <SCORE.RESTR>
0

>  <SCORE.RESTR.CAVITY>
0

>  <SCORE.RESTR.norm>
0

>  <SCORE.SYSTEM>
0

>  <SCORE.SYSTEM.CONST>
0

>  <SCORE.SYSTEM.DIHEDRAL>
0

>  <SCORE.SYSTEM.SOLV>
0

>  <SCORE.SYSTEM.norm>
0

>  <SCORE.heavy>
27

>  <SCORE.norm>
-0.779139

>  <RMSD>
14.598

$$$$
ligand
 OpenBabel11021811483D
libRbt.so/2013.1/901 2013/11/27
 27 29  0  0  0  0  0  0  0  0999 V2000
   -9.0735   -5.1706   14.4571 N   0  0  0  0  0  0  0  0  0  0  0  0
   -9.1503   -6.4496   15.1579 C   0  0  2  0  0  0  0  0  0  0  0  0
  -10.4774   -6.6170   15.8933 C   0  0  0  0  0  0  0  0  0  0  0  0
  -11.2697   -7.5092   15.5824 O   0  0  0  0  0  0  0  0  0  0  0  0
   -7.9653   -6.6248   16.1029 C   0  0  0  0  0  0  0  0  0  0  0  0
   -7.9278   -5.5932   17.2198 C   0  0  0  0  0  0  0  0  0  0  0  0
   -7.4250   -3.9421   16.6744 S   0  0  2  0  0  0  0  0  0  0  0  0
   -5.6312   -4.1622   16.5731 C   0  0  0  0  0  0  0  0  0  0  0  0
   -7.5810   -3.0062   18.2197 C   0  0  0  0  0  0  0  0  0  0  0  0
   -8.7865   -2.0815   18.1300 C   0  0  1  0  0  0  0  0  0  0  0  0
   -9.0079   -1.5181   19.4008 O   0  0  0  0  0  0  0  0  0  0  0  0
   -8.6332   -0.8882   17.2056 C   0  0  1  0  0  0  0  0  0  0  0  0
   -9.1867   -1.1589   15.9372 O   0  0  0  0  0  0  0  0  0  0  0  0
   -9.4363    0.1905   17.9038 C   0  0  1  0  0  0  0  0  0  0  0  0
  -10.6417    0.3719   17.2026 O   0  0  0  0  0  0  0  0  0  0  0  0
   -9.7364   -0.3208   19.3063 C   0  0  2  0  0  0  0  0  0  0  0  0
  -10.7848   -5.8570   16.8117 O   0  0  0  0  0  0  0  0  0  0  0  0
   -8.1904    0.4813   24.2804 N   0  0  0  0  0  0  0  0  0  0  0  0
   -8.6692   -0.6838   23.7145 C   0  0  0  0  0  0  0  0  0  0  0  0
   -9.0356   -0.7198   22.3823 N   0  0  0  0  0  0  0  0  0  0  0  0
   -8.9336    0.3914   21.6151 C   0  0  0  0  0  0  0  0  0  0  0  0
   -8.4459    1.5705   22.1651 C   0  0  0  0  0  0  0  0  0  0  0  0
   -8.0782    1.6145   23.5044 C   0  0  0  0  0  0  0  0  0  0  0  0
   -7.6202    2.7465   24.0333 N   0  0  0  0  0  0  0  0  0  0  0  0
   -8.4403    2.5092   21.1942 N   0  0  0  0  0  0  0  0  0  0  0  0
   -8.8934    1.9495   20.0479 C   0  0  0  0  0  0  0  0  0  0  0  0
   -9.2035    0.6371   20.2895 N   0  0  0  0  0  0  0  0  0  0  0  0
  2  1  1  1  0  0  0
  2  3  1  0  0  0  0
  2  5  1  0  0  0  0
  3  4  1  0  0  0  0
  3 17  1  0  0  0  0
  5  6  1  0  0  0  0
  7  6  1  1  0  0  0
  7  8  1  0  0  0  0
  7  9  1  0  0  0  0
 10  9  1  1  0  0  0
 10 11  1  0  0  0  0
 10 12  1  0  0  0  0
 11 16  1  0  0  0  0
 12 13  1  6  0  0  0
 12 14  1  0  0  0  0
 14 15  1  6  0  0  0
 14 16  1  0  0  0  0
 16 27  1  1  0  0  0
 18 19  2  0  0  0  0
 18 23  1  0  0  0  0
 19 20  1  0  0  0  0
 20 21  2  0  0  0  0
 21 22  1  0  0  0  0
 21 27  1  0  0  0  0
 22 23  2  0  0  0  0
 22 25  1  0  0  0  0
 23 24  1  0  0  0  0
 25 26  2  0  0  0  0
 26 27  1  0  0  0  0
M  END
>  <CHROM.1>
116.44483779,63.37833108,-73.69685926,-78.94786713,-108.17511880,171.26936890
-47.58149596,-8.77753957,-2.02910804,18.71513003,1.79949589,1.31618873,-2.61628910

>  <Name>
ligand

>  <RI>
0

>  <Rbt.Current_Directory>
/home/itssahil/PROJECTS/Mol_Feturizer/New_Systems/rnas/3GX6

>  <Rbt.Executable>
rbdock ($Id: //depot/dev/client3/rdock/2013.1/src/exe/rbdock.cxx#4 $)

>  <Rbt.Library>
libRbt.so (2013.1, Build901 2013/11/27)

>  <Rbt.Parameter_File>
/export/apps/rDock/src/rDock_2013.1_src/data/scripts/dock_solv.prm

>  <Rbt.Receptor>
prm/blind_docking_80.prm

>  <SCORE>
-20.6731

>  <SCORE.INTER>
-13.3579

>  <SCORE.INTER.CONST>
1

>  <SCORE.INTER.POLAR>
0

>  <SCORE.INTER.ROT>
7

>  <SCORE.INTER.SOLV>
9.81152

>  <SCORE.INTER.VDW>
-20.4424

>  <SCORE.INTER.norm>
-0.494736

>  <SCORE.INTRA>
-7.31523

>  <SCORE.INTRA.DIHEDRAL>
-7.29581

>  <SCORE.INTRA.DIHEDRAL.0>
15.0182

>  <SCORE.INTRA.POLAR>
0

>  <SCORE.INTRA.POLAR.0>
0

>  <SCORE.INTRA.REPUL>
0

>  <SCORE.INTRA.REPUL.0>
0

>  <SCORE.INTRA.SOLV>
0.668119

>  <SCORE.INTRA.SOLV.lig_0>
-47.9129

>  <SCORE.INTRA.VDW>
-4.00139

>  <SCORE.INTRA.VDW.0>
2.00851

>  <SCORE.INTRA.norm>
-0.270935

>  <SCORE.RESTR>
0

>  <SCORE.RESTR.CAVITY>
0

>  <SCORE.RESTR.norm>
0

>  <SCORE.SYSTEM>
0

>  <SCORE.SYSTEM.CONST>
0

>  <SCORE.SYSTEM.DIHEDRAL>
0

>  <SCORE.SYSTEM.SOLV>
0

>  <SCORE.SYSTEM.norm>
0

>  <SCORE.heavy>
27

>  <SCORE.norm>
-0.76567

>  <RMSD>
14.605

$$$$
ligand
 OpenBabel11021811483D
libRbt.so/2013.1/901 2013/11/27
 27 29  0  0  0  0  0  0  0  0999 V2000
   -7.8613    0.2795   19.6025 N   0  0  0  0  0  0  0  0  0  0  0  0
   -8.4017   -0.2606   18.3578 C   0  0  2  0  0  0  0  0  0  0  0  0
   -9.9007   -0.5310   18.4580 C   0  0  0  0  0  0  0  0  0  0  0  0
  -10.6744   -0.1662   17.5699 O   0  0  0  0  0  0  0  0  0  0  0  0
   -7.6389   -1.5107   17.9300 C   0  0  0  0  0  0  0  0  0  0  0  0
   -7.9814   -1.9733   16.5223 C   0  0  0  0  0  0  0  0  0  0  0  0
   -7.6172   -3.7198   16.2169 S   0  0  2  0  0  0  0  0  0  0  0  0
   -8.5118   -3.9749   14.6642 C   0  0  0  0  0  0  0  0  0  0  0  0
   -8.7322   -4.5173   17.4041 C   0  0  0  0  0  0  0  0  0  0  0  0
   -8.6576   -6.0274   17.2302 C   0  0  1  0  0  0  0  0  0  0  0  0
   -9.0613   -6.6323   18.4355 O   0  0  0  0  0  0  0  0  0  0  0  0
   -9.5819   -6.6155   16.1806 C   0  0  1  0  0  0  0  0  0  0  0  0
   -8.9056   -6.7926   14.9559 O   0  0  0  0  0  0  0  0  0  0  0  0
   -9.9541   -7.9616   16.7684 C   0  0  1  0  0  0  0  0  0  0  0  0
   -9.2569   -8.9615   16.0669 O   0  0  0  0  0  0  0  0  0  0  0  0
   -9.4995   -7.9496   18.2216 C   0  0  2  0  0  0  0  0  0  0  0  0
  -10.3676   -1.1167   19.4350 O   0  0  0  0  0  0  0  0  0  0  0  0
  -14.4875   -6.7107   19.3882 N   0  0  0  0  0  0  0  0  0  0  0  0
  -13.6856   -6.1755   18.3995 C   0  0  0  0  0  0  0  0  0  0  0  0
  -12.3872   -6.6179   18.2306 N   0  0  0  0  0  0  0  0  0  0  0  0
  -11.8828   -7.5809   19.0381 C   0  0  0  0  0  0  0  0  0  0  0  0
  -12.6775   -8.1372   20.0329 C   0  0  0  0  0  0  0  0  0  0  0  0
  -13.9829   -7.6952   20.2099 C   0  0  0  0  0  0  0  0  0  0  0  0
  -14.7408   -8.2214   21.1689 N   0  0  0  0  0  0  0  0  0  0  0  0
  -11.9420   -9.0675   20.6788 N   0  0  0  0  0  0  0  0  0  0  0  0
  -10.7158   -9.1234   20.1077 C   0  0  0  0  0  0  0  0  0  0  0  0
  -10.6610   -8.2094   19.0887 N   0  0  0  0  0  0  0  0  0  0  0  0
  2  1  1  1  0  0  0
  2  3  1  0  0  0  0
  2  5  1  0  0  0  0
  3  4  1  0  0  0  0
  3 17  1  0  0  0  0
  5  6  1  0  0  0  0
  7  6  1  1  0  0  0
  7  8  1  0  0  0  0
  7  9  1  0  0  0  0
 10  9  1  1  0  0  0
 10 11  1  0  0  0  0
 10 12  1  0  0  0  0
 11 16  1  0  0  0  0
 12 13  1  6  0  0  0
 12 14  1  0  0  0  0
 14 15  1  6  0  0  0
 14 16  1  0  0  0  0
 16 27  1  1  0  0  0
 18 19  2  0  0  0  0
 18 23  1  0  0  0  0
 19 20  1  0  0  0  0
 20 21  2  0  0  0  0
 21 22  1  0  0  0  0
 21 27  1  0  0  0  0
 22 23  2  0  0  0  0
 22 25  1  0  0  0  0
 23 24  1  0  0  0  0
 25 26  2  0  0  0  0
 26 27  1  0  0  0  0
M  END
>  <CHROM.1>
133.21381191,-169.47599444,-157.95362255,166.58313714,175.59917041,156.53855867
63.49577561,-10.17139854,-5.26766728,18.01318614,0.88847969,0.70949149,0.22429210

>  <Name>
ligand

>  <RI>
0

>  <Rbt.Current_Directory>
/home/itssahil/PROJECTS/Mol_Feturizer/New_Systems/rnas/3GX6

>  <Rbt.Executable>
rbdock ($Id: //depot/dev/client3/rdock/2013.1/src/exe/rbdock.cxx#4 $)

>  <Rbt.Library>
libRbt.so (2013.1, Build901 2013/11/27)

>  <Rbt.Parameter_File>
/export/apps/rDock/src/rDock_2013.1_src/data/scripts/dock_solv.prm

>  <Rbt.Receptor>
prm/blind_docking_40.prm

>  <SCORE>
-20.7119

>  <SCORE.INTER>
-11.8616

>  <SCORE.INTER.CONST>
1

>  <SCORE.INTER.POLAR>
0

>  <SCORE.INTER.ROT>
7

>  <SCORE.INTER.SOLV>
8.73067

>  <SCORE.INTER.VDW>
-19.0846

>  <SCORE.INTER.norm>
-0.43932

>  <SCORE.INTRA>
-8.85023

>  <SCORE.INTRA.DIHEDRAL>
-7.9336

>  <SCORE.INTRA.DIHEDRAL.0>
15.0182

>  <SCORE.INTRA.POLAR>
0

>  <SCORE.INTRA.POLAR.0>
0

>  <SCORE.INTRA.REPUL>
0

>  <SCORE.INTRA.REPUL.0>
0

>  <SCORE.INTRA.SOLV>
-1.50046

>  <SCORE.INTRA.SOLV.lig_0>
-47.9129

>  <SCORE.INTRA.VDW>
-4.13319

>  <SCORE.INTRA.VDW.0>
2.00851

>  <SCORE.INTRA.norm>
-0.327786

>  <SCORE.RESTR>
0

>  <SCORE.RESTR.CAVITY>
0

>  <SCORE.RESTR.norm>
0

>  <SCORE.SYSTEM>
0

>  <SCORE.SYSTEM.CONST>
0

>  <SCORE.SYSTEM.DIHEDRAL>
0

>  <SCORE.SYSTEM.SOLV>
0

>  <SCORE.SYSTEM.norm>
0

>  <SCORE.heavy>
27

>  <SCORE.norm>
-0.767106

>  <RMSD>
14.618

$$$$
ligand
 OpenBabel11021811483D
libRbt.so/2013.1/901 2013/11/27
 27 29  0  0  0  0  0  0  0  0999 V2000
   -8.6940   -2.1571   13.4520 N   0  0  0  0  0  0  0  0  0  0  0  0
   -8.8182   -3.5885   13.1899 C   0  0  2  0  0  0  0  0  0  0  0  0
  -10.0878   -3.9161   12.4084 C   0  0  0  0  0  0  0  0  0  0  0  0
  -10.0353   -4.5031   11.3253 O   0  0  0  0  0  0  0  0  0  0  0  0
   -8.7421   -4.3883   14.4870 C   0  0  0  0  0  0  0  0  0  0  0  0
   -8.7520   -5.8933   14.2682 C   0  0  0  0  0  0  0  0  0  0  0  0
   -8.9811   -6.8520   15.7864 S   0  0  2  0  0  0  0  0  0  0  0  0
   -9.2573   -8.5016   15.0941 C   0  0  0  0  0  0  0  0  0  0  0  0
  -10.6687   -6.3726   16.2455 C   0  0  0  0  0  0  0  0  0  0  0  0
  -10.9391   -6.7930   17.6830 C   0  0  1  0  0  0  0  0  0  0  0  0
  -12.0936   -6.1233   18.1304 O   0  0  0  0  0  0  0  0  0  0  0  0
  -11.2468   -8.2639   17.8917 C   0  0  1  0  0  0  0  0  0  0  0  0
  -10.0881   -8.9722   18.2718 O   0  0  0  0  0  0  0  0  0  0  0  0
  -12.2431   -8.2461   19.0333 C   0  0  1  0  0  0  0  0  0  0  0  0
  -11.5897   -8.6793   20.2008 O   0  0  0  0  0  0  0  0  0  0  0  0
  -12.6891   -6.8006   19.2073 C   0  0  2  0  0  0  0  0  0  0  0  0
  -11.1928   -3.5939   12.8451 O   0  0  0  0  0  0  0  0  0  0  0  0
  -17.3709   -8.5440   20.8855 N   0  0  0  0  0  0  0  0  0  0  0  0
  -16.1164   -8.9013   21.3388 C   0  0  0  0  0  0  0  0  0  0  0  0
  -14.9816   -8.3438   20.7804 N   0  0  0  0  0  0  0  0  0  0  0  0
  -15.0866   -7.4415   19.7761 C   0  0  0  0  0  0  0  0  0  0  0  0
  -16.3408   -7.0634   19.3129 C   0  0  0  0  0  0  0  0  0  0  0  0
  -17.4858   -7.6219   19.8679 C   0  0  0  0  0  0  0  0  0  0  0  0
  -18.6866   -7.2667   19.4175 N   0  0  0  0  0  0  0  0  0  0  0  0
  -16.1626   -6.1575   18.3274 N   0  0  0  0  0  0  0  0  0  0  0  0
  -14.8351   -5.9433   18.1707 C   0  0  0  0  0  0  0  0  0  0  0  0
  -14.1526   -6.7302   19.0605 N   0  0  0  0  0  0  0  0  0  0  0  0
  2  1  1  1  0  0  0
  2  3  1  0  0  0  0
  2  5  1  0  0  0  0
  3  4  1  0  0  0  0
  3 17  1  0  0  0  0
  5  6  1  0  0  0  0
  7  6  1  6  0  0  0
  7  8  1  0  0  0  0
  7  9  1  0  0  0  0
 10  9  1  6  0  0  0
 10 11  1  0  0  0  0
 10 12  1  0  0  0  0
 11 16  1  0  0  0  0
 12 13  1  1  0  0  0
 12 14  1  0  0  0  0
 14 15  1  1  0  0  0
 14 16  1  0  0  0  0
 16 27  1  6  0  0  0
 18 19  2  0  0  0  0
 18 23  1  0  0  0  0
 19 20  1  0  0  0  0
 20 21  2  0  0  0  0
 21 22  1  0  0  0  0
 21 27  1  0  0  0  0
 22 23  2  0  0  0  0
 22 25  1  0  0  0  0
 23 24  1  0  0  0  0
 25 26  2  0  0  0  0
 26 27  1  0  0  0  0
M  END
>  <CHROM.1>
122.59319635,-175.31777468,-168.93744431,169.54219073,-165.79972511,165.03633739
168.72213831,-12.22430612,-6.58297240,17.13411728,0.77861265,0.27909578,-0.85154814

>  <Name>
ligand

>  <RI>
0

>  <Rbt.Current_Directory>
/home/itssahil/PROJECTS/Mol_Feturizer/New_Systems/rnas/3GX6

>  <Rbt.Executable>
rbdock ($Id: //depot/dev/client3/rdock/2013.1/src/exe/rbdock.cxx#4 $)

>  <Rbt.Library>
libRbt.so (2013.1, Build901 2013/11/27)

>  <Rbt.Parameter_File>
/export/apps/rDock/src/rDock_2013.1_src/data/scripts/dock_solv.prm

>  <Rbt.Receptor>
prm/blind_docking_80.prm

>  <SCORE>
-25.4939

>  <SCORE.INTER>
-15.6599

>  <SCORE.INTER.CONST>
1

>  <SCORE.INTER.POLAR>
0

>  <SCORE.INTER.ROT>
7

>  <SCORE.INTER.SOLV>
18.1286

>  <SCORE.INTER.VDW>
-24.7494

>  <SCORE.INTER.norm>
-0.579995

>  <SCORE.INTRA>
-9.83397

>  <SCORE.INTRA.DIHEDRAL>
-9.17737

>  <SCORE.INTRA.DIHEDRAL.0>
15.0182

>  <SCORE.INTRA.POLAR>
0

>  <SCORE.INTRA.POLAR.0>
0

>  <SCORE.INTRA.REPUL>
0

>  <SCORE.INTRA.REPUL.0>
0

>  <SCORE.INTRA.SOLV>
-1.54841

>  <SCORE.INTRA.SOLV.lig_0>
-47.9129

>  <SCORE.INTRA.VDW>
-4.47109

>  <SCORE.INTRA.VDW.0>
2.00851

>  <SCORE.INTRA.norm>
-0.364221

>  <SCORE.RESTR>
0

>  <SCORE.RESTR.CAVITY>
0

>  <SCORE.RESTR.norm>
0

>  <SCORE.SYSTEM>
0

>  <SCORE.SYSTEM.CONST>
0

>  <SCORE.SYSTEM.DIHEDRAL>
0

>  <SCORE.SYSTEM.SOLV>
0

>  <SCORE.SYSTEM.norm>
0

>  <SCORE.heavy>
27

>  <SCORE.norm>
-0.944217

>  <RMSD>
14.627

$$$$
ligand
 OpenBabel11021811483D
libRbt.so/2013.1/901 2013/11/27
 27 29  0  0  0  0  0  0  0  0999 V2000
  -14.4276   -8.2296   21.7667 N   0  0  0  0  0  0  0  0  0  0  0  0
  -13.6452   -7.5638   20.7287 C   0  0  2  0  0  0  0  0  0  0  0  0
  -14.5155   -7.1221   19.5551 C   0  0  0  0  0  0  0  0  0  0  0  0
  -15.6568   -7.5646   19.4065 O   0  0  0  0  0  0  0  0  0  0  0  0
  -12.4926   -8.4487   20.2637 C   0  0  0  0  0  0  0  0  0  0  0  0
  -11.5734   -8.8844   21.3944 C   0  0  0  0  0  0  0  0  0  0  0  0
  -10.0703   -9.7226   20.8338 S   0  0  2  0  0  0  0  0  0  0  0  0
   -9.2566  -10.0330   22.4207 C   0  0  0  0  0  0  0  0  0  0  0  0
   -9.1059   -8.3199   20.2088 C   0  0  0  0  0  0  0  0  0  0  0  0
   -9.6232   -7.9252   18.8330 C   0  0  1  0  0  0  0  0  0  0  0  0
   -8.9323   -6.7724   18.4142 O   0  0  0  0  0  0  0  0  0  0  0  0
   -9.3855   -8.9350   17.7259 C   0  0  1  0  0  0  0  0  0  0  0  0
  -10.5211   -9.7486   17.5337 O   0  0  0  0  0  0  0  0  0  0  0  0
   -9.1599   -8.0612   16.5087 C   0  0  1  0  0  0  0  0  0  0  0  0
  -10.3093   -8.1188   15.7005 O   0  0  0  0  0  0  0  0  0  0  0  0
   -8.9667   -6.6387   17.0164 C   0  0  2  0  0  0  0  0  0  0  0  0
  -14.0897   -6.3155   18.7282 O   0  0  0  0  0  0  0  0  0  0  0  0
   -4.8694   -3.4721   17.9966 N   0  0  0  0  0  0  0  0  0  0  0  0
   -6.0008   -3.6641   18.7649 C   0  0  0  0  0  0  0  0  0  0  0  0
   -6.9894   -4.5385   18.3549 N   0  0  0  0  0  0  0  0  0  0  0  0
   -6.8623   -5.2160   17.1893 C   0  0  0  0  0  0  0  0  0  0  0  0
   -5.7270   -5.0422   16.4073 C   0  0  0  0  0  0  0  0  0  0  0  0
   -4.7304   -4.1626   16.8122 C   0  0  0  0  0  0  0  0  0  0  0  0
   -3.6475   -3.9891   16.0583 N   0  0  0  0  0  0  0  0  0  0  0  0
   -5.8495   -5.8311   15.3181 N   0  0  0  0  0  0  0  0  0  0  0  0
   -7.0193   -6.5073   15.4023 C   0  0  0  0  0  0  0  0  0  0  0  0
   -7.6602   -6.1392   16.5557 N   0  0  0  0  0  0  0  0  0  0  0  0
  2  1  1  1  0  0  0
  2  3  1  0  0  0  0
  2  5  1  0  0  0  0
  3  4  1  0  0  0  0
  3 17  1  0  0  0  0
  5  6  1  0  0  0  0
  7  6  1  1  0  0  0
  7  8  1  0  0  0  0
  7  9  1  0  0  0  0
 10  9  1  1  0  0  0
 10 11  1  0  0  0  0
 10 12  1  0  0  0  0
 11 16  1  0  0  0  0
 12 13  1  6  0  0  0
 12 14  1  0  0  0  0
 14 15  1  6  0  0  0
 14 16  1  0  0  0  0
 16 27  1  6  0  0  0
 18 19  2  0  0  0  0
 18 23  1  0  0  0  0
 19 20  1  0  0  0  0
 20 21  2  0  0  0  0
 21 22  1  0  0  0  0
 21 27  1  0  0  0  0
 22 23  2  0  0  0  0
 22 25  1  0  0  0  0
 23 24  1  0  0  0  0
 25 26  2  0  0  0  0
 26 27  1  0  0  0  0
M  END
>  <CHROM.1>
-15.26729708,-56.24562822,-171.32216797,178.73230379,-78.45259147,175.44916380
-37.53094556,-9.44687299,-7.12129120,18.51488233,-2.54705025,-0.11134711
-0.95816162

>  <Name>
ligand

>  <RI>
0

>  <Rbt.Current_Directory>
/home/itssahil/PROJECTS/Mol_Feturizer/New_Systems/rnas/3GX6

>  <Rbt.Executable>
rbdock ($Id: //depot/dev/client3/rdock/2013.1/src/exe/rbdock.cxx#4 $)

>  <Rbt.Library>
libRbt.so (2013.1, Build901 2013/11/27)

>  <Rbt.Parameter_File>
/export/apps/rDock/src/rDock_2013.1_src/data/scripts/dock_solv.prm

>  <Rbt.Receptor>
prm/blind_docking_100.prm

>  <SCORE>
-15.6817

>  <SCORE.INTER>
-5.48977

>  <SCORE.INTER.CONST>
1

>  <SCORE.INTER.POLAR>
0

>  <SCORE.INTER.ROT>
7

>  <SCORE.INTER.SOLV>
15.3529

>  <SCORE.INTER.VDW>
-17.0442

>  <SCORE.INTER.norm>
-0.203325

>  <SCORE.INTRA>
-10.192

>  <SCORE.INTRA.DIHEDRAL>
-11.0281

>  <SCORE.INTRA.DIHEDRAL.0>
15.0182

>  <SCORE.INTRA.POLAR>
0

>  <SCORE.INTRA.POLAR.0>
0

>  <SCORE.INTRA.REPUL>
0

>  <SCORE.INTRA.REPUL.0>
0

>  <SCORE.INTRA.SOLV>
-0.728697

>  <SCORE.INTRA.SOLV.lig_0>
-47.9129

>  <SCORE.INTRA.VDW>
-4.31359

>  <SCORE.INTRA.VDW.0>
2.00851

>  <SCORE.INTRA.norm>
-0.37748

>  <SCORE.RESTR>
0

>  <SCORE.RESTR.CAVITY>
0

>  <SCORE.RESTR.norm>
0

>  <SCORE.SYSTEM>
0

>  <SCORE.SYSTEM.CONST>
0

>  <SCORE.SYSTEM.DIHEDRAL>
0

>  <SCORE.SYSTEM.SOLV>
0

>  <SCORE.SYSTEM.norm>
0

>  <SCORE.heavy>
27

>  <SCORE.norm>
-0.580805

>  <RMSD>
14.849

$$$$
ligand
 OpenBabel11021811483D
libRbt.so/2013.1/901 2013/11/27
 27 29  0  0  0  0  0  0  0  0999 V2000
   -7.6186    6.2215   22.1482 N   0  0  0  0  0  0  0  0  0  0  0  0
   -8.5717    5.1156   22.1865 C   0  0  2  0  0  0  0  0  0  0  0  0
   -8.3562    4.2203   23.4038 C   0  0  0  0  0  0  0  0  0  0  0  0
   -9.1382    3.3040   23.6669 O   0  0  0  0  0  0  0  0  0  0  0  0
   -8.5256    4.3119   20.8904 C   0  0  0  0  0  0  0  0  0  0  0  0
   -9.0297    5.0869   19.6828 C   0  0  0  0  0  0  0  0  0  0  0  0
   -8.9691    4.1506   18.1349 S   0  0  2  0  0  0  0  0  0  0  0  0
   -9.8050    5.3058   17.0198 C   0  0  0  0  0  0  0  0  0  0  0  0
  -10.2753    2.9259   18.4214 C   0  0  0  0  0  0  0  0  0  0  0  0
   -9.6531    1.5414   18.5325 C   0  0  1  0  0  0  0  0  0  0  0  0
   -8.7135    1.5610   19.5806 O   0  0  0  0  0  0  0  0  0  0  0  0
  -10.6065    0.4187   18.8965 C   0  0  1  0  0  0  0  0  0  0  0  0
  -11.0525   -0.2578   17.7424 O   0  0  0  0  0  0  0  0  0  0  0  0
   -9.7457   -0.5013   19.7384 C   0  0  1  0  0  0  0  0  0  0  0  0
   -9.4199   -1.6329   18.9694 O   0  0  0  0  0  0  0  0  0  0  0  0
   -8.4751    0.2677   20.0741 C   0  0  2  0  0  0  0  0  0  0  0  0
   -7.3954    4.4009   24.1520 O   0  0  0  0  0  0  0  0  0  0  0  0
   -5.7548    2.2276   24.1403 N   0  0  0  0  0  0  0  0  0  0  0  0
   -5.5375    2.4323   22.7920 C   0  0  0  0  0  0  0  0  0  0  0  0
   -6.3523    1.8341   21.8494 N   0  0  0  0  0  0  0  0  0  0  0  0
   -7.3735    1.0340   22.2378 C   0  0  0  0  0  0  0  0  0  0  0  0
   -7.6127    0.8233   23.5902 C   0  0  0  0  0  0  0  0  0  0  0  0
   -6.7958    1.4194   24.5431 C   0  0  0  0  0  0  0  0  0  0  0  0
   -7.0193    1.2098   25.8382 N   0  0  0  0  0  0  0  0  0  0  0  0
   -8.6802    0.0034   23.6991 N   0  0  0  0  0  0  0  0  0  0  0  0
   -9.1280   -0.2923   22.4563 C   0  0  0  0  0  0  0  0  0  0  0  0
   -8.3307    0.3381   21.5379 N   0  0  0  0  0  0  0  0  0  0  0  0
  2  1  1  6  0  0  0
  2  3  1  0  0  0  0
  2  5  1  0  0  0  0
  3  4  1  0  0  0  0
  3 17  1  0  0  0  0
  5  6  1  0  0  0  0
  7  6  1  1  0  0  0
  7  8  1  0  0  0  0
  7  9  1  0  0  0  0
 10  9  1  1  0  0  0
 10 11  1  0  0  0  0
 10 12  1  0  0  0  0
 11 16  1  0  0  0  0
 12 13  1  6  0  0  0
 12 14  1  0  0  0  0
 14 15  1  6  0  0  0
 14 16  1  0  0  0  0
 16 27  1  1  0  0  0
 18 19  2  0  0  0  0
 18 23  1  0  0  0  0
 19 20  1  0  0  0  0
 20 21  2  0  0  0  0
 21 22  1  0  0  0  0
 21 27  1  0  0  0  0
 22 23  2  0  0  0  0
 22 25  1  0  0  0  0
 23 24  1  0  0  0  0
 25 26  2  0  0  0  0
 26 27  1  0  0  0  0
M  END
>  <CHROM.1>
173.62340897,-67.24523468,179.54754983,173.74741678,-112.79040481,57.83163840
-61.52109734,-8.50571464,2.23966221,21.12002682,-0.17727723,-1.13295972,-0.24868922

>  <Name>
ligand

>  <RI>
0

>  <Rbt.Current_Directory>
/home/itssahil/PROJECTS/Mol_Feturizer/New_Systems/rnas/3GX6

>  <Rbt.Executable>
rbdock ($Id: //depot/dev/client3/rdock/2013.1/src/exe/rbdock.cxx#4 $)

>  <Rbt.Library>
libRbt.so (2013.1, Build901 2013/11/27)

>  <Rbt.Parameter_File>
/export/apps/rDock/src/rDock_2013.1_src/data/scripts/dock_solv.prm

>  <Rbt.Receptor>
prm/blind_docking_80.prm

>  <SCORE>
-20.8524

>  <SCORE.INTER>
-9.85256

>  <SCORE.INTER.CONST>
1

>  <SCORE.INTER.POLAR>
0

>  <SCORE.INTER.ROT>
7

>  <SCORE.INTER.SOLV>
11.3505

>  <SCORE.INTER.VDW>
-18.6185

>  <SCORE.INTER.norm>
-0.36491

>  <SCORE.INTRA>
-10.9998

>  <SCORE.INTRA.DIHEDRAL>
-7.92869

>  <SCORE.INTRA.DIHEDRAL.0>
15.0182

>  <SCORE.INTRA.POLAR>
0

>  <SCORE.INTRA.POLAR.0>
0

>  <SCORE.INTRA.REPUL>
0

>  <SCORE.INTRA.REPUL.0>
0

>  <SCORE.INTRA.SOLV>
-0.403974

>  <SCORE.INTRA.SOLV.lig_0>
-47.9129

>  <SCORE.INTRA.VDW>
-6.83349

>  <SCORE.INTRA.VDW.0>
2.00851

>  <SCORE.INTRA.norm>
-0.407401

>  <SCORE.RESTR>
0

>  <SCORE.RESTR.CAVITY>
0

>  <SCORE.RESTR.norm>
0

>  <SCORE.SYSTEM>
0

>  <SCORE.SYSTEM.CONST>
0

>  <SCORE.SYSTEM.DIHEDRAL>
0

>  <SCORE.SYSTEM.SOLV>
0

>  <SCORE.SYSTEM.norm>
0

>  <SCORE.heavy>
27

>  <SCORE.norm>
-0.77231

>  <RMSD>
14.923

$$$$
ligand
 OpenBabel11021811483D
libRbt.so/2013.1/901 2013/11/27
 27 29  0  0  0  0  0  0  0  0999 V2000
   -9.0996    1.4395   14.4555 N   0  0  0  0  0  0  0  0  0  0  0  0
   -9.1450    1.2922   15.9077 C   0  0  2  0  0  0  0  0  0  0  0  0
   -7.7504    1.3272   16.5273 C   0  0  0  0  0  0  0  0  0  0  0  0
   -6.8611    0.5671   16.1378 O   0  0  0  0  0  0  0  0  0  0  0  0
   -9.8972    0.0250   16.3033 C   0  0  0  0  0  0  0  0  0  0  0  0
  -10.1754   -0.0695   17.7955 C   0  0  0  0  0  0  0  0  0  0  0  0
   -8.7037   -0.4042   18.7946 S   0  0  2  0  0  0  0  0  0  0  0  0
   -8.5340   -2.1884   18.5413 C   0  0  0  0  0  0  0  0  0  0  0  0
   -9.4023   -0.3481   20.4671 C   0  0  0  0  0  0  0  0  0  0  0  0
   -8.2944   -0.0492   21.4668 C   0  0  1  0  0  0  0  0  0  0  0  0
   -7.7867    1.2351   21.1944 O   0  0  0  0  0  0  0  0  0  0  0  0
   -8.7195    0.0099   22.9221 C   0  0  1  0  0  0  0  0  0  0  0  0
   -8.4881   -1.2236   23.5652 O   0  0  0  0  0  0  0  0  0  0  0  0
   -7.8114    1.0762   23.5004 C   0  0  1  0  0  0  0  0  0  0  0  0
   -6.8260    0.4458   24.2810 O   0  0  0  0  0  0  0  0  0  0  0  0
   -7.1524    1.7810   22.3225 C   0  0  2  0  0  0  0  0  0  0  0  0
   -7.4882    2.1157   17.4357 O   0  0  0  0  0  0  0  0  0  0  0  0
   -5.7515    6.6583   20.8994 N   0  0  0  0  0  0  0  0  0  0  0  0
   -5.1248    5.4673   20.5898 C   0  0  0  0  0  0  0  0  0  0  0  0
   -5.6292    4.2663   21.0515 N   0  0  0  0  0  0  0  0  0  0  0  0
   -6.7446    4.2433   21.8191 C   0  0  0  0  0  0  0  0  0  0  0  0
   -7.3936    5.4308   22.1338 C   0  0  0  0  0  0  0  0  0  0  0  0
   -6.8904    6.6422   21.6751 C   0  0  0  0  0  0  0  0  0  0  0  0
   -7.5068    7.7804   21.9845 N   0  0  0  0  0  0  0  0  0  0  0  0
   -8.4679    5.1271   22.8935 N   0  0  0  0  0  0  0  0  0  0  0  0
   -8.5217    3.7835   23.0502 C   0  0  0  0  0  0  0  0  0  0  0  0
   -7.4619    3.2191   22.3908 N   0  0  0  0  0  0  0  0  0  0  0  0
  2  1  1  6  0  0  0
  2  3  1  0  0  0  0
  2  5  1  0  0  0  0
  3  4  1  0  0  0  0
  3 17  1  0  0  0  0
  5  6  1  0  0  0  0
  7  6  1  6  0  0  0
  7  8  1  0  0  0  0
  7  9  1  0  0  0  0
 10  9  1  6  0  0  0
 10 11  1  0  0  0  0
 10 12  1  0  0  0  0
 11 16  1  0  0  0  0
 12 13  1  1  0  0  0
 12 14  1  0  0  0  0
 14 15  1  1  0  0  0
 14 16  1  0  0  0  0
 16 27  1  1  0  0  0
 18 19  2  0  0  0  0
 18 23  1  0  0  0  0
 19 20  1  0  0  0  0
 20 21  2  0  0  0  0
 21 22  1  0  0  0  0
 21 27  1  0  0  0  0
 22 23  2  0  0  0  0
 22 25  1  0  0  0  0
 23 24  1  0  0  0  0
 25 26  2  0  0  0  0
 26 27  1  0  0  0  0
M  END
>  <CHROM.1>
-53.99858798,-170.61653203,-71.65387673,-79.32958557,-157.40742128,63.93622451
-89.89003833,-7.88999170,1.98392026,20.27097715,-2.61673199,1.28138062,1.83552621

>  <Name>
ligand

>  <RI>
0

>  <Rbt.Current_Directory>
/home/itssahil/PROJECTS/Mol_Feturizer/New_Systems/rnas/3GX6

>  <Rbt.Executable>
rbdock ($Id: //depot/dev/client3/rdock/2013.1/src/exe/rbdock.cxx#4 $)

>  <Rbt.Library>
libRbt.so (2013.1, Build901 2013/11/27)

>  <Rbt.Parameter_File>
/export/apps/rDock/src/rDock_2013.1_src/data/scripts/dock_solv.prm

>  <Rbt.Receptor>
prm/blind_docking_80.prm

>  <SCORE>
-20.1668

>  <SCORE.INTER>
-10.6804

>  <SCORE.INTER.CONST>
1

>  <SCORE.INTER.POLAR>
0

>  <SCORE.INTER.ROT>
7

>  <SCORE.INTER.SOLV>
10.8581

>  <SCORE.INTER.VDW>
-19.0063

>  <SCORE.INTER.norm>
-0.395569

>  <SCORE.INTRA>
-9.48648

>  <SCORE.INTRA.DIHEDRAL>
-8.29221

>  <SCORE.INTRA.DIHEDRAL.0>
15.0182

>  <SCORE.INTRA.POLAR>
0

>  <SCORE.INTRA.POLAR.0>
0

>  <SCORE.INTRA.REPUL>
0

>  <SCORE.INTRA.REPUL.0>
0

>  <SCORE.INTRA.SOLV>
-1.737

>  <SCORE.INTRA.SOLV.lig_0>
-47.9129

>  <SCORE.INTRA.VDW>
-4.47188

>  <SCORE.INTRA.VDW.0>
2.00851

>  <SCORE.INTRA.norm>
-0.351351

>  <SCORE.RESTR>
0

>  <SCORE.RESTR.CAVITY>
0

>  <SCORE.RESTR.norm>
0

>  <SCORE.SYSTEM>
0

>  <SCORE.SYSTEM.CONST>
0

>  <SCORE.SYSTEM.DIHEDRAL>
0

>  <SCORE.SYSTEM.SOLV>
0

>  <SCORE.SYSTEM.norm>
0

>  <SCORE.heavy>
27

>  <SCORE.norm>
-0.74692

>  <RMSD>
15.061

$$$$
ligand
 OpenBabel11021811483D
libRbt.so/2013.1/901 2013/11/27
 27 29  0  0  0  0  0  0  0  0999 V2000
   -7.4131   -2.4916   18.9904 N   0  0  0  0  0  0  0  0  0  0  0  0
   -6.5019   -3.2617   18.1481 C   0  0  2  0  0  0  0  0  0  0  0  0
   -5.5019   -2.3649   17.4229 C   0  0  0  0  0  0  0  0  0  0  0  0
   -5.7955   -1.2101   17.1055 O   0  0  0  0  0  0  0  0  0  0  0  0
   -7.2759   -4.1375   17.1674 C   0  0  0  0  0  0  0  0  0  0  0  0
   -6.4106   -5.1832   16.4811 C   0  0  0  0  0  0  0  0  0  0  0  0
   -7.0967   -5.7909   14.9202 S   0  0  2  0  0  0  0  0  0  0  0  0
   -7.3262   -4.2300   14.0329 C   0  0  0  0  0  0  0  0  0  0  0  0
   -8.7990   -6.1706   15.4165 C   0  0  0  0  0  0  0  0  0  0  0  0
   -8.8622   -7.5928   15.9548 C   0  0  1  0  0  0  0  0  0  0  0  0
   -9.0216   -7.5307   17.3521 O   0  0  0  0  0  0  0  0  0  0  0  0
  -10.0350   -8.4268   15.4744 C   0  0  1  0  0  0  0  0  0  0  0  0
   -9.6649   -9.2318   14.3772 O   0  0  0  0  0  0  0  0  0  0  0  0
  -10.3503   -9.2966   16.6744 C   0  0  1  0  0  0  0  0  0  0  0  0
   -9.8946  -10.6007   16.4107 O   0  0  0  0  0  0  0  0  0  0  0  0
   -9.5800   -8.7180   17.8535 C   0  0  2  0  0  0  0  0  0  0  0  0
   -4.3799   -2.7821   17.1356 O   0  0  0  0  0  0  0  0  0  0  0  0
  -11.3681   -9.8659   22.6764 N   0  0  0  0  0  0  0  0  0  0  0  0
  -10.3621  -10.4940   21.9689 C   0  0  0  0  0  0  0  0  0  0  0  0
  -10.0179  -10.0621   20.7020 N   0  0  0  0  0  0  0  0  0  0  0  0
  -10.6681   -9.0178   20.1357 C   0  0  0  0  0  0  0  0  0  0  0  0
  -11.6772   -8.3682   20.8358 C   0  0  0  0  0  0  0  0  0  0  0  0
  -12.0302   -8.7988   22.1090 C   0  0  0  0  0  0  0  0  0  0  0  0
  -13.0032   -8.1825   22.7756 N   0  0  0  0  0  0  0  0  0  0  0  0
  -12.1474   -7.3714   20.0554 N   0  0  0  0  0  0  0  0  0  0  0  0
  -11.4516   -7.3656   18.8941 C   0  0  0  0  0  0  0  0  0  0  0  0
  -10.5302   -8.3788   18.9262 N   0  0  0  0  0  0  0  0  0  0  0  0
  2  1  1  6  0  0  0
  2  3  1  0  0  0  0
  2  5  1  0  0  0  0
  3  4  1  0  0  0  0
  3 17  1  0  0  0  0
  5  6  1  0  0  0  0
  7  6  1  1  0  0  0
  7  8  1  0  0  0  0
  7  9  1  0  0  0  0
 10  9  1  6  0  0  0
 10 11  1  0  0  0  0
 10 12  1  0  0  0  0
 11 16  1  0  0  0  0
 12 13  1  6  0  0  0
 12 14  1  0  0  0  0
 14 15  1  6  0  0  0
 14 16  1  0  0  0  0
 16 27  1  1  0  0  0
 18 19  2  0  0  0  0
 18 23  1  0  0  0  0
 19 20  1  0  0  0  0
 20 21  2  0  0  0  0
 21 22  1  0  0  0  0
 21 27  1  0  0  0  0
 22 23  2  0  0  0  0
 22 25  1  0  0  0  0
 23 24  1  0  0  0  0
 25 26  2  0  0  0  0
 26 27  1  0  0  0  0
M  END
>  <CHROM.1>
-30.21853599,-167.19492841,-158.08574548,54.90757092,-87.61574845,107.17189850
-136.93636145,-8.98476274,-6.81509964,17.89796497,-0.13372035,0.95092830
1.08877122

>  <Name>
ligand

>  <RI>
0

>  <Rbt.Current_Directory>
/home/itssahil/PROJECTS/Mol_Feturizer/New_Systems/rnas/3GX6

>  <Rbt.Executable>
rbdock ($Id: //depot/dev/client3/rdock/2013.1/src/exe/rbdock.cxx#4 $)

>  <Rbt.Library>
libRbt.so (2013.1, Build901 2013/11/27)

>  <Rbt.Parameter_File>
/export/apps/rDock/src/rDock_2013.1_src/data/scripts/dock_solv.prm

>  <Rbt.Receptor>
prm/blind_docking_60.prm

>  <SCORE>
-16.8722

>  <SCORE.INTER>
-10.2962

>  <SCORE.INTER.CONST>
1

>  <SCORE.INTER.POLAR>
0

>  <SCORE.INTER.ROT>
7

>  <SCORE.INTER.SOLV>
10.6869

>  <SCORE.INTER.VDW>
-18.6931

>  <SCORE.INTER.norm>
-0.38134

>  <SCORE.INTRA>
-6.57712

>  <SCORE.INTRA.DIHEDRAL>
-3.92979

>  <SCORE.INTRA.DIHEDRAL.0>
15.0182

>  <SCORE.INTRA.POLAR>
0

>  <SCORE.INTRA.POLAR.0>
0

>  <SCORE.INTRA.REPUL>
0

>  <SCORE.INTRA.REPUL.0>
0

>  <SCORE.INTRA.SOLV>
-1.81719

>  <SCORE.INTRA.SOLV.lig_0>
-47.9129

>  <SCORE.INTRA.VDW>
-3.70364

>  <SCORE.INTRA.VDW.0>
2.00851

>  <SCORE.INTRA.norm>
-0.243597

>  <SCORE.RESTR>
0.00106746

>  <SCORE.RESTR.CAVITY>
0.00106746

>  <SCORE.RESTR.norm>
3.95355e-05

>  <SCORE.SYSTEM>
0

>  <SCORE.SYSTEM.CONST>
0

>  <SCORE.SYSTEM.DIHEDRAL>
0

>  <SCORE.SYSTEM.SOLV>
0

>  <SCORE.SYSTEM.norm>
0

>  <SCORE.heavy>
27

>  <SCORE.norm>
-0.624898

>  <RMSD>
15.068

$$$$
ligand
 OpenBabel11021811483D
libRbt.so/2013.1/901 2013/11/27
 27 29  0  0  0  0  0  0  0  0999 V2000
   -9.8512   -7.7917   15.2990 N   0  0  0  0  0  0  0  0  0  0  0  0
   -9.5400   -8.4700   16.5544 C   0  0  2  0  0  0  0  0  0  0  0  0
  -10.3090   -9.7806   16.6992 C   0  0  0  0  0  0  0  0  0  0  0  0
  -11.4762   -9.7936   17.0963 O   0  0  0  0  0  0  0  0  0  0  0  0
   -9.7829   -7.5486   17.7460 C   0  0  0  0  0  0  0  0  0  0  0  0
   -9.0283   -7.9703   18.9973 C   0  0  0  0  0  0  0  0  0  0  0  0
   -9.6942   -9.4565   19.7875 S   0  0  2  0  0  0  0  0  0  0  0  0
  -11.2171   -8.7919   20.5056 C   0  0  0  0  0  0  0  0  0  0  0  0
   -8.6323   -9.5730   21.2528 C   0  0  0  0  0  0  0  0  0  0  0  0
   -8.9384  -10.8653   21.9961 C   0  0  1  0  0  0  0  0  0  0  0  0
   -8.7442  -11.9422   21.1105 O   0  0  0  0  0  0  0  0  0  0  0  0
   -8.0367  -11.1752   23.1763 C   0  0  1  0  0  0  0  0  0  0  0  0
   -8.6255  -10.7509   24.3854 O   0  0  0  0  0  0  0  0  0  0  0  0
   -7.9421  -12.6872   23.1465 C   0  0  1  0  0  0  0  0  0  0  0  0
   -8.7313  -13.2030   24.1901 O   0  0  0  0  0  0  0  0  0  0  0  0
   -8.5113  -13.1388   21.8084 C   0  0  2  0  0  0  0  0  0  0  0  0
   -9.7733  -10.8547   16.4255 O   0  0  0  0  0  0  0  0  0  0  0  0
   -7.4570  -16.3709   17.7814 N   0  0  0  0  0  0  0  0  0  0  0  0
   -8.6721  -15.8174   18.1339 C   0  0  0  0  0  0  0  0  0  0  0  0
   -8.7733  -14.9842   19.2320 N   0  0  0  0  0  0  0  0  0  0  0  0
   -7.6799  -14.7037   19.9802 C   0  0  0  0  0  0  0  0  0  0  0  0
   -6.4474  -15.2446   19.6357 C   0  0  0  0  0  0  0  0  0  0  0  0
   -6.3389  -16.0852   18.5345 C   0  0  0  0  0  0  0  0  0  0  0  0
   -5.1601  -16.6108   18.2103 N   0  0  0  0  0  0  0  0  0  0  0  0
   -5.5370  -14.8040   20.5305 N   0  0  0  0  0  0  0  0  0  0  0  0
   -6.1583  -13.9894   21.4153 C   0  0  0  0  0  0  0  0  0  0  0  0
   -7.4868  -13.9149   21.0896 N   0  0  0  0  0  0  0  0  0  0  0  0
  2  1  1  6  0  0  0
  2  3  1  0  0  0  0
  2  5  1  0  0  0  0
  3  4  1  0  0  0  0
  3 17  1  0  0  0  0
  5  6  1  0  0  0  0
  7  6  1  6  0  0  0
  7  8  1  0  0  0  0
  7  9  1  0  0  0  0
 10  9  1  6  0  0  0
 10 11  1  0  0  0  0
 10 12  1  0  0  0  0
 11 16  1  0  0  0  0
 12 13  1  1  0  0  0
 12 14  1  0  0  0  0
 14 15  1  1  0  0  0
 14 16  1  0  0  0  0
 16 27  1  6  0  0  0
 18 19  2  0  0  0  0
 18 23  1  0  0  0  0
 19 20  1  0  0  0  0
 20 21  2  0  0  0  0
 21 22  1  0  0  0  0
 21 27  1  0  0  0  0
 22 23  2  0  0  0  0
 22 25  1  0  0  0  0
 23 24  1  0  0  0  0
 25 26  2  0  0  0  0
 26 27  1  0  0  0  0
M  END
>  <CHROM.1>
-81.85291178,-158.92912847,-72.21570954,-72.79132882,-174.09713524,57.39085281
-80.27704498,-8.57936794,-11.87853830,19.83006146,-2.98655179,-1.13527924
1.38539181

>  <Name>
ligand

>  <RI>
0

>  <Rbt.Current_Directory>
/home/itssahil/PROJECTS/Mol_Feturizer/New_Systems/rnas/3GX6

>  <Rbt.Executable>
rbdock ($Id: //depot/dev/client3/rdock/2013.1/src/exe/rbdock.cxx#4 $)

>  <Rbt.Library>
libRbt.so (2013.1, Build901 2013/11/27)

>  <Rbt.Parameter_File>
/export/apps/rDock/src/rDock_2013.1_src/data/scripts/dock_solv.prm

>  <Rbt.Receptor>
prm/blind_docking_80.prm

>  <SCORE>
-21.8239

>  <SCORE.INTER>
-12.2592

>  <SCORE.INTER.CONST>
1

>  <SCORE.INTER.POLAR>
0

>  <SCORE.INTER.ROT>
7

>  <SCORE.INTER.SOLV>
20.2747

>  <SCORE.INTER.VDW>
-23.1977

>  <SCORE.INTER.norm>
-0.454044

>  <SCORE.INTRA>
-9.56473

>  <SCORE.INTRA.DIHEDRAL>
-9.06475

>  <SCORE.INTRA.DIHEDRAL.0>
15.0182

>  <SCORE.INTRA.POLAR>
0

>  <SCORE.INTRA.POLAR.0>
0

>  <SCORE.INTRA.REPUL>
0

>  <SCORE.INTRA.REPUL.0>
0

>  <SCORE.INTRA.SOLV>
-1.70766

>  <SCORE.INTRA.SOLV.lig_0>
-47.9129

>  <SCORE.INTRA.VDW>
-4.17852

>  <SCORE.INTRA.VDW.0>
2.00851

>  <SCORE.INTRA.norm>
-0.354249

>  <SCORE.RESTR>
0

>  <SCORE.RESTR.CAVITY>
0

>  <SCORE.RESTR.norm>
0

>  <SCORE.SYSTEM>
0

>  <SCORE.SYSTEM.CONST>
0

>  <SCORE.SYSTEM.DIHEDRAL>
0

>  <SCORE.SYSTEM.SOLV>
0

>  <SCORE.SYSTEM.norm>
0

>  <SCORE.heavy>
27

>  <SCORE.norm>
-0.808293

>  <RMSD>
15.135

$$$$
ligand
 OpenBabel11021811483D
libRbt.so/2013.1/901 2013/11/27
 27 29  0  0  0  0  0  0  0  0999 V2000
   -5.6749    4.3400   21.3894 N   0  0  0  0  0  0  0  0  0  0  0  0
   -6.6158    5.0850   20.5572 C   0  0  2  0  0  0  0  0  0  0  0  0
   -6.4429    6.5936   20.7133 C   0  0  0  0  0  0  0  0  0  0  0  0
   -7.4082    7.3246   20.9460 O   0  0  0  0  0  0  0  0  0  0  0  0
   -8.0523    4.6578   20.8431 C   0  0  0  0  0  0  0  0  0  0  0  0
   -9.0318    5.0722   19.7560 C   0  0  0  0  0  0  0  0  0  0  0  0
   -8.8141    4.1803   18.1960 S   0  0  2  0  0  0  0  0  0  0  0  0
   -9.7862    5.2250   17.0824 C   0  0  0  0  0  0  0  0  0  0  0  0
   -9.9388    2.7790   18.4402 C   0  0  0  0  0  0  0  0  0  0  0  0
   -9.1377    1.5576   18.8675 C   0  0  1  0  0  0  0  0  0  0  0  0
   -8.3344    1.9172   19.9662 O   0  0  0  0  0  0  0  0  0  0  0  0
   -9.9517    0.3763   19.3612 C   0  0  1  0  0  0  0  0  0  0  0  0
  -10.1622   -0.5584   18.3264 O   0  0  0  0  0  0  0  0  0  0  0  0
   -9.0656   -0.2255   20.4330 C   0  0  1  0  0  0  0  0  0  0  0  0
   -8.4942   -1.4064   19.9265 O   0  0  0  0  0  0  0  0  0  0  0  0
   -7.9665    0.7891   20.7179 C   0  0  2  0  0  0  0  0  0  0  0  0
   -5.3313    7.1113   20.6039 O   0  0  0  0  0  0  0  0  0  0  0  0
   -5.5706    0.4208   25.3976 N   0  0  0  0  0  0  0  0  0  0  0  0
   -5.1627   -0.1057   24.1879 C   0  0  0  0  0  0  0  0  0  0  0  0
   -5.9190    0.0852   23.0469 N   0  0  0  0  0  0  0  0  0  0  0  0
   -7.0747    0.7888   23.1027 C   0  0  0  0  0  0  0  0  0  0  0  0
   -7.4967    1.3333   24.3093 C   0  0  0  0  0  0  0  0  0  0  0  0
   -6.7426    1.1430   25.4609 C   0  0  0  0  0  0  0  0  0  0  0  0
   -7.1518    1.6565   26.6184 N   0  0  0  0  0  0  0  0  0  0  0  0
   -8.6590    1.9835   24.0864 N   0  0  0  0  0  0  0  0  0  0  0  0
   -8.9696    1.8778   22.7730 C   0  0  0  0  0  0  0  0  0  0  0  0
   -7.9987    1.1411   22.1474 N   0  0  0  0  0  0  0  0  0  0  0  0
  2  1  1  1  0  0  0
  2  3  1  0  0  0  0
  2  5  1  0  0  0  0
  3  4  1  0  0  0  0
  3 17  1  0  0  0  0
  5  6  1  0  0  0  0
  7  6  1  1  0  0  0
  7  8  1  0  0  0  0
  7  9  1  0  0  0  0
 10  9  1  1  0  0  0
 10 11  1  0  0  0  0
 10 12  1  0  0  0  0
 11 16  1  0  0  0  0
 12 13  1  6  0  0  0
 12 14  1  0  0  0  0
 14 15  1  6  0  0  0
 14 16  1  0  0  0  0
 16 27  1  1  0  0  0
 18 19  2  0  0  0  0
 18 23  1  0  0  0  0
 19 20  1  0  0  0  0
 20 21  2  0  0  0  0
 21 22  1  0  0  0  0
 21 27  1  0  0  0  0
 22 23  2  0  0  0  0
 22 25  1  0  0  0  0
 23 24  1  0  0  0  0
 25 26  2  0  0  0  0
 26 27  1  0  0  0  0
M  END
>  <CHROM.1>
-129.61465194,-162.91372019,69.29400950,-165.20150656,-99.55562753,52.07053673
-137.69896834,-7.88438639,2.53987296,21.13955737,-2.02874234,1.02543484,2.63349612

>  <Name>
ligand

>  <RI>
0

>  <Rbt.Current_Directory>
/home/itssahil/PROJECTS/Mol_Feturizer/New_Systems/rnas/3GX6

>  <Rbt.Executable>
rbdock ($Id: //depot/dev/client3/rdock/2013.1/src/exe/rbdock.cxx#4 $)

>  <Rbt.Library>
libRbt.so (2013.1, Build901 2013/11/27)

>  <Rbt.Parameter_File>
/export/apps/rDock/src/rDock_2013.1_src/data/scripts/dock_solv.prm

>  <Rbt.Receptor>
prm/blind_docking_100.prm

>  <SCORE>
-17.8525

>  <SCORE.INTER>
-9.31239

>  <SCORE.INTER.CONST>
1

>  <SCORE.INTER.POLAR>
0

>  <SCORE.INTER.ROT>
7

>  <SCORE.INTER.SOLV>
12.17

>  <SCORE.INTER.VDW>
-18.5316

>  <SCORE.INTER.norm>
-0.344903

>  <SCORE.INTRA>
-8.54014

>  <SCORE.INTRA.DIHEDRAL>
-6.59337

>  <SCORE.INTRA.DIHEDRAL.0>
15.0182

>  <SCORE.INTRA.POLAR>
0

>  <SCORE.INTRA.POLAR.0>
0

>  <SCORE.INTRA.REPUL>
0

>  <SCORE.INTRA.REPUL.0>
0

>  <SCORE.INTRA.SOLV>
-0.860082

>  <SCORE.INTRA.SOLV.lig_0>
-47.9129

>  <SCORE.INTRA.VDW>
-4.81341

>  <SCORE.INTRA.VDW.0>
2.00851

>  <SCORE.INTRA.norm>
-0.316301

>  <SCORE.RESTR>
0

>  <SCORE.RESTR.CAVITY>
0

>  <SCORE.RESTR.norm>
0

>  <SCORE.SYSTEM>
0

>  <SCORE.SYSTEM.CONST>
0

>  <SCORE.SYSTEM.DIHEDRAL>
0

>  <SCORE.SYSTEM.SOLV>
0

>  <SCORE.SYSTEM.norm>
0

>  <SCORE.heavy>
27

>  <SCORE.norm>
-0.661205

>  <RMSD>
15.210

$$$$
ligand
 OpenBabel11021811483D
libRbt.so/2013.1/901 2013/11/27
 27 29  0  0  0  0  0  0  0  0999 V2000
   -6.8404   -4.3354   13.0831 N   0  0  0  0  0  0  0  0  0  0  0  0
   -6.5910   -5.6557   12.5110 C   0  0  2  0  0  0  0  0  0  0  0  0
   -7.5377   -5.9628   11.3537 C   0  0  0  0  0  0  0  0  0  0  0  0
   -8.6876   -5.5180   11.3363 O   0  0  0  0  0  0  0  0  0  0  0  0
   -6.6583   -6.7365   13.5859 C   0  0  0  0  0  0  0  0  0  0  0  0
   -7.9849   -6.7652   14.3291 C   0  0  0  0  0  0  0  0  0  0  0  0
   -8.1622   -5.4510   15.5611 S   0  0  2  0  0  0  0  0  0  0  0  0
   -7.1205   -6.1041   16.8896 C   0  0  0  0  0  0  0  0  0  0  0  0
   -9.8205   -5.8032   16.2047 C   0  0  0  0  0  0  0  0  0  0  0  0
   -9.9638   -7.3003   16.4376 C   0  0  1  0  0  0  0  0  0  0  0  0
   -9.4963   -7.5937   17.7326 O   0  0  0  0  0  0  0  0  0  0  0  0
  -11.3826   -7.8372   16.4140 C   0  0  1  0  0  0  0  0  0  0  0  0
  -11.7031   -8.3587   15.1436 O   0  0  0  0  0  0  0  0  0  0  0  0
  -11.3432   -8.9525   17.4390 C   0  0  1  0  0  0  0  0  0  0  0  0
  -11.3454  -10.1829   16.7579 O   0  0  0  0  0  0  0  0  0  0  0  0
  -10.0376   -8.7997   18.2075 C   0  0  2  0  0  0  0  0  0  0  0  0
   -7.1702   -6.6682   10.4140 O   0  0  0  0  0  0  0  0  0  0  0  0
  -13.3950   -6.9631   21.8310 N   0  0  0  0  0  0  0  0  0  0  0  0
  -13.4992   -6.8857   20.4561 C   0  0  0  0  0  0  0  0  0  0  0  0
  -12.5176   -7.4231   19.6450 N   0  0  0  0  0  0  0  0  0  0  0  0
  -11.4366   -8.0295   20.1905 C   0  0  0  0  0  0  0  0  0  0  0  0
  -11.3189   -8.1244   21.5716 C   0  0  0  0  0  0  0  0  0  0  0  0
  -12.3007   -7.5840   22.3931 C   0  0  0  0  0  0  0  0  0  0  0  0
  -12.1831   -7.6666   23.7161 N   0  0  0  0  0  0  0  0  0  0  0  0
  -10.1669   -8.7738   21.8456 N   0  0  0  0  0  0  0  0  0  0  0  0
   -9.5675   -9.1041   20.6776 C   0  0  0  0  0  0  0  0  0  0  0  0
  -10.3403   -8.6513   19.6410 N   0  0  0  0  0  0  0  0  0  0  0  0
  2  1  1  1  0  0  0
  2  3  1  0  0  0  0
  2  5  1  0  0  0  0
  3  4  1  0  0  0  0
  3 17  1  0  0  0  0
  5  6  1  0  0  0  0
  7  6  1  6  0  0  0
  7  8  1  0  0  0  0
  7  9  1  0  0  0  0
 10  9  1  1  0  0  0
 10 11  1  0  0  0  0
 10 12  1  0  0  0  0
 11 16  1  0  0  0  0
 12 13  1  6  0  0  0
 12 14  1  0  0  0  0
 14 15  1  6  0  0  0
 14 16  1  0  0  0  0
 16 27  1  1  0  0  0
 18 19  2  0  0  0  0
 18 23  1  0  0  0  0
 19 20  1  0  0  0  0
 20 21  2  0  0  0  0
 21 22  1  0  0  0  0
 21 27  1  0  0  0  0
 22 23  2  0  0  0  0
 22 25  1  0  0  0  0
 23 24  1  0  0  0  0
 25 26  2  0  0  0  0
 26 27  1  0  0  0  0
M  END
>  <CHROM.1>
-32.17049755,57.19267392,-76.88001700,-76.51276291,44.21758348,87.37457490
79.47767491,-9.82050973,-7.21035647,17.02702426,-1.01469610,0.60031721,1.47190707

>  <Name>
ligand

>  <RI>
0

>  <Rbt.Current_Directory>
/home/itssahil/PROJECTS/Mol_Feturizer/New_Systems/rnas/3GX6

>  <Rbt.Executable>
rbdock ($Id: //depot/dev/client3/rdock/2013.1/src/exe/rbdock.cxx#4 $)

>  <Rbt.Library>
libRbt.so (2013.1, Build901 2013/11/27)

>  <Rbt.Parameter_File>
/export/apps/rDock/src/rDock_2013.1_src/data/scripts/dock_solv.prm

>  <Rbt.Receptor>
prm/blind_docking_60.prm

>  <SCORE>
-19.2921

>  <SCORE.INTER>
-12.4281

>  <SCORE.INTER.CONST>
1

>  <SCORE.INTER.POLAR>
0

>  <SCORE.INTER.ROT>
7

>  <SCORE.INTER.SOLV>
12.8619

>  <SCORE.INTER.VDW>
-20.8394

>  <SCORE.INTER.norm>
-0.460301

>  <SCORE.INTRA>
-6.86399

>  <SCORE.INTRA.DIHEDRAL>
-8.16249

>  <SCORE.INTRA.DIHEDRAL.0>
15.0182

>  <SCORE.INTRA.POLAR>
0

>  <SCORE.INTRA.POLAR.0>
0

>  <SCORE.INTRA.REPUL>
0

>  <SCORE.INTRA.REPUL.0>
0

>  <SCORE.INTRA.SOLV>
0.756065

>  <SCORE.INTRA.SOLV.lig_0>
-47.9129

>  <SCORE.INTRA.VDW>
-3.16078

>  <SCORE.INTRA.VDW.0>
2.00851

>  <SCORE.INTRA.norm>
-0.254222

>  <SCORE.RESTR>
0

>  <SCORE.RESTR.CAVITY>
0

>  <SCORE.RESTR.norm>
0

>  <SCORE.SYSTEM>
0

>  <SCORE.SYSTEM.CONST>
0

>  <SCORE.SYSTEM.DIHEDRAL>
0

>  <SCORE.SYSTEM.SOLV>
0

>  <SCORE.SYSTEM.norm>
0

>  <SCORE.heavy>
27

>  <SCORE.norm>
-0.714523

>  <RMSD>
15.262

$$$$
ligand
 OpenBabel11021811483D
libRbt.so/2013.1/901 2013/11/27
 27 29  0  0  0  0  0  0  0  0999 V2000
   -7.0277    3.3524   24.4561 N   0  0  0  0  0  0  0  0  0  0  0  0
   -8.0718    2.4499   24.9338 C   0  0  2  0  0  0  0  0  0  0  0  0
   -7.5481    1.4833   25.9928 C   0  0  0  0  0  0  0  0  0  0  0  0
   -8.2106    1.2211   26.9991 O   0  0  0  0  0  0  0  0  0  0  0  0
   -8.7197    1.7031   23.7717 C   0  0  0  0  0  0  0  0  0  0  0  0
   -7.7957    0.6871   23.1185 C   0  0  0  0  0  0  0  0  0  0  0  0
   -8.4237    0.0256   21.5550 S   0  0  2  0  0  0  0  0  0  0  0  0
   -7.0714   -1.0898   21.1038 C   0  0  0  0  0  0  0  0  0  0  0  0
   -8.1173    1.4235   20.4414 C   0  0  0  0  0  0  0  0  0  0  0  0
   -8.7179    1.1217   19.0759 C   0  0  1  0  0  0  0  0  0  0  0  0
   -8.0652   -0.0069   18.5448 O   0  0  0  0  0  0  0  0  0  0  0  0
  -10.1884    0.7485   19.0716 C   0  0  1  0  0  0  0  0  0  0  0  0
  -10.9926    1.8718   18.7882 O   0  0  0  0  0  0  0  0  0  0  0  0
  -10.2828   -0.2567   17.9417 C   0  0  1  0  0  0  0  0  0  0  0  0
  -10.9000    0.3663   16.8423 O   0  0  0  0  0  0  0  0  0  0  0  0
   -8.8563   -0.6412   17.5728 C   0  0  2  0  0  0  0  0  0  0  0  0
   -6.4465    0.9492   25.8634 O   0  0  0  0  0  0  0  0  0  0  0  0
   -7.5631   -5.1782   15.2236 N   0  0  0  0  0  0  0  0  0  0  0  0
   -7.5722   -3.9092   14.6791 C   0  0  0  0  0  0  0  0  0  0  0  0
   -7.9441   -2.8188   15.4426 N   0  0  0  0  0  0  0  0  0  0  0  0
   -8.3096   -2.9829   16.7362 C   0  0  0  0  0  0  0  0  0  0  0  0
   -8.2983   -4.2511   17.3037 C   0  0  0  0  0  0  0  0  0  0  0  0
   -7.9281   -5.3521   16.5410 C   0  0  0  0  0  0  0  0  0  0  0  0
   -7.9266   -6.5680   17.0821 N   0  0  0  0  0  0  0  0  0  0  0  0
   -8.6930   -4.1330   18.5897 N   0  0  0  0  0  0  0  0  0  0  0  0
   -8.9346   -2.8267   18.8505 C   0  0  0  0  0  0  0  0  0  0  0  0
   -8.7018   -2.0989   17.7135 N   0  0  0  0  0  0  0  0  0  0  0  0
  2  1  1  6  0  0  0
  2  3  1  0  0  0  0
  2  5  1  0  0  0  0
  3  4  1  0  0  0  0
  3 17  1  0  0  0  0
  5  6  1  0  0  0  0
  7  6  1  1  0  0  0
  7  8  1  0  0  0  0
  7  9  1  0  0  0  0
 10  9  1  1  0  0  0
 10 11  1  0  0  0  0
 10 12  1  0  0  0  0
 11 16  1  0  0  0  0
 12 13  1  6  0  0  0
 12 14  1  0  0  0  0
 14 15  1  6  0  0  0
 14 16  1  0  0  0  0
 16 27  1  1  0  0  0
 18 19  2  0  0  0  0
 18 23  1  0  0  0  0
 19 20  1  0  0  0  0
 20 21  2  0  0  0  0
 21 22  1  0  0  0  0
 21 27  1  0  0  0  0
 22 23  2  0  0  0  0
 22 25  1  0  0  0  0
 23 24  1  0  0  0  0
 25 26  2  0  0  0  0
 26 27  1  0  0  0  0
M  END
>  <CHROM.1>
137.94141648,69.28607863,-168.84288026,179.25143077,-174.08180645,-62.59313866
-124.43746029,-8.42793755,-0.78308275,19.95842700,1.45419862,-1.06458970
0.89196981

>  <Name>
ligand

>  <RI>
0

>  <Rbt.Current_Directory>
/home/itssahil/PROJECTS/Mol_Feturizer/New_Systems/rnas/3GX6

>  <Rbt.Executable>
rbdock ($Id: //depot/dev/client3/rdock/2013.1/src/exe/rbdock.cxx#4 $)

>  <Rbt.Library>
libRbt.so (2013.1, Build901 2013/11/27)

>  <Rbt.Parameter_File>
/export/apps/rDock/src/rDock_2013.1_src/data/scripts/dock_solv.prm

>  <Rbt.Receptor>
prm/blind_docking_40.prm

>  <SCORE>
-20.9507

>  <SCORE.INTER>
-10.9729

>  <SCORE.INTER.CONST>
1

>  <SCORE.INTER.POLAR>
0

>  <SCORE.INTER.ROT>
7

>  <SCORE.INTER.SOLV>
8.11567

>  <SCORE.INTER.VDW>
-18.2872

>  <SCORE.INTER.norm>
-0.406404

>  <SCORE.INTRA>
-9.9778

>  <SCORE.INTRA.DIHEDRAL>
-10.2933

>  <SCORE.INTRA.DIHEDRAL.0>
15.0182

>  <SCORE.INTRA.POLAR>
0

>  <SCORE.INTRA.POLAR.0>
0

>  <SCORE.INTRA.REPUL>
0

>  <SCORE.INTRA.REPUL.0>
0

>  <SCORE.INTRA.SOLV>
-0.929321

>  <SCORE.INTRA.SOLV.lig_0>
-47.9129

>  <SCORE.INTRA.VDW>
-4.36651

>  <SCORE.INTRA.VDW.0>
2.00851

>  <SCORE.INTRA.norm>
-0.369548

>  <SCORE.RESTR>
0

>  <SCORE.RESTR.CAVITY>
0

>  <SCORE.RESTR.norm>
0

>  <SCORE.SYSTEM>
0

>  <SCORE.SYSTEM.CONST>
0

>  <SCORE.SYSTEM.DIHEDRAL>
0

>  <SCORE.SYSTEM.SOLV>
0

>  <SCORE.SYSTEM.norm>
0

>  <SCORE.heavy>
27

>  <SCORE.norm>
-0.775952

>  <RMSD>
15.559

$$$$
ligand
 OpenBabel11021811483D
libRbt.so/2013.1/901 2013/11/27
 27 29  0  0  0  0  0  0  0  0999 V2000
   -8.5381   -5.2794   12.6290 N   0  0  0  0  0  0  0  0  0  0  0  0
   -7.1844   -5.8011   12.4612 C   0  0  2  0  0  0  0  0  0  0  0  0
   -7.0059   -6.4984   11.1151 C   0  0  0  0  0  0  0  0  0  0  0  0
   -7.8014   -7.3598   10.7336 O   0  0  0  0  0  0  0  0  0  0  0  0
   -6.8084   -6.7219   13.6182 C   0  0  0  0  0  0  0  0  0  0  0  0
   -6.3925   -5.9720   14.8743 C   0  0  0  0  0  0  0  0  0  0  0  0
   -7.7581   -5.1235   15.7059 S   0  0  2  0  0  0  0  0  0  0  0  0
   -6.9385   -3.5861   16.1971 C   0  0  0  0  0  0  0  0  0  0  0  0
   -7.8102   -6.0174   17.2828 C   0  0  0  0  0  0  0  0  0  0  0  0
   -8.2402   -7.4558   17.0333 C   0  0  1  0  0  0  0  0  0  0  0  0
   -8.3149   -8.1172   18.2737 O   0  0  0  0  0  0  0  0  0  0  0  0
   -9.6176   -7.6344   16.4228 C   0  0  1  0  0  0  0  0  0  0  0  0
   -9.5328   -7.7860   15.0234 O   0  0  0  0  0  0  0  0  0  0  0  0
  -10.1082   -8.9205   17.0563 C   0  0  1  0  0  0  0  0  0  0  0  0
  -10.0425   -9.9438   16.0938 O   0  0  0  0  0  0  0  0  0  0  0  0
   -9.1571   -9.2389   18.2020 C   0  0  2  0  0  0  0  0  0  0  0  0
   -6.0564   -6.2156   10.3842 O   0  0  0  0  0  0  0  0  0  0  0  0
  -13.5519   -7.8841   20.7761 N   0  0  0  0  0  0  0  0  0  0  0  0
  -13.1838   -7.5542   19.4867 C   0  0  0  0  0  0  0  0  0  0  0  0
  -11.9831   -7.9954   18.9633 N   0  0  0  0  0  0  0  0  0  0  0  0
  -11.1488   -8.7549   19.7124 C   0  0  0  0  0  0  0  0  0  0  0  0
  -11.5063   -9.1040   21.0089 C   0  0  0  0  0  0  0  0  0  0  0  0
  -12.7107   -8.6616   21.5423 C   0  0  0  0  0  0  0  0  0  0  0  0
  -13.0485   -8.9881   22.7875 N   0  0  0  0  0  0  0  0  0  0  0  0
  -10.5130   -9.8609   21.5228 N   0  0  0  0  0  0  0  0  0  0  0  0
   -9.5517  -10.0113   20.5817 C   0  0  0  0  0  0  0  0  0  0  0  0
   -9.9287   -9.3330   19.4527 N   0  0  0  0  0  0  0  0  0  0  0  0
  2  1  1  1  0  0  0
  2  3  1  0  0  0  0
  2  5  1  0  0  0  0
  3  4  1  0  0  0  0
  3 17  1  0  0  0  0
  5  6  1  0  0  0  0
  7  6  1  6  0  0  0
  7  8  1  0  0  0  0
  7  9  1  0  0  0  0
 10  9  1  1  0  0  0
 10 11  1  0  0  0  0
 10 12  1  0  0  0  0
 11 16  1  0  0  0  0
 12 13  1  6  0  0  0
 12 14  1  0  0  0  0
 14 15  1  6  0  0  0
 14 16  1  0  0  0  0
 16 27  1  1  0  0  0
 18 19  2  0  0  0  0
 18 23  1  0  0  0  0
 19 20  1  0  0  0  0
 20 21  2  0  0  0  0
 21 22  1  0  0  0  0
 21 27  1  0  0  0  0
 22 23  2  0  0  0  0
 22 25  1  0  0  0  0
 23 24  1  0  0  0  0
 25 26  2  0  0  0  0
 26 27  1  0  0  0  0
M  END
>  <CHROM.1>
-50.48868379,-79.31613055,70.48048211,-140.43754806,-66.57621681,-178.14231335
89.54595383,-9.27543441,-7.47603052,16.81283029,0.64393596,-0.93792776,-2.05199208

>  <Name>
ligand

>  <RI>
0

>  <Rbt.Current_Directory>
/home/itssahil/PROJECTS/Mol_Feturizer/New_Systems/rnas/3GX6

>  <Rbt.Executable>
rbdock ($Id: //depot/dev/client3/rdock/2013.1/src/exe/rbdock.cxx#4 $)

>  <Rbt.Library>
libRbt.so (2013.1, Build901 2013/11/27)

>  <Rbt.Parameter_File>
/export/apps/rDock/src/rDock_2013.1_src/data/scripts/dock_solv.prm

>  <Rbt.Receptor>
prm/blind_docking_60.prm

>  <SCORE>
-18.7281

>  <SCORE.INTER>
-11.1177

>  <SCORE.INTER.CONST>
1

>  <SCORE.INTER.POLAR>
0

>  <SCORE.INTER.ROT>
7

>  <SCORE.INTER.SOLV>
9.04898

>  <SCORE.INTER.VDW>
-18.6948

>  <SCORE.INTER.norm>
-0.411768

>  <SCORE.INTRA>
-7.61032

>  <SCORE.INTRA.DIHEDRAL>
-6.10334

>  <SCORE.INTRA.DIHEDRAL.0>
15.0182

>  <SCORE.INTRA.POLAR>
0

>  <SCORE.INTRA.POLAR.0>
0

>  <SCORE.INTRA.REPUL>
0

>  <SCORE.INTRA.REPUL.0>
0

>  <SCORE.INTRA.SOLV>
1.17223

>  <SCORE.INTRA.SOLV.lig_0>
-47.9129

>  <SCORE.INTRA.VDW>
-5.14477

>  <SCORE.INTRA.VDW.0>
2.00851

>  <SCORE.INTRA.norm>
-0.281864

>  <SCORE.RESTR>
0

>  <SCORE.RESTR.CAVITY>
0

>  <SCORE.RESTR.norm>
0

>  <SCORE.SYSTEM>
0

>  <SCORE.SYSTEM.CONST>
0

>  <SCORE.SYSTEM.DIHEDRAL>
0

>  <SCORE.SYSTEM.SOLV>
0

>  <SCORE.SYSTEM.norm>
0

>  <SCORE.heavy>
27

>  <SCORE.norm>
-0.693632

>  <RMSD>
15.760

$$$$
ligand
 OpenBabel11021811483D
libRbt.so/2013.1/901 2013/11/27
 27 29  0  0  0  0  0  0  0  0999 V2000
   -8.7507   -3.1290   14.4242 N   0  0  0  0  0  0  0  0  0  0  0  0
   -9.7768   -2.3768   13.7070 C   0  0  2  0  0  0  0  0  0  0  0  0
  -10.5012   -3.2408   12.6781 C   0  0  0  0  0  0  0  0  0  0  0  0
   -9.8987   -4.0998   12.0304 O   0  0  0  0  0  0  0  0  0  0  0  0
   -9.1856   -1.1255   13.0646 C   0  0  0  0  0  0  0  0  0  0  0  0
   -8.7827   -0.0625   14.0749 C   0  0  0  0  0  0  0  0  0  0  0  0
  -10.1844    0.7292   14.9025 S   0  0  2  0  0  0  0  0  0  0  0  0
  -10.6135    1.9952   13.6820 C   0  0  0  0  0  0  0  0  0  0  0  0
   -9.3289    1.7209   16.1567 C   0  0  0  0  0  0  0  0  0  0  0  0
   -9.0036    0.8441   17.3574 C   0  0  1  0  0  0  0  0  0  0  0  0
   -8.2483    1.6050   18.2696 O   0  0  0  0  0  0  0  0  0  0  0  0
  -10.1958    0.3594   18.1608 C   0  0  1  0  0  0  0  0  0  0  0  0
  -10.5800   -0.9370   17.7603 O   0  0  0  0  0  0  0  0  0  0  0  0
   -9.6629    0.3289   19.5789 C   0  0  1  0  0  0  0  0  0  0  0  0
   -9.4430   -1.0117   19.9427 O   0  0  0  0  0  0  0  0  0  0  0  0
   -8.3364    1.0765   19.5681 C   0  0  2  0  0  0  0  0  0  0  0  0
  -11.7056   -3.0914   12.4713 O   0  0  0  0  0  0  0  0  0  0  0  0
   -8.4375    2.5170   24.6366 N   0  0  0  0  0  0  0  0  0  0  0  0
   -8.3565    1.2409   24.1150 C   0  0  0  0  0  0  0  0  0  0  0  0
   -8.3435    1.0394   22.7478 N   0  0  0  0  0  0  0  0  0  0  0  0
   -8.4150    2.0936   21.9008 C   0  0  0  0  0  0  0  0  0  0  0  0
   -8.4884    3.3854   22.4072 C   0  0  0  0  0  0  0  0  0  0  0  0
   -8.5045    3.5950   23.7808 C   0  0  0  0  0  0  0  0  0  0  0  0
   -8.5844    4.8318   24.2657 N   0  0  0  0  0  0  0  0  0  0  0  0
   -8.5409    4.2380   21.3614 N   0  0  0  0  0  0  0  0  0  0  0  0
   -8.4852    3.5208   20.2146 C   0  0  0  0  0  0  0  0  0  0  0  0
   -8.4064    2.1898   20.5293 N   0  0  0  0  0  0  0  0  0  0  0  0
  2  1  1  6  0  0  0
  2  3  1  0  0  0  0
  2  5  1  0  0  0  0
  3  4  1  0  0  0  0
  3 17  1  0  0  0  0
  5  6  1  0  0  0  0
  7  6  1  6  0  0  0
  7  8  1  0  0  0  0
  7  9  1  0  0  0  0
 10  9  1  6  0  0  0
 10 11  1  0  0  0  0
 10 12  1  0  0  0  0
 11 16  1  0  0  0  0
 12 13  1  6  0  0  0
 12 14  1  0  0  0  0
 14 15  1  6  0  0  0
 14 16  1  0  0  0  0
 16 27  1  1  0  0  0
 18 19  2  0  0  0  0
 18 23  1  0  0  0  0
 19 20  1  0  0  0  0
 20 21  2  0  0  0  0
 21 22  1  0  0  0  0
 21 27  1  0  0  0  0
 22 23  2  0  0  0  0
 22 25  1  0  0  0  0
 23 24  1  0  0  0  0
 25 26  2  0  0  0  0
 26 27  1  0  0  0  0
M  END
>  <CHROM.1>
-36.73144508,-69.97549525,-69.50546136,-83.92840529,-82.56383762,175.38180975
-175.53981733,-9.29200262,0.60010934,17.99236450,-3.08224791,-1.42053708
-0.40289224

>  <Name>
ligand

>  <RI>
0

>  <Rbt.Current_Directory>
/home/itssahil/PROJECTS/Mol_Feturizer/New_Systems/rnas/3GX6

>  <Rbt.Executable>
rbdock ($Id: //depot/dev/client3/rdock/2013.1/src/exe/rbdock.cxx#4 $)

>  <Rbt.Library>
libRbt.so (2013.1, Build901 2013/11/27)

>  <Rbt.Parameter_File>
/export/apps/rDock/src/rDock_2013.1_src/data/scripts/dock_solv.prm

>  <Rbt.Receptor>
prm/blind_docking_100.prm

>  <SCORE>
-18.2623

>  <SCORE.INTER>
-8.13276

>  <SCORE.INTER.CONST>
1

>  <SCORE.INTER.POLAR>
0

>  <SCORE.INTER.ROT>
7

>  <SCORE.INTER.SOLV>
11.4257

>  <SCORE.INTER.VDW>
-17.4971

>  <SCORE.INTER.norm>
-0.301213

>  <SCORE.INTRA>
-10.1295

>  <SCORE.INTRA.DIHEDRAL>
-9.75676

>  <SCORE.INTRA.DIHEDRAL.0>
15.0182

>  <SCORE.INTRA.POLAR>
0

>  <SCORE.INTRA.POLAR.0>
0

>  <SCORE.INTRA.REPUL>
0

>  <SCORE.INTRA.REPUL.0>
0

>  <SCORE.INTRA.SOLV>
-0.652588

>  <SCORE.INTRA.SOLV.lig_0>
-47.9129

>  <SCORE.INTRA.VDW>
-4.92482

>  <SCORE.INTRA.VDW.0>
2.00851

>  <SCORE.INTRA.norm>
-0.375166

>  <SCORE.RESTR>
0

>  <SCORE.RESTR.CAVITY>
0

>  <SCORE.RESTR.norm>
0

>  <SCORE.SYSTEM>
0

>  <SCORE.SYSTEM.CONST>
0

>  <SCORE.SYSTEM.DIHEDRAL>
0

>  <SCORE.SYSTEM.SOLV>
0

>  <SCORE.SYSTEM.norm>
0

>  <SCORE.heavy>
27

>  <SCORE.norm>
-0.67638

>  <RMSD>
15.793

$$$$
ligand
 OpenBabel11021811483D
libRbt.so/2013.1/901 2013/11/27
 27 29  0  0  0  0  0  0  0  0999 V2000
  -14.0744   -6.5680   19.7741 N   0  0  0  0  0  0  0  0  0  0  0  0
  -14.3463   -7.9620   20.1144 C   0  0  2  0  0  0  0  0  0  0  0  0
  -14.8731   -8.1077   21.5396 C   0  0  0  0  0  0  0  0  0  0  0  0
  -15.5326   -9.0934   21.8772 O   0  0  0  0  0  0  0  0  0  0  0  0
  -13.1114   -8.8289   19.8871 C   0  0  0  0  0  0  0  0  0  0  0  0
  -11.9330   -8.4412   20.7670 C   0  0  0  0  0  0  0  0  0  0  0  0
  -10.3855   -9.2691   20.3240 S   0  0  2  0  0  0  0  0  0  0  0  0
   -9.4261   -9.0016   21.8355 C   0  0  0  0  0  0  0  0  0  0  0  0
   -9.6448   -8.0431   19.2119 C   0  0  0  0  0  0  0  0  0  0  0  0
  -10.5610   -7.8283   18.0158 C   0  0  1  0  0  0  0  0  0  0  0  0
  -10.0331   -6.7822   17.2358 O   0  0  0  0  0  0  0  0  0  0  0  0
  -10.6762   -8.9981   17.0566 C   0  0  1  0  0  0  0  0  0  0  0  0
  -11.8157   -9.7769   17.3459 O   0  0  0  0  0  0  0  0  0  0  0  0
  -10.8369   -8.3217   15.7102 C   0  0  1  0  0  0  0  0  0  0  0  0
  -12.1795   -8.4420   15.3094 O   0  0  0  0  0  0  0  0  0  0  0  0
  -10.4967   -6.8512   15.9117 C   0  0  2  0  0  0  0  0  0  0  0  0
  -14.6525   -7.2366   22.3812 O   0  0  0  0  0  0  0  0  0  0  0  0
   -8.6983   -3.4343   12.3248 N   0  0  0  0  0  0  0  0  0  0  0  0
   -9.9023   -3.4054   13.0005 C   0  0  0  0  0  0  0  0  0  0  0  0
  -10.2194   -4.3917   13.9153 N   0  0  0  0  0  0  0  0  0  0  0  0
   -9.3527   -5.4037   14.1572 C   0  0  0  0  0  0  0  0  0  0  0  0
   -8.1329   -5.4448   13.4932 C   0  0  0  0  0  0  0  0  0  0  0  0
   -7.8088   -4.4579   12.5702 C   0  0  0  0  0  0  0  0  0  0  0  0
   -6.6444   -4.5026   11.9273 N   0  0  0  0  0  0  0  0  0  0  0  0
   -7.4657   -6.5386   13.9197 N   0  0  0  0  0  0  0  0  0  0  0  0
   -8.2230   -7.1751   14.8439 C   0  0  0  0  0  0  0  0  0  0  0  0
   -9.3960   -6.4857   15.0044 N   0  0  0  0  0  0  0  0  0  0  0  0
  2  1  1  1  0  0  0
  2  3  1  0  0  0  0
  2  5  1  0  0  0  0
  3  4  1  0  0  0  0
  3 17  1  0  0  0  0
  5  6  1  0  0  0  0
  7  6  1  1  0  0  0
  7  8  1  0  0  0  0
  7  9  1  0  0  0  0
 10  9  1  1  0  0  0
 10 11  1  0  0  0  0
 10 12  1  0  0  0  0
 11 16  1  0  0  0  0
 12 13  1  1  0  0  0
 12 14  1  0  0  0  0
 14 15  1  1  0  0  0
 14 16  1  0  0  0  0
 16 27  1  6  0  0  0
 18 19  2  0  0  0  0
 18 23  1  0  0  0  0
 19 20  1  0  0  0  0
 20 21  2  0  0  0  0
 21 22  1  0  0  0  0
 21 27  1  0  0  0  0
 22 23  2  0  0  0  0
 22 25  1  0  0  0  0
 23 24  1  0  0  0  0
 25 26  2  0  0  0  0
 26 27  1  0  0  0  0
M  END
>  <CHROM.1>
157.44368027,62.65155922,-170.41703865,-162.56031756,-60.93695026,174.31773454
-116.55802469,-10.81310631,-7.23542013,17.28870328,2.11388332,-0.34591414
2.19481082

>  <Name>
ligand

>  <RI>
0

>  <Rbt.Current_Directory>
/home/itssahil/PROJECTS/Mol_Feturizer/New_Systems/rnas/3GX6

>  <Rbt.Executable>
rbdock ($Id: //depot/dev/client3/rdock/2013.1/src/exe/rbdock.cxx#4 $)

>  <Rbt.Library>
libRbt.so (2013.1, Build901 2013/11/27)

>  <Rbt.Parameter_File>
/export/apps/rDock/src/rDock_2013.1_src/data/scripts/dock_solv.prm

>  <Rbt.Receptor>
prm/blind_docking_40.prm

>  <SCORE>
-20.2137

>  <SCORE.INTER>
-10.6912

>  <SCORE.INTER.CONST>
1

>  <SCORE.INTER.POLAR>
0

>  <SCORE.INTER.ROT>
7

>  <SCORE.INTER.SOLV>
15.3881

>  <SCORE.INTER.VDW>
-20.5235

>  <SCORE.INTER.norm>
-0.39597

>  <SCORE.INTRA>
-9.52253

>  <SCORE.INTRA.DIHEDRAL>
-9.50086

>  <SCORE.INTRA.DIHEDRAL.0>
15.0182

>  <SCORE.INTRA.POLAR>
0

>  <SCORE.INTRA.POLAR.0>
0

>  <SCORE.INTRA.REPUL>
0

>  <SCORE.INTRA.REPUL.0>
0

>  <SCORE.INTRA.SOLV>
-0.341588

>  <SCORE.INTRA.SOLV.lig_0>
-47.9129

>  <SCORE.INTRA.VDW>
-4.6013

>  <SCORE.INTRA.VDW.0>
2.00851

>  <SCORE.INTRA.norm>
-0.352686

>  <SCORE.RESTR>
0

>  <SCORE.RESTR.CAVITY>
0

>  <SCORE.RESTR.norm>
0

>  <SCORE.SYSTEM>
0

>  <SCORE.SYSTEM.CONST>
0

>  <SCORE.SYSTEM.DIHEDRAL>
0

>  <SCORE.SYSTEM.SOLV>
0

>  <SCORE.SYSTEM.norm>
0

>  <SCORE.heavy>
27

>  <SCORE.norm>
-0.748657

>  <RMSD>
15.812

$$$$
ligand
 OpenBabel11021811483D
libRbt.so/2013.1/901 2013/11/27
 27 29  0  0  0  0  0  0  0  0999 V2000
   -7.5999    3.1975   13.9070 N   0  0  0  0  0  0  0  0  0  0  0  0
   -6.7608    3.8033   14.9374 C   0  0  2  0  0  0  0  0  0  0  0  0
   -5.9063    2.7646   15.6590 C   0  0  0  0  0  0  0  0  0  0  0  0
   -6.2807    1.5946   15.7656 O   0  0  0  0  0  0  0  0  0  0  0  0
   -7.6033    4.6101   15.9209 C   0  0  0  0  0  0  0  0  0  0  0  0
   -8.6804    3.7859   16.6090 C   0  0  0  0  0  0  0  0  0  0  0  0
   -9.6319    4.7082   17.8420 S   0  0  2  0  0  0  0  0  0  0  0  0
   -8.4082    4.8401   19.1693 C   0  0  0  0  0  0  0  0  0  0  0  0
  -10.7156    3.4049   18.4868 C   0  0  0  0  0  0  0  0  0  0  0  0
   -9.9615    2.0830   18.5008 C   0  0  1  0  0  0  0  0  0  0  0  0
   -9.0632    2.0971   19.5845 O   0  0  0  0  0  0  0  0  0  0  0  0
  -10.8088    0.8444   18.7244 C   0  0  1  0  0  0  0  0  0  0  0  0
  -11.1470    0.2370   17.4975 O   0  0  0  0  0  0  0  0  0  0  0  0
   -9.8879   -0.0613   19.5166 C   0  0  1  0  0  0  0  0  0  0  0  0
   -9.4254   -1.0803   18.6648 O   0  0  0  0  0  0  0  0  0  0  0  0
   -8.7124    0.7932   19.9712 C   0  0  2  0  0  0  0  0  0  0  0  0
   -4.8242    3.0789   16.1550 O   0  0  0  0  0  0  0  0  0  0  0  0
   -7.7231    3.4459   24.4164 N   0  0  0  0  0  0  0  0  0  0  0  0
   -7.6948    3.9173   23.1188 C   0  0  0  0  0  0  0  0  0  0  0  0
   -7.9808    3.0775   22.0589 N   0  0  0  0  0  0  0  0  0  0  0  0
   -8.2884    1.7775   22.2807 C   0  0  0  0  0  0  0  0  0  0  0  0
   -8.3301    1.2874   23.5802 C   0  0  0  0  0  0  0  0  0  0  0  0
   -8.0411    2.1256   24.6502 C   0  0  0  0  0  0  0  0  0  0  0  0
   -8.0718    1.6536   25.8942 N   0  0  0  0  0  0  0  0  0  0  0  0
   -8.6655   -0.0192   23.5196 N   0  0  0  0  0  0  0  0  0  0  0  0
   -8.8523   -0.3588   22.2225 C   0  0  0  0  0  0  0  0  0  0  0  0
   -8.6234    0.7422   21.4402 N   0  0  0  0  0  0  0  0  0  0  0  0
  2  1  1  6  0  0  0
  2  3  1  0  0  0  0
  2  5  1  0  0  0  0
  3  4  1  0  0  0  0
  3 17  1  0  0  0  0
  5  6  1  0  0  0  0
  7  6  1  6  0  0  0
  7  8  1  0  0  0  0
  7  9  1  0  0  0  0
 10  9  1  1  0  0  0
 10 11  1  0  0  0  0
 10 12  1  0  0  0  0
 11 16  1  0  0  0  0
 12 13  1  6  0  0  0
 12 14  1  0  0  0  0
 14 15  1  6  0  0  0
 14 16  1  0  0  0  0
 16 27  1  1  0  0  0
 18 19  2  0  0  0  0
 18 23  1  0  0  0  0
 19 20  1  0  0  0  0
 20 21  2  0  0  0  0
 21 22  1  0  0  0  0
 21 27  1  0  0  0  0
 22 23  2  0  0  0  0
 22 25  1  0  0  0  0
 23 24  1  0  0  0  0
 25 26  2  0  0  0  0
 26 27  1  0  0  0  0
M  END
>  <CHROM.1>
-28.27042686,58.05227077,176.98120892,-73.20968933,34.89198529,75.83781632
-29.13926753,-8.48888666,2.27721801,19.44142463,1.39033228,-1.00026755,-1.51045212

>  <Name>
ligand

>  <RI>
0

>  <Rbt.Current_Directory>
/home/itssahil/PROJECTS/Mol_Feturizer/New_Systems/rnas/3GX6

>  <Rbt.Executable>
rbdock ($Id: //depot/dev/client3/rdock/2013.1/src/exe/rbdock.cxx#4 $)

>  <Rbt.Library>
libRbt.so (2013.1, Build901 2013/11/27)

>  <Rbt.Parameter_File>
/export/apps/rDock/src/rDock_2013.1_src/data/scripts/dock_solv.prm

>  <Rbt.Receptor>
prm/blind_docking_40.prm

>  <SCORE>
-21.9766

>  <SCORE.INTER>
-14.0654

>  <SCORE.INTER.CONST>
1

>  <SCORE.INTER.POLAR>
0

>  <SCORE.INTER.ROT>
7

>  <SCORE.INTER.SOLV>
13.3459

>  <SCORE.INTER.VDW>
-22.0922

>  <SCORE.INTER.norm>
-0.52094

>  <SCORE.INTRA>
-7.91122

>  <SCORE.INTRA.DIHEDRAL>
-10.0863

>  <SCORE.INTRA.DIHEDRAL.0>
15.0182

>  <SCORE.INTRA.POLAR>
0

>  <SCORE.INTRA.POLAR.0>
0

>  <SCORE.INTRA.REPUL>
0

>  <SCORE.INTRA.REPUL.0>
0

>  <SCORE.INTRA.SOLV>
-0.928829

>  <SCORE.INTRA.SOLV.lig_0>
-47.9129

>  <SCORE.INTRA.VDW>
-2.40367

>  <SCORE.INTRA.VDW.0>
2.00851

>  <SCORE.INTRA.norm>
-0.293008

>  <SCORE.RESTR>
0

>  <SCORE.RESTR.CAVITY>
0

>  <SCORE.RESTR.norm>
0

>  <SCORE.SYSTEM>
0

>  <SCORE.SYSTEM.CONST>
0

>  <SCORE.SYSTEM.DIHEDRAL>
0

>  <SCORE.SYSTEM.SOLV>
0

>  <SCORE.SYSTEM.norm>
0

>  <SCORE.heavy>
27

>  <SCORE.norm>
-0.813949

>  <RMSD>
15.833

$$$$
ligand
 OpenBabel11021811483D
libRbt.so/2013.1/901 2013/11/27
 27 29  0  0  0  0  0  0  0  0999 V2000
  -10.5404    6.9738   16.0640 N   0  0  0  0  0  0  0  0  0  0  0  0
  -10.0260    5.8119   15.3443 C   0  0  2  0  0  0  0  0  0  0  0  0
  -10.7916    5.5604   14.0479 C   0  0  0  0  0  0  0  0  0  0  0  0
  -10.3107    4.8676   13.1484 O   0  0  0  0  0  0  0  0  0  0  0  0
  -10.0243    4.5749   16.2375 C   0  0  0  0  0  0  0  0  0  0  0  0
   -9.3541    4.8046   17.5833 C   0  0  0  0  0  0  0  0  0  0  0  0
   -9.3238    3.3393   18.6454 S   0  0  2  0  0  0  0  0  0  0  0  0
   -8.0943    3.8487   19.8723 C   0  0  0  0  0  0  0  0  0  0  0  0
   -8.3548    2.1946   17.6260 C   0  0  0  0  0  0  0  0  0  0  0  0
   -8.5924    0.7691   18.1034 C   0  0  1  0  0  0  0  0  0  0  0  0
   -7.8845    0.5810   19.3055 O   0  0  0  0  0  0  0  0  0  0  0  0
  -10.0284    0.4214   18.4485 C   0  0  1  0  0  0  0  0  0  0  0  0
  -10.6696   -0.2081   17.3616 O   0  0  0  0  0  0  0  0  0  0  0  0
   -9.8771   -0.5536   19.5985 C   0  0  1  0  0  0  0  0  0  0  0  0
  -10.1513   -1.8484   19.1230 O   0  0  0  0  0  0  0  0  0  0  0  0
   -8.4264   -0.4765   20.0546 C   0  0  2  0  0  0  0  0  0  0  0  0
  -11.9070    6.0517   13.8737 O   0  0  0  0  0  0  0  0  0  0  0  0
   -6.0534    2.3410   23.8236 N   0  0  0  0  0  0  0  0  0  0  0  0
   -5.7415    2.2826   22.4796 C   0  0  0  0  0  0  0  0  0  0  0  0
   -6.4723    1.4822   21.6221 N   0  0  0  0  0  0  0  0  0  0  0  0
   -7.5029    0.7398   22.0918 C   0  0  0  0  0  0  0  0  0  0  0  0
   -7.8368    0.7923   23.4395 C   0  0  0  0  0  0  0  0  0  0  0  0
   -7.1046    1.5929   24.3077 C   0  0  0  0  0  0  0  0  0  0  0  0
   -7.4185    1.6357   25.6003 N   0  0  0  0  0  0  0  0  0  0  0  0
   -8.8926   -0.0262   23.6369 N   0  0  0  0  0  0  0  0  0  0  0  0
   -9.2415   -0.5769   22.4505 C   0  0  0  0  0  0  0  0  0  0  0  0
   -8.3916   -0.1133   21.4812 N   0  0  0  0  0  0  0  0  0  0  0  0
  2  1  1  1  0  0  0
  2  3  1  0  0  0  0
  2  5  1  0  0  0  0
  3  4  1  0  0  0  0
  3 17  1  0  0  0  0
  5  6  1  0  0  0  0
  7  6  1  6  0  0  0
  7  8  1  0  0  0  0
  7  9  1  0  0  0  0
 10  9  1  1  0  0  0
 10 11  1  0  0  0  0
 10 12  1  0  0  0  0
 11 16  1  0  0  0  0
 12 13  1  6  0  0  0
 12 14  1  0  0  0  0
 14 15  1  6  0  0  0
 14 16  1  0  0  0  0
 16 27  1  1  0  0  0
 18 19  2  0  0  0  0
 18 23  1  0  0  0  0
 19 20  1  0  0  0  0
 20 21  2  0  0  0  0
 21 22  1  0  0  0  0
 21 27  1  0  0  0  0
 22 23  2  0  0  0  0
 22 25  1  0  0  0  0
 23 24  1  0  0  0  0
 25 26  2  0  0  0  0
 26 27  1  0  0  0  0
M  END
>  <CHROM.1>
161.02585667,-50.77212025,-179.19565420,164.87414746,-161.16906042,-75.04026733
-27.57247454,-8.92441264,2.18536189,19.30024116,-2.27328376,1.08701336,2.72479063

>  <Name>
ligand

>  <RI>
0

>  <Rbt.Current_Directory>
/home/itssahil/PROJECTS/Mol_Feturizer/New_Systems/rnas/3GX6

>  <Rbt.Executable>
rbdock ($Id: //depot/dev/client3/rdock/2013.1/src/exe/rbdock.cxx#4 $)

>  <Rbt.Library>
libRbt.so (2013.1, Build901 2013/11/27)

>  <Rbt.Parameter_File>
/export/apps/rDock/src/rDock_2013.1_src/data/scripts/dock_solv.prm

>  <Rbt.Receptor>
prm/blind_docking_80.prm

>  <SCORE>
-16.6988

>  <SCORE.INTER>
-7.69942

>  <SCORE.INTER.CONST>
1

>  <SCORE.INTER.POLAR>
0

>  <SCORE.INTER.ROT>
7

>  <SCORE.INTER.SOLV>
18.719

>  <SCORE.INTER.VDW>
-19.6393

>  <SCORE.INTER.norm>
-0.285164

>  <SCORE.INTRA>
-8.99942

>  <SCORE.INTRA.DIHEDRAL>
-8.76655

>  <SCORE.INTRA.DIHEDRAL.0>
15.0182

>  <SCORE.INTRA.POLAR>
0

>  <SCORE.INTRA.POLAR.0>
0

>  <SCORE.INTRA.REPUL>
0

>  <SCORE.INTRA.REPUL.0>
0

>  <SCORE.INTRA.SOLV>
-0.792975

>  <SCORE.INTRA.SOLV.lig_0>
-47.9129

>  <SCORE.INTRA.VDW>
-4.21966

>  <SCORE.INTRA.VDW.0>
2.00851

>  <SCORE.INTRA.norm>
-0.333312

>  <SCORE.RESTR>
0

>  <SCORE.RESTR.CAVITY>
0

>  <SCORE.RESTR.norm>
0

>  <SCORE.SYSTEM>
0

>  <SCORE.SYSTEM.CONST>
0

>  <SCORE.SYSTEM.DIHEDRAL>
0

>  <SCORE.SYSTEM.SOLV>
0

>  <SCORE.SYSTEM.norm>
0

>  <SCORE.heavy>
27

>  <SCORE.norm>
-0.618476

>  <RMSD>
15.842

$$$$
ligand
 OpenBabel11021811483D
libRbt.so/2013.1/901 2013/11/27
 27 29  0  0  0  0  0  0  0  0999 V2000
   -9.4089   -3.2700   11.1497 N   0  0  0  0  0  0  0  0  0  0  0  0
   -8.5904   -2.6795   12.2052 C   0  0  2  0  0  0  0  0  0  0  0  0
   -7.7134   -3.7209   12.8954 C   0  0  0  0  0  0  0  0  0  0  0  0
   -6.4838   -3.6318   12.8761 O   0  0  0  0  0  0  0  0  0  0  0  0
   -9.4577   -1.9286   13.2112 C   0  0  0  0  0  0  0  0  0  0  0  0
   -8.6512   -1.1644   14.2497 C   0  0  0  0  0  0  0  0  0  0  0  0
   -9.6661   -0.3176   15.4864 S   0  0  2  0  0  0  0  0  0  0  0  0
  -10.3116    1.0542   14.4974 C   0  0  0  0  0  0  0  0  0  0  0  0
   -8.3897    0.5202   16.4648 C   0  0  0  0  0  0  0  0  0  0  0  0
   -7.5782   -0.5164   17.2285 C   0  0  1  0  0  0  0  0  0  0  0  0
   -6.7004    0.1602   18.0965 O   0  0  0  0  0  0  0  0  0  0  0  0
   -8.3734   -1.4384   18.1337 C   0  0  1  0  0  0  0  0  0  0  0  0
   -8.6629   -2.6560   17.4838 O   0  0  0  0  0  0  0  0  0  0  0  0
   -7.4272   -1.6797   19.2923 C   0  0  1  0  0  0  0  0  0  0  0  0
   -6.9052   -2.9805   19.1769 O   0  0  0  0  0  0  0  0  0  0  0  0
   -6.2988   -0.6660   19.1591 C   0  0  2  0  0  0  0  0  0  0  0  0
   -8.2205   -4.6768   13.4827 O   0  0  0  0  0  0  0  0  0  0  0  0
   -8.5855    0.5651   23.7451 N   0  0  0  0  0  0  0  0  0  0  0  0
   -9.0193   -0.3342   22.7911 C   0  0  0  0  0  0  0  0  0  0  0  0
   -8.2928   -0.5362   21.6329 N   0  0  0  0  0  0  0  0  0  0  0  0
   -7.1459    0.1508   21.4169 C   0  0  0  0  0  0  0  0  0  0  0  0
   -6.6893    1.0535   22.3694 C   0  0  0  0  0  0  0  0  0  0  0  0
   -7.4163    1.2634   23.5349 C   0  0  0  0  0  0  0  0  0  0  0  0
   -6.9837    2.1351   24.4428 N   0  0  0  0  0  0  0  0  0  0  0  0
   -5.5360    1.5883   21.9140 N   0  0  0  0  0  0  0  0  0  0  0  0
   -5.2467    1.0353   20.7127 C   0  0  0  0  0  0  0  0  0  0  0  0
   -6.2332    0.1417   20.3887 N   0  0  0  0  0  0  0  0  0  0  0  0
  2  1  1  6  0  0  0
  2  3  1  0  0  0  0
  2  5  1  0  0  0  0
  3  4  1  0  0  0  0
  3 17  1  0  0  0  0
  5  6  1  0  0  0  0
  7  6  1  6  0  0  0
  7  8  1  0  0  0  0
  7  9  1  0  0  0  0
 10  9  1  1  0  0  0
 10 11  1  0  0  0  0
 10 12  1  0  0  0  0
 11 16  1  0  0  0  0
 12 13  1  6  0  0  0
 12 14  1  0  0  0  0
 14 15  1  6  0  0  0
 14 16  1  0  0  0  0
 16 27  1  1  0  0  0
 18 19  2  0  0  0  0
 18 23  1  0  0  0  0
 19 20  1  0  0  0  0
 20 21  2  0  0  0  0
 21 22  1  0  0  0  0
 21 27  1  0  0  0  0
 22 23  2  0  0  0  0
 22 25  1  0  0  0  0
 23 24  1  0  0  0  0
 25 26  2  0  0  0  0
 26 27  1  0  0  0  0
M  END
>  <CHROM.1>
118.92061933,-173.70222952,-177.88713190,-73.55580808,-68.61230860,-173.25428293
103.68785619,-7.88087192,-0.87028580,17.83147974,1.81665421,0.88939238,-2.10420505

>  <Name>
ligand

>  <RI>
0

>  <Rbt.Current_Directory>
/home/itssahil/PROJECTS/Mol_Feturizer/New_Systems/rnas/3GX6

>  <Rbt.Executable>
rbdock ($Id: //depot/dev/client3/rdock/2013.1/src/exe/rbdock.cxx#4 $)

>  <Rbt.Library>
libRbt.so (2013.1, Build901 2013/11/27)

>  <Rbt.Parameter_File>
/export/apps/rDock/src/rDock_2013.1_src/data/scripts/dock_solv.prm

>  <Rbt.Receptor>
prm/blind_docking_40.prm

>  <SCORE>
-17.1497

>  <SCORE.INTER>
-7.14315

>  <SCORE.INTER.CONST>
1

>  <SCORE.INTER.POLAR>
0

>  <SCORE.INTER.ROT>
7

>  <SCORE.INTER.SOLV>
6.70229

>  <SCORE.INTER.VDW>
-15.2629

>  <SCORE.INTER.norm>
-0.264561

>  <SCORE.INTRA>
-10.0065

>  <SCORE.INTRA.DIHEDRAL>
-11.4315

>  <SCORE.INTRA.DIHEDRAL.0>
15.0182

>  <SCORE.INTRA.POLAR>
0

>  <SCORE.INTRA.POLAR.0>
0

>  <SCORE.INTRA.REPUL>
0

>  <SCORE.INTRA.REPUL.0>
0

>  <SCORE.INTRA.SOLV>
-1.53061

>  <SCORE.INTRA.SOLV.lig_0>
-47.9129

>  <SCORE.INTRA.VDW>
-3.52547

>  <SCORE.INTRA.VDW.0>
2.00851

>  <SCORE.INTRA.norm>
-0.370613

>  <SCORE.RESTR>
0

>  <SCORE.RESTR.CAVITY>
0

>  <SCORE.RESTR.norm>
0

>  <SCORE.SYSTEM>
0

>  <SCORE.SYSTEM.CONST>
0

>  <SCORE.SYSTEM.DIHEDRAL>
0

>  <SCORE.SYSTEM.SOLV>
0

>  <SCORE.SYSTEM.norm>
0

>  <SCORE.heavy>
27

>  <SCORE.norm>
-0.635174

>  <RMSD>
15.919

$$$$
ligand
 OpenBabel11021811483D
libRbt.so/2013.1/901 2013/11/27
 27 29  0  0  0  0  0  0  0  0999 V2000
   -7.7450    3.7625   16.3333 N   0  0  0  0  0  0  0  0  0  0  0  0
   -8.7699    4.4458   17.1178 C   0  0  2  0  0  0  0  0  0  0  0  0
   -9.4227    5.5820   16.3349 C   0  0  0  0  0  0  0  0  0  0  0  0
   -8.9223    6.0057   15.2907 O   0  0  0  0  0  0  0  0  0  0  0  0
   -8.2010    4.9402   18.4444 C   0  0  0  0  0  0  0  0  0  0  0  0
   -7.6421    3.8242   19.3134 C   0  0  0  0  0  0  0  0  0  0  0  0
   -7.0407    4.3839   20.9262 S   0  0  2  0  0  0  0  0  0  0  0  0
   -5.5524    5.2851   20.4267 C   0  0  0  0  0  0  0  0  0  0  0  0
   -6.3250    2.8507   21.5784 C   0  0  0  0  0  0  0  0  0  0  0  0
   -7.4391    1.9591   22.1076 C   0  0  1  0  0  0  0  0  0  0  0  0
   -8.2274    1.5420   21.0185 O   0  0  0  0  0  0  0  0  0  0  0  0
   -6.9916    0.6696   22.7700 C   0  0  1  0  0  0  0  0  0  0  0  0
   -6.9231    0.8198   24.1705 O   0  0  0  0  0  0  0  0  0  0  0  0
   -8.0946   -0.3031   22.4048 C   0  0  1  0  0  0  0  0  0  0  0  0
   -8.8903   -0.5214   23.5437 O   0  0  0  0  0  0  0  0  0  0  0  0
   -8.9308    0.3644   21.3213 C   0  0  2  0  0  0  0  0  0  0  0  0
  -10.4636    6.1024   16.7367 O   0  0  0  0  0  0  0  0  0  0  0  0
   -6.0803   -2.1596   17.6772 N   0  0  0  0  0  0  0  0  0  0  0  0
   -5.6275   -1.3856   18.7274 C   0  0  0  0  0  0  0  0  0  0  0  0
   -6.5204   -0.7880   19.5968 N   0  0  0  0  0  0  0  0  0  0  0  0
   -7.8538   -0.9510   19.4259 C   0  0  0  0  0  0  0  0  0  0  0  0
   -8.3277   -1.7333   18.3800 C   0  0  0  0  0  0  0  0  0  0  0  0
   -7.4357   -2.3348   17.5006 C   0  0  0  0  0  0  0  0  0  0  0  0
   -7.8901   -3.0763   16.4932 N   0  0  0  0  0  0  0  0  0  0  0  0
   -9.6767   -1.7357   18.4427 N   0  0  0  0  0  0  0  0  0  0  0  0
  -10.0622   -0.9927   19.5067 C   0  0  0  0  0  0  0  0  0  0  0  0
   -8.9459   -0.4987   20.1283 N   0  0  0  0  0  0  0  0  0  0  0  0
  2  1  1  6  0  0  0
  2  3  1  0  0  0  0
  2  5  1  0  0  0  0
  3  4  1  0  0  0  0
  3 17  1  0  0  0  0
  5  6  1  0  0  0  0
  7  6  1  6  0  0  0
  7  8  1  0  0  0  0
  7  9  1  0  0  0  0
 10  9  1  6  0  0  0
 10 11  1  0  0  0  0
 10 12  1  0  0  0  0
 11 16  1  0  0  0  0
 12 13  1  1  0  0  0
 12 14  1  0  0  0  0
 14 15  1  1  0  0  0
 14 16  1  0  0  0  0
 16 27  1  6  0  0  0
 18 19  2  0  0  0  0
 18 23  1  0  0  0  0
 19 20  1  0  0  0  0
 20 21  2  0  0  0  0
 21 22  1  0  0  0  0
 21 27  1  0  0  0  0
 22 23  2  0  0  0  0
 22 25  1  0  0  0  0
 23 24  1  0  0  0  0
 25 26  2  0  0  0  0
 26 27  1  0  0  0  0
M  END
>  <CHROM.1>
-13.78854860,-59.47193982,-177.03100266,-70.91206885,-78.94527721,66.78829604
55.94513858,-7.89060149,1.57343116,19.57263025,2.04485056,-1.36416472,0.06655810

>  <Name>
ligand

>  <RI>
0

>  <Rbt.Current_Directory>
/home/itssahil/PROJECTS/Mol_Feturizer/New_Systems/rnas/3GX6

>  <Rbt.Executable>
rbdock ($Id: //depot/dev/client3/rdock/2013.1/src/exe/rbdock.cxx#4 $)

>  <Rbt.Library>
libRbt.so (2013.1, Build901 2013/11/27)

>  <Rbt.Parameter_File>
/export/apps/rDock/src/rDock_2013.1_src/data/scripts/dock_solv.prm

>  <Rbt.Receptor>
prm/blind_docking_80.prm

>  <SCORE>
-20.2965

>  <SCORE.INTER>
-9.57693

>  <SCORE.INTER.CONST>
1

>  <SCORE.INTER.POLAR>
0

>  <SCORE.INTER.ROT>
7

>  <SCORE.INTER.SOLV>
7.52745

>  <SCORE.INTER.VDW>
-17.1604

>  <SCORE.INTER.norm>
-0.354701

>  <SCORE.INTRA>
-10.7196

>  <SCORE.INTRA.DIHEDRAL>
-11.2883

>  <SCORE.INTRA.DIHEDRAL.0>
15.0182

>  <SCORE.INTRA.POLAR>
0

>  <SCORE.INTRA.POLAR.0>
0

>  <SCORE.INTRA.REPUL>
0

>  <SCORE.INTRA.REPUL.0>
0

>  <SCORE.INTRA.SOLV>
-1.02313

>  <SCORE.INTRA.SOLV.lig_0>
-47.9129

>  <SCORE.INTRA.VDW>
-4.56387

>  <SCORE.INTRA.VDW.0>
2.00851

>  <SCORE.INTRA.norm>
-0.397021

>  <SCORE.RESTR>
0

>  <SCORE.RESTR.CAVITY>
0

>  <SCORE.RESTR.norm>
0

>  <SCORE.SYSTEM>
0

>  <SCORE.SYSTEM.CONST>
0

>  <SCORE.SYSTEM.DIHEDRAL>
0

>  <SCORE.SYSTEM.SOLV>
0

>  <SCORE.SYSTEM.norm>
0

>  <SCORE.heavy>
27

>  <SCORE.norm>
-0.751722

>  <RMSD>
15.949

$$$$
ligand
 OpenBabel11021811483D
libRbt.so/2013.1/901 2013/11/27
 27 29  0  0  0  0  0  0  0  0999 V2000
   -3.5957   -3.1551   18.9031 N   0  0  0  0  0  0  0  0  0  0  0  0
   -4.8396   -3.6335   18.3057 C   0  0  2  0  0  0  0  0  0  0  0  0
   -4.6157   -4.2109   16.9105 C   0  0  0  0  0  0  0  0  0  0  0  0
   -5.2456   -5.1967   16.5207 O   0  0  0  0  0  0  0  0  0  0  0  0
   -5.8945   -2.5314   18.2883 C   0  0  0  0  0  0  0  0  0  0  0  0
   -6.2970   -2.0607   19.6774 C   0  0  0  0  0  0  0  0  0  0  0  0
   -7.5420   -0.7468   19.6728 S   0  0  2  0  0  0  0  0  0  0  0  0
   -7.7917   -0.5252   21.4519 C   0  0  0  0  0  0  0  0  0  0  0  0
   -9.0282   -1.6818   19.2195 C   0  0  0  0  0  0  0  0  0  0  0  0
   -9.8471   -0.8749   18.2221 C   0  0  1  0  0  0  0  0  0  0  0  0
  -10.4050    0.2276   18.8965 O   0  0  0  0  0  0  0  0  0  0  0  0
   -9.0680   -0.2640   17.0725 C   0  0  1  0  0  0  0  0  0  0  0  0
   -9.1314   -1.0854   15.9280 O   0  0  0  0  0  0  0  0  0  0  0  0
   -9.7987    1.0389   16.8185 C   0  0  1  0  0  0  0  0  0  0  0  0
  -10.5560    0.9021   15.6414 O   0  0  0  0  0  0  0  0  0  0  0  0
  -10.7329    1.2587   18.0008 C   0  0  2  0  0  0  0  0  0  0  0  0
   -3.7942   -3.7034   16.1469 O   0  0  0  0  0  0  0  0  0  0  0  0
   -7.1778    4.1075   20.6505 N   0  0  0  0  0  0  0  0  0  0  0  0
   -7.0660    2.8046   20.2068 C   0  0  0  0  0  0  0  0  0  0  0  0
   -8.1053    2.2029   19.5227 N   0  0  0  0  0  0  0  0  0  0  0  0
   -9.2507    2.8842   19.2827 C   0  0  0  0  0  0  0  0  0  0  0  0
   -9.3781    4.1989   19.7140 C   0  0  0  0  0  0  0  0  0  0  0  0
   -8.3382    4.8091   20.4048 C   0  0  0  0  0  0  0  0  0  0  0  0
   -8.4641    6.0651   20.8262 N   0  0  0  0  0  0  0  0  0  0  0  0
  -10.5993    4.6401   19.3429 N   0  0  0  0  0  0  0  0  0  0  0  0
  -11.2345    3.6475   18.6768 C   0  0  0  0  0  0  0  0  0  0  0  0
  -10.4138    2.5517   18.6292 N   0  0  0  0  0  0  0  0  0  0  0  0
  2  1  1  6  0  0  0
  2  3  1  0  0  0  0
  2  5  1  0  0  0  0
  3  4  1  0  0  0  0
  3 17  1  0  0  0  0
  5  6  1  0  0  0  0
  7  6  1  1  0  0  0
  7  8  1  0  0  0  0
  7  9  1  0  0  0  0
 10  9  1  1  0  0  0
 10 11  1  0  0  0  0
 10 12  1  0  0  0  0
 11 16  1  0  0  0  0
 12 13  1  6  0  0  0
 12 14  1  0  0  0  0
 14 15  1  6  0  0  0
 14 16  1  0  0  0  0
 16 27  1  1  0  0  0
 18 19  2  0  0  0  0
 18 23  1  0  0  0  0
 19 20  1  0  0  0  0
 20 21  2  0  0  0  0
 21 22  1  0  0  0  0
 21 27  1  0  0  0  0
 22 23  2  0  0  0  0
 22 25  1  0  0  0  0
 23 24  1  0  0  0  0
 25 26  2  0  0  0  0
 26 27  1  0  0  0  0
M  END
>  <CHROM.1>
142.89353907,-62.87991477,179.69734143,177.77048000,-138.48170952,-70.22987367
47.17429893,-8.03255138,0.27124643,18.62633541,-0.95612098,-0.53691074,0.59925201

>  <Name>
ligand

>  <RI>
0

>  <Rbt.Current_Directory>
/home/itssahil/PROJECTS/Mol_Feturizer/New_Systems/rnas/3GX6

>  <Rbt.Executable>
rbdock ($Id: //depot/dev/client3/rdock/2013.1/src/exe/rbdock.cxx#4 $)

>  <Rbt.Library>
libRbt.so (2013.1, Build901 2013/11/27)

>  <Rbt.Parameter_File>
/export/apps/rDock/src/rDock_2013.1_src/data/scripts/dock_solv.prm

>  <Rbt.Receptor>
prm/blind_docking_60.prm

>  <SCORE>
-19.2316

>  <SCORE.INTER>
-9.27345

>  <SCORE.INTER.CONST>
1

>  <SCORE.INTER.POLAR>
0

>  <SCORE.INTER.ROT>
7

>  <SCORE.INTER.SOLV>
14.5804

>  <SCORE.INTER.VDW>
-19.3091

>  <SCORE.INTER.norm>
-0.343461

>  <SCORE.INTRA>
-9.9592

>  <SCORE.INTRA.DIHEDRAL>
-7.26633

>  <SCORE.INTRA.DIHEDRAL.0>
15.0182

>  <SCORE.INTRA.POLAR>
0

>  <SCORE.INTRA.POLAR.0>
0

>  <SCORE.INTRA.REPUL>
0

>  <SCORE.INTRA.REPUL.0>
0

>  <SCORE.INTRA.SOLV>
-0.832819

>  <SCORE.INTRA.SOLV.lig_0>
-47.9129

>  <SCORE.INTRA.VDW>
-5.90963

>  <SCORE.INTRA.VDW.0>
2.00851

>  <SCORE.INTRA.norm>
-0.368859

>  <SCORE.RESTR>
0.00109116

>  <SCORE.RESTR.CAVITY>
0.00109116

>  <SCORE.RESTR.norm>
4.04134e-05

>  <SCORE.SYSTEM>
0

>  <SCORE.SYSTEM.CONST>
0

>  <SCORE.SYSTEM.DIHEDRAL>
0

>  <SCORE.SYSTEM.SOLV>
0

>  <SCORE.SYSTEM.norm>
0

>  <SCORE.heavy>
27

>  <SCORE.norm>
-0.71228

>  <RMSD>
15.990

$$$$
ligand
 OpenBabel11021811483D
libRbt.so/2013.1/901 2013/11/27
 27 29  0  0  0  0  0  0  0  0999 V2000
  -10.7411  -10.8138   24.5864 N   0  0  0  0  0  0  0  0  0  0  0  0
   -9.3947  -10.3512   24.2608 C   0  0  2  0  0  0  0  0  0  0  0  0
   -9.4141   -9.0095   23.5333 C   0  0  0  0  0  0  0  0  0  0  0  0
   -8.9687   -7.9901   24.0651 O   0  0  0  0  0  0  0  0  0  0  0  0
   -8.6349  -11.4058   23.4617 C   0  0  0  0  0  0  0  0  0  0  0  0
   -8.4388  -12.7100   24.2190 C   0  0  0  0  0  0  0  0  0  0  0  0
   -7.3774  -13.9006   23.3634 S   0  0  2  0  0  0  0  0  0  0  0  0
   -5.9300  -12.8671   23.0266 C   0  0  0  0  0  0  0  0  0  0  0  0
   -8.1642  -13.9526   21.7303 C   0  0  0  0  0  0  0  0  0  0  0  0
   -7.4826  -15.0113   20.8755 C   0  0  1  0  0  0  0  0  0  0  0  0
   -7.7360  -16.2725   21.4472 O   0  0  0  0  0  0  0  0  0  0  0  0
   -7.9872  -15.1310   19.4497 C   0  0  1  0  0  0  0  0  0  0  0  0
   -7.1744  -14.3939   18.5639 O   0  0  0  0  0  0  0  0  0  0  0  0
   -7.8563  -16.6133   19.1640 C   0  0  1  0  0  0  0  0  0  0  0  0
   -6.7535  -16.8067   18.3130 O   0  0  0  0  0  0  0  0  0  0  0  0
   -7.5947  -17.2985   20.4984 C   0  0  2  0  0  0  0  0  0  0  0  0
   -9.8821   -8.9191   22.3982 O   0  0  0  0  0  0  0  0  0  0  0  0
   -9.9250  -20.5013   23.9750 N   0  0  0  0  0  0  0  0  0  0  0  0
   -8.8746  -19.6309   24.1895 C   0  0  0  0  0  0  0  0  0  0  0  0
   -8.3789  -18.8586   23.1560 N   0  0  0  0  0  0  0  0  0  0  0  0
   -8.9158  -18.9499   21.9162 C   0  0  0  0  0  0  0  0  0  0  0  0
   -9.9787  -19.8139   21.6835 C   0  0  0  0  0  0  0  0  0  0  0  0
  -10.4803  -20.5952   22.7173 C   0  0  0  0  0  0  0  0  0  0  0  0
  -11.4922  -21.4297   22.4920 N   0  0  0  0  0  0  0  0  0  0  0  0
  -10.3234  -19.7055   20.3823 N   0  0  0  0  0  0  0  0  0  0  0  0
   -9.5200  -18.7869   19.7964 C   0  0  0  0  0  0  0  0  0  0  0  0
   -8.6415  -18.3075   20.7319 N   0  0  0  0  0  0  0  0  0  0  0  0
  2  1  1  6  0  0  0
  2  3  1  0  0  0  0
  2  5  1  0  0  0  0
  3  4  1  0  0  0  0
  3 17  1  0  0  0  0
  5  6  1  0  0  0  0
  7  6  1  1  0  0  0
  7  8  1  0  0  0  0
  7  9  1  0  0  0  0
 10  9  1  1  0  0  0
 10 11  1  0  0  0  0
 10 12  1  0  0  0  0
 11 16  1  0  0  0  0
 12 13  1  6  0  0  0
 12 14  1  0  0  0  0
 14 15  1  6  0  0  0
 14 16  1  0  0  0  0
 16 27  1  1  0  0  0
 18 19  2  0  0  0  0
 18 23  1  0  0  0  0
 19 20  1  0  0  0  0
 20 21  2  0  0  0  0
 21 22  1  0  0  0  0
 21 27  1  0  0  0  0
 22 23  2  0  0  0  0
 22 25  1  0  0  0  0
 23 24  1  0  0  0  0
 25 26  2  0  0  0  0
 26 27  1  0  0  0  0
M  END
>  <CHROM.1>
112.66379990,-61.81351589,-173.30242836,52.10446928,-174.97818021,65.86176373
-53.30450144,-8.64050100,-15.34381297,22.04435006,1.45319525,1.06435612,0.29961346

>  <Name>
ligand

>  <RI>
0

>  <Rbt.Current_Directory>
/home/itssahil/PROJECTS/Mol_Feturizer/New_Systems/rnas/3GX6

>  <Rbt.Executable>
rbdock ($Id: //depot/dev/client3/rdock/2013.1/src/exe/rbdock.cxx#4 $)

>  <Rbt.Library>
libRbt.so (2013.1, Build901 2013/11/27)

>  <Rbt.Parameter_File>
/export/apps/rDock/src/rDock_2013.1_src/data/scripts/dock_solv.prm

>  <Rbt.Receptor>
prm/blind_docking_100.prm

>  <SCORE>
-23.5779

>  <SCORE.INTER>
-15.0223

>  <SCORE.INTER.CONST>
1

>  <SCORE.INTER.POLAR>
0

>  <SCORE.INTER.ROT>
7

>  <SCORE.INTER.SOLV>
11.8966

>  <SCORE.INTER.VDW>
-22.2471

>  <SCORE.INTER.norm>
-0.556383

>  <SCORE.INTRA>
-8.5556

>  <SCORE.INTRA.DIHEDRAL>
-11.0096

>  <SCORE.INTRA.DIHEDRAL.0>
15.0182

>  <SCORE.INTRA.POLAR>
0

>  <SCORE.INTRA.POLAR.0>
0

>  <SCORE.INTRA.REPUL>
0

>  <SCORE.INTRA.REPUL.0>
0

>  <SCORE.INTRA.SOLV>
-1.17073

>  <SCORE.INTRA.SOLV.lig_0>
-47.9129

>  <SCORE.INTRA.VDW>
-2.46544

>  <SCORE.INTRA.VDW.0>
2.00851

>  <SCORE.INTRA.norm>
-0.316874

>  <SCORE.RESTR>
0

>  <SCORE.RESTR.CAVITY>
0

>  <SCORE.RESTR.norm>
0

>  <SCORE.SYSTEM>
0

>  <SCORE.SYSTEM.CONST>
0

>  <SCORE.SYSTEM.DIHEDRAL>
0

>  <SCORE.SYSTEM.SOLV>
0

>  <SCORE.SYSTEM.norm>
0

>  <SCORE.heavy>
27

>  <SCORE.norm>
-0.873257

>  <RMSD>
16.050

$$$$
ligand
 OpenBabel11021811483D
libRbt.so/2013.1/901 2013/11/27
 27 29  0  0  0  0  0  0  0  0999 V2000
   -6.6543    3.3234   25.5126 N   0  0  0  0  0  0  0  0  0  0  0  0
   -7.4892    2.1266   25.4539 C   0  0  2  0  0  0  0  0  0  0  0  0
   -7.2776    1.2249   26.6672 C   0  0  0  0  0  0  0  0  0  0  0  0
   -8.2300    0.8446   27.3518 O   0  0  0  0  0  0  0  0  0  0  0  0
   -7.2611    1.3670   24.1504 C   0  0  0  0  0  0  0  0  0  0  0  0
   -8.3028    0.2897   23.8908 C   0  0  0  0  0  0  0  0  0  0  0  0
   -7.9900   -0.6865   22.3990 S   0  0  2  0  0  0  0  0  0  0  0  0
   -6.2990   -1.2460   22.7218 C   0  0  0  0  0  0  0  0  0  0  0  0
   -7.7030    0.6266   21.1817 C   0  0  0  0  0  0  0  0  0  0  0  0
   -9.0117    0.9576   20.4788 C   0  0  1  0  0  0  0  0  0  0  0  0
   -8.8709    2.2072   19.8462 O   0  0  0  0  0  0  0  0  0  0  0  0
   -9.4186    0.0106   19.3653 C   0  0  1  0  0  0  0  0  0  0  0  0
  -10.3236   -0.9626   19.8370 O   0  0  0  0  0  0  0  0  0  0  0  0
  -10.1087    0.9253   18.3738 C   0  0  1  0  0  0  0  0  0  0  0  0
  -11.4953    0.7057   18.4566 O   0  0  0  0  0  0  0  0  0  0  0  0
   -9.7943    2.3535   18.7980 C   0  0  2  0  0  0  0  0  0  0  0  0
   -6.1457    0.8631   26.9891 O   0  0  0  0  0  0  0  0  0  0  0  0
   -5.9396    2.2551   15.2054 N   0  0  0  0  0  0  0  0  0  0  0  0
   -6.2398    1.3026   16.1591 C   0  0  0  0  0  0  0  0  0  0  0  0
   -7.2940    1.4901   17.0330 N   0  0  0  0  0  0  0  0  0  0  0  0
   -8.0445    2.6155   16.9672 C   0  0  0  0  0  0  0  0  0  0  0  0
   -7.7627    3.5809   16.0085 C   0  0  0  0  0  0  0  0  0  0  0  0
   -6.7026    3.4001   15.1286 C   0  0  0  0  0  0  0  0  0  0  0  0
   -6.4269    4.3293   14.2166 N   0  0  0  0  0  0  0  0  0  0  0  0
   -8.6556    4.5834   16.1552 N   0  0  0  0  0  0  0  0  0  0  0  0
   -9.4994    4.2675   17.1656 C   0  0  0  0  0  0  0  0  0  0  0  0
   -9.1362    3.0510   17.6805 N   0  0  0  0  0  0  0  0  0  0  0  0
  2  1  1  1  0  0  0
  2  3  1  0  0  0  0
  2  5  1  0  0  0  0
  3  4  1  0  0  0  0
  3 17  1  0  0  0  0
  5  6  1  0  0  0  0
  7  6  1  1  0  0  0
  7  8  1  0  0  0  0
  7  9  1  0  0  0  0
 10  9  1  6  0  0  0
 10 11  1  0  0  0  0
 10 12  1  0  0  0  0
 11 16  1  0  0  0  0
 12 13  1  1  0  0  0
 12 14  1  0  0  0  0
 14 15  1  1  0  0  0
 14 16  1  0  0  0  0
 16 27  1  6  0  0  0
 18 19  2  0  0  0  0
 18 23  1  0  0  0  0
 19 20  1  0  0  0  0
 20 21  2  0  0  0  0
 21 22  1  0  0  0  0
 21 27  1  0  0  0  0
 22 23  2  0  0  0  0
 22 25  1  0  0  0  0
 23 24  1  0  0  0  0
 25 26  2  0  0  0  0
 26 27  1  0  0  0  0
M  END
>  <CHROM.1>
127.10703150,-167.53621939,-176.52036743,54.32180185,-93.19987869,162.90658758
61.61987023,-8.09332432,1.52738455,20.35150141,-1.49527407,-0.76298779,-1.29791595

>  <Name>
ligand

>  <RI>
0

>  <Rbt.Current_Directory>
/home/itssahil/PROJECTS/Mol_Feturizer/New_Systems/rnas/3GX6

>  <Rbt.Executable>
rbdock ($Id: //depot/dev/client3/rdock/2013.1/src/exe/rbdock.cxx#4 $)

>  <Rbt.Library>
libRbt.so (2013.1, Build901 2013/11/27)

>  <Rbt.Parameter_File>
/export/apps/rDock/src/rDock_2013.1_src/data/scripts/dock_solv.prm

>  <Rbt.Receptor>
prm/blind_docking_40.prm

>  <SCORE>
-21.6104

>  <SCORE.INTER>
-12.4612

>  <SCORE.INTER.CONST>
1

>  <SCORE.INTER.POLAR>
0

>  <SCORE.INTER.ROT>
7

>  <SCORE.INTER.SOLV>
10.0584

>  <SCORE.INTER.VDW>
-19.9269

>  <SCORE.INTER.norm>
-0.461524

>  <SCORE.INTRA>
-9.16019

>  <SCORE.INTRA.DIHEDRAL>
-8.66163

>  <SCORE.INTRA.DIHEDRAL.0>
15.0182

>  <SCORE.INTRA.POLAR>
0

>  <SCORE.INTRA.POLAR.0>
0

>  <SCORE.INTRA.REPUL>
0

>  <SCORE.INTRA.REPUL.0>
0

>  <SCORE.INTRA.SOLV>
-1.73248

>  <SCORE.INTRA.SOLV.lig_0>
-47.9129

>  <SCORE.INTRA.VDW>
-3.96314

>  <SCORE.INTRA.VDW.0>
2.00851

>  <SCORE.INTRA.norm>
-0.339266

>  <SCORE.RESTR>
0.0109441

>  <SCORE.RESTR.CAVITY>
0.0109441

>  <SCORE.RESTR.norm>
0.000405335

>  <SCORE.SYSTEM>
0

>  <SCORE.SYSTEM.CONST>
0

>  <SCORE.SYSTEM.DIHEDRAL>
0

>  <SCORE.SYSTEM.SOLV>
0

>  <SCORE.SYSTEM.norm>
0

>  <SCORE.heavy>
27

>  <SCORE.norm>
-0.800385

>  <RMSD>
16.051

$$$$
ligand
 OpenBabel11021811483D
libRbt.so/2013.1/901 2013/11/27
 27 29  0  0  0  0  0  0  0  0999 V2000
   -9.1316   -9.4898   25.2150 N   0  0  0  0  0  0  0  0  0  0  0  0
   -9.8635  -10.5333   24.5021 C   0  0  2  0  0  0  0  0  0  0  0  0
  -10.7114  -11.3808   25.4471 C   0  0  0  0  0  0  0  0  0  0  0  0
  -10.3967  -11.5227   26.6308 O   0  0  0  0  0  0  0  0  0  0  0  0
   -8.9143  -11.3993   23.6795 C   0  0  0  0  0  0  0  0  0  0  0  0
   -8.0343  -12.3031   24.5290 C   0  0  0  0  0  0  0  0  0  0  0  0
   -6.8822  -13.3160   23.5682 S   0  0  2  0  0  0  0  0  0  0  0  0
   -5.8536  -12.0260   22.8236 C   0  0  0  0  0  0  0  0  0  0  0  0
   -7.9280  -13.7903   22.1647 C   0  0  0  0  0  0  0  0  0  0  0  0
   -7.1428  -14.7069   21.2376 C   0  0  1  0  0  0  0  0  0  0  0  0
   -6.7794  -15.8600   21.9586 O   0  0  0  0  0  0  0  0  0  0  0  0
   -7.9025  -15.2335   20.0345 C   0  0  1  0  0  0  0  0  0  0  0  0
   -7.6505  -14.4432   18.8940 O   0  0  0  0  0  0  0  0  0  0  0  0
   -7.3227  -16.6205   19.8443 C   0  0  1  0  0  0  0  0  0  0  0  0
   -6.4672  -16.5959   18.7284 O   0  0  0  0  0  0  0  0  0  0  0  0
   -6.5156  -16.9369   21.0962 C   0  0  2  0  0  0  0  0  0  0  0  0
  -11.7274  -11.9452   25.0412 O   0  0  0  0  0  0  0  0  0  0  0  0
  -10.3255  -20.5783   21.0811 N   0  0  0  0  0  0  0  0  0  0  0  0
  -10.1981  -19.4752   20.2602 C   0  0  0  0  0  0  0  0  0  0  0  0
   -9.1278  -18.6124   20.4025 N   0  0  0  0  0  0  0  0  0  0  0  0
   -8.1910  -18.8365   21.3544 C   0  0  0  0  0  0  0  0  0  0  0  0
   -8.2980  -19.9460   22.1839 C   0  0  0  0  0  0  0  0  0  0  0  0
   -9.3729  -20.8161   22.0481 C   0  0  0  0  0  0  0  0  0  0  0  0
   -9.4803  -21.8735   22.8491 N   0  0  0  0  0  0  0  0  0  0  0  0
   -7.2428  -19.9365   23.0265 N   0  0  0  0  0  0  0  0  0  0  0  0
   -6.4683  -18.8641   22.7388 C   0  0  0  0  0  0  0  0  0  0  0  0
   -7.0401  -18.1710   21.7048 N   0  0  0  0  0  0  0  0  0  0  0  0
  2  1  1  1  0  0  0
  2  3  1  0  0  0  0
  2  5  1  0  0  0  0
  3  4  1  0  0  0  0
  3 17  1  0  0  0  0
  5  6  1  0  0  0  0
  7  6  1  1  0  0  0
  7  8  1  0  0  0  0
  7  9  1  0  0  0  0
 10  9  1  1  0  0  0
 10 11  1  0  0  0  0
 10 12  1  0  0  0  0
 11 16  1  0  0  0  0
 12 13  1  6  0  0  0
 12 14  1  0  0  0  0
 14 15  1  6  0  0  0
 14 16  1  0  0  0  0
 16 27  1  1  0  0  0
 18 19  2  0  0  0  0
 18 23  1  0  0  0  0
 19 20  1  0  0  0  0
 20 21  2  0  0  0  0
 21 22  1  0  0  0  0
 21 27  1  0  0  0  0
 22 23  2  0  0  0  0
 22 25  1  0  0  0  0
 23 24  1  0  0  0  0
 25 26  2  0  0  0  0
 26 27  1  0  0  0  0
M  END
>  <CHROM.1>
-27.17313352,70.98955241,-178.99221491,63.75186929,-178.06785614,60.91674535
103.55213669,-8.25629442,-15.51918832,22.40374724,1.70093049,0.82846518,0.29541812

>  <Name>
ligand

>  <RI>
0

>  <Rbt.Current_Directory>
/home/itssahil/PROJECTS/Mol_Feturizer/New_Systems/rnas/3GX6

>  <Rbt.Executable>
rbdock ($Id: //depot/dev/client3/rdock/2013.1/src/exe/rbdock.cxx#4 $)

>  <Rbt.Library>
libRbt.so (2013.1, Build901 2013/11/27)

>  <Rbt.Parameter_File>
/export/apps/rDock/src/rDock_2013.1_src/data/scripts/dock_solv.prm

>  <Rbt.Receptor>
prm/blind_docking_100.prm

>  <SCORE>
-28.2275

>  <SCORE.INTER>
-20.1882

>  <SCORE.INTER.CONST>
1

>  <SCORE.INTER.POLAR>
0

>  <SCORE.INTER.ROT>
7

>  <SCORE.INTER.SOLV>
16.2271

>  <SCORE.INTER.VDW>
-27.1345

>  <SCORE.INTER.norm>
-0.747711

>  <SCORE.INTRA>
-8.03926

>  <SCORE.INTRA.DIHEDRAL>
-10.6911

>  <SCORE.INTRA.DIHEDRAL.0>
15.0182

>  <SCORE.INTRA.POLAR>
0

>  <SCORE.INTRA.POLAR.0>
0

>  <SCORE.INTRA.REPUL>
0

>  <SCORE.INTRA.REPUL.0>
0

>  <SCORE.INTRA.SOLV>
-1.21007

>  <SCORE.INTRA.SOLV.lig_0>
-47.9129

>  <SCORE.INTRA.VDW>
-2.08869

>  <SCORE.INTRA.VDW.0>
2.00851

>  <SCORE.INTRA.norm>
-0.29775

>  <SCORE.RESTR>
0

>  <SCORE.RESTR.CAVITY>
0

>  <SCORE.RESTR.norm>
0

>  <SCORE.SYSTEM>
0

>  <SCORE.SYSTEM.CONST>
0

>  <SCORE.SYSTEM.DIHEDRAL>
0

>  <SCORE.SYSTEM.SOLV>
0

>  <SCORE.SYSTEM.norm>
0

>  <SCORE.heavy>
27

>  <SCORE.norm>
-1.04546

>  <RMSD>
16.099

$$$$
ligand
 OpenBabel11021811483D
libRbt.so/2013.1/901 2013/11/27
 27 29  0  0  0  0  0  0  0  0999 V2000
   -6.5918    2.7976   16.5134 N   0  0  0  0  0  0  0  0  0  0  0  0
   -8.0312    2.9895   16.3578 C   0  0  2  0  0  0  0  0  0  0  0  0
   -8.5297    2.4867   15.0055 C   0  0  0  0  0  0  0  0  0  0  0  0
   -9.7227    2.2367   14.8193 O   0  0  0  0  0  0  0  0  0  0  0  0
   -8.4135    4.4493   16.5833 C   0  0  0  0  0  0  0  0  0  0  0  0
   -8.2702    4.8928   18.0310 C   0  0  0  0  0  0  0  0  0  0  0  0
   -9.2945    3.9521   19.1895 S   0  0  2  0  0  0  0  0  0  0  0  0
  -10.9380    4.5723   18.7525 C   0  0  0  0  0  0  0  0  0  0  0  0
   -8.9771    4.8463   20.7348 C   0  0  0  0  0  0  0  0  0  0  0  0
   -8.0154    4.0400   21.5958 C   0  0  1  0  0  0  0  0  0  0  0  0
   -8.5001    2.7214   21.6850 O   0  0  0  0  0  0  0  0  0  0  0  0
   -6.6080    3.8924   21.0488 C   0  0  1  0  0  0  0  0  0  0  0  0
   -5.7462    4.8587   21.6075 O   0  0  0  0  0  0  0  0  0  0  0  0
   -6.2050    2.5068   21.5112 C   0  0  1  0  0  0  0  0  0  0  0  0
   -5.2946    2.6401   22.5748 O   0  0  0  0  0  0  0  0  0  0  0  0
   -7.4708    1.8221   22.0088 C   0  0  2  0  0  0  0  0  0  0  0  0
   -7.7447    2.3159   14.0726 O   0  0  0  0  0  0  0  0  0  0  0  0
  -10.3182   -0.6936   18.3566 N   0  0  0  0  0  0  0  0  0  0  0  0
  -10.4781    0.5967   18.8218 C   0  0  0  0  0  0  0  0  0  0  0  0
   -9.6364    1.1033   19.7940 N   0  0  0  0  0  0  0  0  0  0  0  0
   -8.6450    0.3365   20.3068 C   0  0  0  0  0  0  0  0  0  0  0  0
   -8.4635   -0.9613   19.8449 C   0  0  0  0  0  0  0  0  0  0  0  0
   -9.3077   -1.4778   18.8695 C   0  0  0  0  0  0  0  0  0  0  0  0
   -9.1397   -2.7241   18.4341 N   0  0  0  0  0  0  0  0  0  0  0  0
   -7.4151   -1.4943   20.5084 N   0  0  0  0  0  0  0  0  0  0  0  0
   -6.9230   -0.5640   21.3599 C   0  0  0  0  0  0  0  0  0  0  0  0
   -7.6724    0.5773   21.2484 N   0  0  0  0  0  0  0  0  0  0  0  0
  2  1  1  6  0  0  0
  2  3  1  0  0  0  0
  2  5  1  0  0  0  0
  3  4  1  0  0  0  0
  3 17  1  0  0  0  0
  5  6  1  0  0  0  0
  7  6  1  6  0  0  0
  7  8  1  0  0  0  0
  7  9  1  0  0  0  0
 10  9  1  6  0  0  0
 10 11  1  0  0  0  0
 10 12  1  0  0  0  0
 11 16  1  0  0  0  0
 12 13  1  1  0  0  0
 12 14  1  0  0  0  0
 14 15  1  1  0  0  0
 14 16  1  0  0  0  0
 16 27  1  6  0  0  0
 18 19  2  0  0  0  0
 18 23  1  0  0  0  0
 19 20  1  0  0  0  0
 20 21  2  0  0  0  0
 21 22  1  0  0  0  0
 21 27  1  0  0  0  0
 22 23  2  0  0  0  0
 22 25  1  0  0  0  0
 23 24  1  0  0  0  0
 25 26  2  0  0  0  0
 26 27  1  0  0  0  0
M  END
>  <CHROM.1>
160.81384874,-69.71893003,-59.91145496,-71.27846917,-103.53520112,-50.27483958
3.91155803,-8.26741279,2.12182782,19.22480104,-2.71085543,1.22630888,2.69474716

>  <Name>
ligand

>  <RI>
0

>  <Rbt.Current_Directory>
/home/itssahil/PROJECTS/Mol_Feturizer/New_Systems/rnas/3GX6

>  <Rbt.Executable>
rbdock ($Id: //depot/dev/client3/rdock/2013.1/src/exe/rbdock.cxx#4 $)

>  <Rbt.Library>
libRbt.so (2013.1, Build901 2013/11/27)

>  <Rbt.Parameter_File>
/export/apps/rDock/src/rDock_2013.1_src/data/scripts/dock_solv.prm

>  <Rbt.Receptor>
prm/blind_docking_40.prm

>  <SCORE>
-16.6603

>  <SCORE.INTER>
-6.54716

>  <SCORE.INTER.CONST>
1

>  <SCORE.INTER.POLAR>
0

>  <SCORE.INTER.ROT>
7

>  <SCORE.INTER.SOLV>
13.5185

>  <SCORE.INTER.VDW>
-17.1376

>  <SCORE.INTER.norm>
-0.242487

>  <SCORE.INTRA>
-10.1132

>  <SCORE.INTRA.DIHEDRAL>
-8.31962

>  <SCORE.INTRA.DIHEDRAL.0>
15.0182

>  <SCORE.INTRA.POLAR>
0

>  <SCORE.INTRA.POLAR.0>
0

>  <SCORE.INTRA.REPUL>
0

>  <SCORE.INTRA.REPUL.0>
0

>  <SCORE.INTRA.SOLV>
-0.402297

>  <SCORE.INTRA.SOLV.lig_0>
-47.9129

>  <SCORE.INTRA.VDW>
-5.7522

>  <SCORE.INTRA.VDW.0>
2.00851

>  <SCORE.INTRA.norm>
-0.374562

>  <SCORE.RESTR>
0

>  <SCORE.RESTR.CAVITY>
0

>  <SCORE.RESTR.norm>
0

>  <SCORE.SYSTEM>
0

>  <SCORE.SYSTEM.CONST>
0

>  <SCORE.SYSTEM.DIHEDRAL>
0

>  <SCORE.SYSTEM.SOLV>
0

>  <SCORE.SYSTEM.norm>
0

>  <SCORE.heavy>
27

>  <SCORE.norm>
-0.617049

>  <RMSD>
16.100

$$$$
ligand
 OpenBabel11021811483D
libRbt.so/2013.1/901 2013/11/27
 27 29  0  0  0  0  0  0  0  0999 V2000
  -11.1989  -10.2162   23.5663 N   0  0  0  0  0  0  0  0  0  0  0  0
  -10.2893  -10.9560   24.4370 C   0  0  2  0  0  0  0  0  0  0  0  0
   -9.8121  -10.1086   25.6135 C   0  0  0  0  0  0  0  0  0  0  0  0
   -9.1399   -9.0906   25.4339 O   0  0  0  0  0  0  0  0  0  0  0  0
   -9.1132  -11.5182   23.6440 C   0  0  0  0  0  0  0  0  0  0  0  0
   -8.2201  -12.4383   24.4618 C   0  0  0  0  0  0  0  0  0  0  0  0
   -6.9858  -13.3243   23.4779 S   0  0  2  0  0  0  0  0  0  0  0  0
   -6.0122  -11.9357   22.8453 C   0  0  0  0  0  0  0  0  0  0  0  0
   -7.9634  -13.7674   22.0163 C   0  0  0  0  0  0  0  0  0  0  0  0
   -7.1383  -14.6729   21.1131 C   0  0  1  0  0  0  0  0  0  0  0  0
   -6.7475  -15.8026   21.8566 O   0  0  0  0  0  0  0  0  0  0  0  0
   -7.8661  -15.2420   19.9097 C   0  0  1  0  0  0  0  0  0  0  0  0
   -7.6253  -14.4619   18.7599 O   0  0  0  0  0  0  0  0  0  0  0  0
   -7.2406  -16.6126   19.7484 C   0  0  1  0  0  0  0  0  0  0  0  0
   -6.3727  -16.5782   18.6424 O   0  0  0  0  0  0  0  0  0  0  0  0
   -6.4393  -16.8838   21.0146 C   0  0  2  0  0  0  0  0  0  0  0  0
  -10.0869  -10.4306   26.7695 O   0  0  0  0  0  0  0  0  0  0  0  0
  -10.2536  -20.5174   21.1690 N   0  0  0  0  0  0  0  0  0  0  0  0
  -10.1696  -19.4044   20.3559 C   0  0  0  0  0  0  0  0  0  0  0  0
   -9.0908  -18.5455   20.4483 N   0  0  0  0  0  0  0  0  0  0  0  0
   -8.1026  -18.7833   21.3432 C   0  0  0  0  0  0  0  0  0  0  0  0
   -8.1657  -19.9027   22.1638 C   0  0  0  0  0  0  0  0  0  0  0  0
   -9.2488  -20.7690   22.0780 C   0  0  0  0  0  0  0  0  0  0  0  0
   -9.3137  -21.8360   22.8706 N   0  0  0  0  0  0  0  0  0  0  0  0
   -7.0647  -19.9058   22.9458 N   0  0  0  0  0  0  0  0  0  0  0  0
   -6.3048  -18.8314   22.6281 C   0  0  0  0  0  0  0  0  0  0  0  0
   -6.9320  -18.1243   21.6365 N   0  0  0  0  0  0  0  0  0  0  0  0
  2  1  1  6  0  0  0
  2  3  1  0  0  0  0
  2  5  1  0  0  0  0
  3  4  1  0  0  0  0
  3 17  1  0  0  0  0
  5  6  1  0  0  0  0
  7  6  1  1  0  0  0
  7  8  1  0  0  0  0
  7  9  1  0  0  0  0
 10  9  1  1  0  0  0
 10 11  1  0  0  0  0
 10 12  1  0  0  0  0
 11 16  1  0  0  0  0
 12 13  1  6  0  0  0
 12 14  1  0  0  0  0
 14 15  1  6  0  0  0
 14 16  1  0  0  0  0
 16 27  1  1  0  0  0
 18 19  2  0  0  0  0
 18 23  1  0  0  0  0
 19 20  1  0  0  0  0
 20 21  2  0  0  0  0
 21 22  1  0  0  0  0
 21 27  1  0  0  0  0
 22 23  2  0  0  0  0
 22 25  1  0  0  0  0
 23 24  1  0  0  0  0
 25 26  2  0  0  0  0
 26 27  1  0  0  0  0
M  END
>  <CHROM.1>
-63.21163307,-173.05764641,170.50207849,62.92088144,-173.55414238,57.32473469
98.89710970,-8.17844274,-15.34244489,22.32599815,1.73529886,0.94107455,0.23648213

>  <Name>
ligand

>  <RI>
0

>  <Rbt.Current_Directory>
/home/itssahil/PROJECTS/Mol_Feturizer/New_Systems/rnas/3GX6

>  <Rbt.Executable>
rbdock ($Id: //depot/dev/client3/rdock/2013.1/src/exe/rbdock.cxx#4 $)

>  <Rbt.Library>
libRbt.so (2013.1, Build901 2013/11/27)

>  <Rbt.Parameter_File>
/export/apps/rDock/src/rDock_2013.1_src/data/scripts/dock_solv.prm

>  <Rbt.Receptor>
prm/blind_docking_100.prm

>  <SCORE>
-28.3632

>  <SCORE.INTER>
-19.8951

>  <SCORE.INTER.CONST>
1

>  <SCORE.INTER.POLAR>
0

>  <SCORE.INTER.ROT>
7

>  <SCORE.INTER.SOLV>
14.5543

>  <SCORE.INTER.VDW>
-26.3815

>  <SCORE.INTER.norm>
-0.736856

>  <SCORE.INTRA>
-8.46812

>  <SCORE.INTRA.DIHEDRAL>
-10.3349

>  <SCORE.INTRA.DIHEDRAL.0>
15.0182

>  <SCORE.INTRA.POLAR>
0

>  <SCORE.INTRA.POLAR.0>
0

>  <SCORE.INTRA.REPUL>
0

>  <SCORE.INTRA.REPUL.0>
0

>  <SCORE.INTRA.SOLV>
-1.82057

>  <SCORE.INTRA.SOLV.lig_0>
-47.9129

>  <SCORE.INTRA.VDW>
-2.3904

>  <SCORE.INTRA.VDW.0>
2.00851

>  <SCORE.INTRA.norm>
-0.313634

>  <SCORE.RESTR>
0

>  <SCORE.RESTR.CAVITY>
0

>  <SCORE.RESTR.norm>
0

>  <SCORE.SYSTEM>
0

>  <SCORE.SYSTEM.CONST>
0

>  <SCORE.SYSTEM.DIHEDRAL>
0

>  <SCORE.SYSTEM.SOLV>
0

>  <SCORE.SYSTEM.norm>
0

>  <SCORE.heavy>
27

>  <SCORE.norm>
-1.05049

>  <RMSD>
16.112

$$$$
ligand
 OpenBabel11021811483D
libRbt.so/2013.1/901 2013/11/27
 27 29  0  0  0  0  0  0  0  0999 V2000
   -7.4075    1.0833   22.3113 N   0  0  0  0  0  0  0  0  0  0  0  0
   -8.5957    0.3467   21.8889 C   0  0  2  0  0  0  0  0  0  0  0  0
   -9.1330   -0.5521   22.9995 C   0  0  0  0  0  0  0  0  0  0  0  0
   -8.4292   -0.8642   23.9627 O   0  0  0  0  0  0  0  0  0  0  0  0
   -8.3201   -0.4476   20.6157 C   0  0  0  0  0  0  0  0  0  0  0  0
   -7.8726    0.4200   19.4494 C   0  0  0  0  0  0  0  0  0  0  0  0
   -9.1020    1.6447   18.9344 S   0  0  2  0  0  0  0  0  0  0  0  0
  -10.3450    0.5654   18.1817 C   0  0  0  0  0  0  0  0  0  0  0  0
   -8.3000    2.3412   17.4647 C   0  0  0  0  0  0  0  0  0  0  0  0
   -7.3095    3.4150   17.8916 C   0  0  1  0  0  0  0  0  0  0  0  0
   -8.0281    4.4680   18.4887 O   0  0  0  0  0  0  0  0  0  0  0  0
   -6.2997    2.9978   18.9444 C   0  0  1  0  0  0  0  0  0  0  0  0
   -5.0830    2.6066   18.3485 O   0  0  0  0  0  0  0  0  0  0  0  0
   -6.1006    4.2663   19.7488 C   0  0  1  0  0  0  0  0  0  0  0  0
   -4.8500    4.8147   19.4123 O   0  0  0  0  0  0  0  0  0  0  0  0
   -7.2053    5.2292   19.3352 C   0  0  2  0  0  0  0  0  0  0  0  0
  -10.2832   -0.9882   22.9511 O   0  0  0  0  0  0  0  0  0  0  0  0
   -8.0576    8.8733   23.0459 N   0  0  0  0  0  0  0  0  0  0  0  0
   -7.1508    8.9130   22.0052 C   0  0  0  0  0  0  0  0  0  0  0  0
   -7.0550    7.8601   21.1151 N   0  0  0  0  0  0  0  0  0  0  0  0
   -7.8484    6.7717   21.2560 C   0  0  0  0  0  0  0  0  0  0  0  0
   -8.7727    6.7176   22.2920 C   0  0  0  0  0  0  0  0  0  0  0  0
   -8.8724    7.7716   23.1921 C   0  0  0  0  0  0  0  0  0  0  0  0
   -9.7511    7.7155   24.1900 N   0  0  0  0  0  0  0  0  0  0  0  0
   -9.4310    5.5423   22.1989 N   0  0  0  0  0  0  0  0  0  0  0  0
   -8.9594    4.8654   21.1256 C   0  0  0  0  0  0  0  0  0  0  0  0
   -7.9782    5.6122   20.5286 N   0  0  0  0  0  0  0  0  0  0  0  0
  2  1  1  1  0  0  0
  2  3  1  0  0  0  0
  2  5  1  0  0  0  0
  3  4  1  0  0  0  0
  3 17  1  0  0  0  0
  5  6  1  0  0  0  0
  7  6  1  6  0  0  0
  7  8  1  0  0  0  0
  7  9  1  0  0  0  0
 10  9  1  1  0  0  0
 10 11  1  0  0  0  0
 10 12  1  0  0  0  0
 11 16  1  0  0  0  0
 12 13  1  6  0  0  0
 12 14  1  0  0  0  0
 14 15  1  6  0  0  0
 14 16  1  0  0  0  0
 16 27  1  1  0  0  0
 18 19  2  0  0  0  0
 18 23  1  0  0  0  0
 19 20  1  0  0  0  0
 20 21  2  0  0  0  0
 21 22  1  0  0  0  0
 21 27  1  0  0  0  0
 22 23  2  0  0  0  0
 22 25  1  0  0  0  0
 23 24  1  0  0  0  0
 25 26  2  0  0  0  0
 26 27  1  0  0  0  0
M  END
>  <CHROM.1>
-18.09683548,-58.61577948,-61.73695208,-70.74948585,-83.33676265,-64.43794747
-147.33930817,-8.05695439,3.57087135,20.68670439,1.79913529,-1.11450120,-2.76723530

>  <Name>
ligand

>  <RI>
0

>  <Rbt.Current_Directory>
/home/itssahil/PROJECTS/Mol_Feturizer/New_Systems/rnas/3GX6

>  <Rbt.Executable>
rbdock ($Id: //depot/dev/client3/rdock/2013.1/src/exe/rbdock.cxx#4 $)

>  <Rbt.Library>
libRbt.so (2013.1, Build901 2013/11/27)

>  <Rbt.Parameter_File>
/export/apps/rDock/src/rDock_2013.1_src/data/scripts/dock_solv.prm

>  <Rbt.Receptor>
prm/blind_docking_60.prm

>  <SCORE>
-24.7211

>  <SCORE.INTER>
-14.6973

>  <SCORE.INTER.CONST>
1

>  <SCORE.INTER.POLAR>
0

>  <SCORE.INTER.ROT>
7

>  <SCORE.INTER.SOLV>
5.87319

>  <SCORE.INTER.VDW>
-20.0226

>  <SCORE.INTER.norm>
-0.544344

>  <SCORE.INTRA>
-10.0238

>  <SCORE.INTRA.DIHEDRAL>
-11.1256

>  <SCORE.INTRA.DIHEDRAL.0>
15.0182

>  <SCORE.INTRA.POLAR>
0

>  <SCORE.INTRA.POLAR.0>
0

>  <SCORE.INTRA.REPUL>
0

>  <SCORE.INTRA.REPUL.0>
0

>  <SCORE.INTRA.SOLV>
0.412958

>  <SCORE.INTRA.SOLV.lig_0>
-47.9129

>  <SCORE.INTRA.VDW>
-4.66752

>  <SCORE.INTRA.VDW.0>
2.00851

>  <SCORE.INTRA.norm>
-0.371253

>  <SCORE.RESTR>
0

>  <SCORE.RESTR.CAVITY>
0

>  <SCORE.RESTR.norm>
0

>  <SCORE.SYSTEM>
0

>  <SCORE.SYSTEM.CONST>
0

>  <SCORE.SYSTEM.DIHEDRAL>
0

>  <SCORE.SYSTEM.SOLV>
0

>  <SCORE.SYSTEM.norm>
0

>  <SCORE.heavy>
27

>  <SCORE.norm>
-0.915597

>  <RMSD>
16.137

$$$$
ligand
 OpenBabel11021811483D
libRbt.so/2013.1/901 2013/11/27
 27 29  0  0  0  0  0  0  0  0999 V2000
   -6.6861    0.8297   21.6466 N   0  0  0  0  0  0  0  0  0  0  0  0
   -8.0776    1.2647   21.7325 C   0  0  2  0  0  0  0  0  0  0  0  0
   -8.7518    0.7673   23.0084 C   0  0  0  0  0  0  0  0  0  0  0  0
   -8.8748   -0.4384   23.2354 O   0  0  0  0  0  0  0  0  0  0  0  0
   -8.8577    0.8426   20.4910 C   0  0  0  0  0  0  0  0  0  0  0  0
   -8.6859   -0.6278   20.1425 C   0  0  0  0  0  0  0  0  0  0  0  0
   -9.6234   -1.1488   18.6845 S   0  0  2  0  0  0  0  0  0  0  0  0
   -8.9913   -2.8316   18.4721 C   0  0  0  0  0  0  0  0  0  0  0  0
   -8.7361   -0.2680   17.3711 C   0  0  0  0  0  0  0  0  0  0  0  0
   -9.5618    0.9279   16.9188 C   0  0  1  0  0  0  0  0  0  0  0  0
   -9.9275    1.6697   18.0579 O   0  0  0  0  0  0  0  0  0  0  0  0
   -8.8434    1.9251   16.0292 C   0  0  1  0  0  0  0  0  0  0  0  0
   -9.1102    1.6699   14.6682 O   0  0  0  0  0  0  0  0  0  0  0  0
   -9.4533    3.2502   16.4390 C   0  0  1  0  0  0  0  0  0  0  0  0
  -10.3368    3.6654   15.4267 O   0  0  0  0  0  0  0  0  0  0  0  0
  -10.2333    2.9990   17.7224 C   0  0  2  0  0  0  0  0  0  0  0  0
   -9.1920    1.5652   23.8362 O   0  0  0  0  0  0  0  0  0  0  0  0
   -6.0051    4.6677   20.3894 N   0  0  0  0  0  0  0  0  0  0  0  0
   -6.0578    3.7326   19.3746 C   0  0  0  0  0  0  0  0  0  0  0  0
   -7.2622    3.4073   18.7798 N   0  0  0  0  0  0  0  0  0  0  0  0
   -8.4089    3.9999   19.1894 C   0  0  0  0  0  0  0  0  0  0  0  0
   -8.3741    4.9494   20.2032 C   0  0  0  0  0  0  0  0  0  0  0  0
   -7.1671    5.2793   20.8074 C   0  0  0  0  0  0  0  0  0  0  0  0
   -7.1353    6.1818   21.7850 N   0  0  0  0  0  0  0  0  0  0  0  0
   -9.6366    5.3824   20.4087 N   0  0  0  0  0  0  0  0  0  0  0  0
  -10.4594    4.7457   19.5425 C   0  0  0  0  0  0  0  0  0  0  0  0
   -9.7159    3.8853   18.7785 N   0  0  0  0  0  0  0  0  0  0  0  0
  2  1  1  6  0  0  0
  2  3  1  0  0  0  0
  2  5  1  0  0  0  0
  3  4  1  0  0  0  0
  3 17  1  0  0  0  0
  5  6  1  0  0  0  0
  7  6  1  1  0  0  0
  7  8  1  0  0  0  0
  7  9  1  0  0  0  0
 10  9  1  1  0  0  0
 10 11  1  0  0  0  0
 10 12  1  0  0  0  0
 11 16  1  0  0  0  0
 12 13  1  6  0  0  0
 12 14  1  0  0  0  0
 14 15  1  6  0  0  0
 14 16  1  0  0  0  0
 16 27  1  1  0  0  0
 18 19  2  0  0  0  0
 18 23  1  0  0  0  0
 19 20  1  0  0  0  0
 20 21  2  0  0  0  0
 21 22  1  0  0  0  0
 21 27  1  0  0  0  0
 22 23  2  0  0  0  0
 22 25  1  0  0  0  0
 23 24  1  0  0  0  0
 25 26  2  0  0  0  0
 26 27  1  0  0  0  0
M  END
>  <CHROM.1>
-61.59407643,50.07843953,179.21485920,172.55124365,-104.45542920,51.17614530
58.87437089,-8.74573097,2.06978519,19.32312958,0.00752579,1.29635127,2.57595596

>  <Name>
ligand

>  <RI>
0

>  <Rbt.Current_Directory>
/home/itssahil/PROJECTS/Mol_Feturizer/New_Systems/rnas/3GX6

>  <Rbt.Executable>
rbdock ($Id: //depot/dev/client3/rdock/2013.1/src/exe/rbdock.cxx#4 $)

>  <Rbt.Library>
libRbt.so (2013.1, Build901 2013/11/27)

>  <Rbt.Parameter_File>
/export/apps/rDock/src/rDock_2013.1_src/data/scripts/dock_solv.prm

>  <Rbt.Receptor>
prm/blind_docking_60.prm

>  <SCORE>
-20.4232

>  <SCORE.INTER>
-10.1202

>  <SCORE.INTER.CONST>
1

>  <SCORE.INTER.POLAR>
0

>  <SCORE.INTER.ROT>
7

>  <SCORE.INTER.SOLV>
7.53553

>  <SCORE.INTER.VDW>
-17.5253

>  <SCORE.INTER.norm>
-0.374822

>  <SCORE.INTRA>
-10.303

>  <SCORE.INTRA.DIHEDRAL>
-8.31656

>  <SCORE.INTRA.DIHEDRAL.0>
15.0182

>  <SCORE.INTRA.POLAR>
0

>  <SCORE.INTRA.POLAR.0>
0

>  <SCORE.INTRA.REPUL>
0

>  <SCORE.INTRA.REPUL.0>
0

>  <SCORE.INTRA.SOLV>
-0.592049

>  <SCORE.INTRA.SOLV.lig_0>
-47.9129

>  <SCORE.INTRA.VDW>
-5.84867

>  <SCORE.INTRA.VDW.0>
2.00851

>  <SCORE.INTRA.norm>
-0.381592

>  <SCORE.RESTR>
0

>  <SCORE.RESTR.CAVITY>
0

>  <SCORE.RESTR.norm>
0

>  <SCORE.SYSTEM>
0

>  <SCORE.SYSTEM.CONST>
0

>  <SCORE.SYSTEM.DIHEDRAL>
0

>  <SCORE.SYSTEM.SOLV>
0

>  <SCORE.SYSTEM.norm>
0

>  <SCORE.heavy>
27

>  <SCORE.norm>
-0.756414

>  <RMSD>
16.172

$$$$
ligand
 OpenBabel11021811483D
libRbt.so/2013.1/901 2013/11/27
 27 29  0  0  0  0  0  0  0  0999 V2000
  -11.5325   -1.1892   11.5063 N   0  0  0  0  0  0  0  0  0  0  0  0
  -10.9503   -0.6064   12.7123 C   0  0  2  0  0  0  0  0  0  0  0  0
  -11.4571    0.8118   12.9609 C   0  0  0  0  0  0  0  0  0  0  0  0
  -11.1383    1.7417   12.2167 O   0  0  0  0  0  0  0  0  0  0  0  0
   -9.4262   -0.6502   12.6572 C   0  0  0  0  0  0  0  0  0  0  0  0
   -8.7692   -0.4875   14.0191 C   0  0  0  0  0  0  0  0  0  0  0  0
   -9.1703    1.0732   14.8434 S   0  0  2  0  0  0  0  0  0  0  0  0
   -8.3289    2.2465   13.7517 C   0  0  0  0  0  0  0  0  0  0  0  0
   -8.0313    1.0210   16.2535 C   0  0  0  0  0  0  0  0  0  0  0  0
   -8.5331    0.0055   17.2700 C   0  0  1  0  0  0  0  0  0  0  0  0
   -7.4858   -0.2780   18.1668 O   0  0  0  0  0  0  0  0  0  0  0  0
   -9.6763    0.4686   18.1535 C   0  0  1  0  0  0  0  0  0  0  0  0
  -10.9172    0.0420   17.6369 O   0  0  0  0  0  0  0  0  0  0  0  0
   -9.3945   -0.2270   19.4698 C   0  0  1  0  0  0  0  0  0  0  0  0
  -10.3057   -1.2881   19.6164 O   0  0  0  0  0  0  0  0  0  0  0  0
   -7.9790   -0.7813   19.3818 C   0  0  2  0  0  0  0  0  0  0  0  0
  -12.1933    1.0552   13.9172 O   0  0  0  0  0  0  0  0  0  0  0  0
   -7.5292    2.9984   23.0269 N   0  0  0  0  0  0  0  0  0  0  0  0
   -8.5380    2.8244   22.1001 C   0  0  0  0  0  0  0  0  0  0  0  0
   -8.4983    1.7706   21.2067 N   0  0  0  0  0  0  0  0  0  0  0  0
   -7.4643    0.8963   21.2266 C   0  0  0  0  0  0  0  0  0  0  0  0
   -6.4445    1.0505   22.1576 C   0  0  0  0  0  0  0  0  0  0  0  0
   -6.4768    2.1092   23.0570 C   0  0  0  0  0  0  0  0  0  0  0  0
   -5.4951    2.2622   23.9424 N   0  0  0  0  0  0  0  0  0  0  0  0
   -5.5553    0.0522   21.9671 N   0  0  0  0  0  0  0  0  0  0  0  0
   -5.9956   -0.7331   20.9562 C   0  0  0  0  0  0  0  0  0  0  0  0
   -7.1777   -0.2256   20.4853 N   0  0  0  0  0  0  0  0  0  0  0  0
  2  1  1  6  0  0  0
  2  3  1  0  0  0  0
  2  5  1  0  0  0  0
  3  4  1  0  0  0  0
  3 17  1  0  0  0  0
  5  6  1  0  0  0  0
  7  6  1  6  0  0  0
  7  8  1  0  0  0  0
  7  9  1  0  0  0  0
 10  9  1  6  0  0  0
 10 11  1  0  0  0  0
 10 12  1  0  0  0  0
 11 16  1  0  0  0  0
 12 13  1  6  0  0  0
 12 14  1  0  0  0  0
 14 15  1  6  0  0  0
 14 16  1  0  0  0  0
 16 27  1  1  0  0  0
 18 19  2  0  0  0  0
 18 23  1  0  0  0  0
 19 20  1  0  0  0  0
 20 21  2  0  0  0  0
 21 22  1  0  0  0  0
 21 27  1  0  0  0  0
 22 23  2  0  0  0  0
 22 25  1  0  0  0  0
 23 24  1  0  0  0  0
 25 26  2  0  0  0  0
 26 27  1  0  0  0  0
M  END
>  <CHROM.1>
-68.82650071,-161.40906292,-59.77724395,-67.56705509,-73.62697957,164.79861368
94.12463583,-8.77081673,0.60210615,17.68474848,-2.25785522,-0.95038493,0.88662079

>  <Name>
ligand

>  <RI>
0

>  <Rbt.Current_Directory>
/home/itssahil/PROJECTS/Mol_Feturizer/New_Systems/rnas/3GX6

>  <Rbt.Executable>
rbdock ($Id: //depot/dev/client3/rdock/2013.1/src/exe/rbdock.cxx#4 $)

>  <Rbt.Library>
libRbt.so (2013.1, Build901 2013/11/27)

>  <Rbt.Parameter_File>
/export/apps/rDock/src/rDock_2013.1_src/data/scripts/dock_solv.prm

>  <Rbt.Receptor>
prm/blind_docking_80.prm

>  <SCORE>
-13.3518

>  <SCORE.INTER>
-3.37695

>  <SCORE.INTER.CONST>
1

>  <SCORE.INTER.POLAR>
0

>  <SCORE.INTER.ROT>
7

>  <SCORE.INTER.SOLV>
6.76621

>  <SCORE.INTER.VDW>
-12.7734

>  <SCORE.INTER.norm>
-0.125072

>  <SCORE.INTRA>
-9.97487

>  <SCORE.INTRA.DIHEDRAL>
-9.77775

>  <SCORE.INTRA.DIHEDRAL.0>
15.0182

>  <SCORE.INTRA.POLAR>
0

>  <SCORE.INTRA.POLAR.0>
0

>  <SCORE.INTRA.REPUL>
0

>  <SCORE.INTRA.REPUL.0>
0

>  <SCORE.INTRA.SOLV>
-1.55153

>  <SCORE.INTRA.SOLV.lig_0>
-47.9129

>  <SCORE.INTRA.VDW>
-4.31023

>  <SCORE.INTRA.VDW.0>
2.00851

>  <SCORE.INTRA.norm>
-0.36944

>  <SCORE.RESTR>
0

>  <SCORE.RESTR.CAVITY>
0

>  <SCORE.RESTR.norm>
0

>  <SCORE.SYSTEM>
0

>  <SCORE.SYSTEM.CONST>
0

>  <SCORE.SYSTEM.DIHEDRAL>
0

>  <SCORE.SYSTEM.SOLV>
0

>  <SCORE.SYSTEM.norm>
0

>  <SCORE.heavy>
27

>  <SCORE.norm>
-0.494512

>  <RMSD>
16.188

$$$$
ligand
 OpenBabel11021811483D
libRbt.so/2013.1/901 2013/11/27
 27 29  0  0  0  0  0  0  0  0999 V2000
   -6.6013   -4.5870   18.7384 N   0  0  0  0  0  0  0  0  0  0  0  0
   -7.9382   -4.4435   18.1681 C   0  0  2  0  0  0  0  0  0  0  0  0
   -8.1082   -5.2751   16.8995 C   0  0  0  0  0  0  0  0  0  0  0  0
   -7.1306   -5.7177   16.2923 O   0  0  0  0  0  0  0  0  0  0  0  0
   -8.2690   -2.9751   17.9185 C   0  0  0  0  0  0  0  0  0  0  0  0
   -8.3050   -2.1412   19.1899 C   0  0  0  0  0  0  0  0  0  0  0  0
   -8.5940   -0.3779   18.9006 S   0  0  2  0  0  0  0  0  0  0  0  0
   -8.8509    0.1953   20.5982 C   0  0  0  0  0  0  0  0  0  0  0  0
  -10.2954   -0.4056   18.2739 C   0  0  0  0  0  0  0  0  0  0  0  0
  -10.6179    0.9354   17.6305 C   0  0  1  0  0  0  0  0  0  0  0  0
  -10.6793    1.9098   18.6446 O   0  0  0  0  0  0  0  0  0  0  0  0
   -9.5818    1.4641   16.6564 C   0  0  1  0  0  0  0  0  0  0  0  0
   -9.9271    1.1395   15.3281 O   0  0  0  0  0  0  0  0  0  0  0  0
   -9.6543    2.9637   16.8607 C   0  0  1  0  0  0  0  0  0  0  0  0
  -10.3219    3.5309   15.7606 O   0  0  0  0  0  0  0  0  0  0  0  0
  -10.4693    3.1979   18.1254 C   0  0  2  0  0  0  0  0  0  0  0  0
   -9.2304   -5.5161   16.4542 O   0  0  0  0  0  0  0  0  0  0  0  0
   -5.6843    4.0267   20.1728 N   0  0  0  0  0  0  0  0  0  0  0  0
   -6.0480    3.1200   19.1968 C   0  0  0  0  0  0  0  0  0  0  0  0
   -7.3606    3.0310   18.7733 N   0  0  0  0  0  0  0  0  0  0  0  0
   -8.3093    3.8309   19.3155 C   0  0  0  0  0  0  0  0  0  0  0  0
   -7.9606    4.7552   20.2925 C   0  0  0  0  0  0  0  0  0  0  0  0
   -6.6433    4.8481   20.7248 C   0  0  0  0  0  0  0  0  0  0  0  0
   -6.3112    5.7268   21.6675 N   0  0  0  0  0  0  0  0  0  0  0  0
   -9.0795    5.4207   20.6514 N   0  0  0  0  0  0  0  0  0  0  0  0
  -10.1159    4.9535   19.9165 C   0  0  0  0  0  0  0  0  0  0  0  0
   -9.6574    3.9681   19.0826 N   0  0  0  0  0  0  0  0  0  0  0  0
  2  1  1  6  0  0  0
  2  3  1  0  0  0  0
  2  5  1  0  0  0  0
  3  4  1  0  0  0  0
  3 17  1  0  0  0  0
  5  6  1  0  0  0  0
  7  6  1  1  0  0  0
  7  8  1  0  0  0  0
  7  9  1  0  0  0  0
 10  9  1  1  0  0  0
 10 11  1  0  0  0  0
 10 12  1  0  0  0  0
 11 16  1  0  0  0  0
 12 13  1  6  0  0  0
 12 14  1  0  0  0  0
 14 15  1  6  0  0  0
 14 16  1  0  0  0  0
 16 27  1  1  0  0  0
 18 19  2  0  0  0  0
 18 23  1  0  0  0  0
 19 20  1  0  0  0  0
 20 21  2  0  0  0  0
 21 22  1  0  0  0  0
 21 27  1  0  0  0  0
 22 23  2  0  0  0  0
 22 25  1  0  0  0  0
 23 24  1  0  0  0  0
 25 26  2  0  0  0  0
 26 27  1  0  0  0  0
M  END
>  <CHROM.1>
-16.60129546,-62.79131466,176.38472122,170.72125426,-165.48942009,-68.86993771
74.69772210,-8.61525998,0.85511465,18.48467655,-1.55439673,-0.73964044,0.26487522

>  <Name>
ligand

>  <RI>
0

>  <Rbt.Current_Directory>
/home/itssahil/PROJECTS/Mol_Feturizer/New_Systems/rnas/3GX6

>  <Rbt.Executable>
rbdock ($Id: //depot/dev/client3/rdock/2013.1/src/exe/rbdock.cxx#4 $)

>  <Rbt.Library>
libRbt.so (2013.1, Build901 2013/11/27)

>  <Rbt.Parameter_File>
/export/apps/rDock/src/rDock_2013.1_src/data/scripts/dock_solv.prm

>  <Rbt.Receptor>
prm/blind_docking_80.prm

>  <SCORE>
-18.9179

>  <SCORE.INTER>
-8.24114

>  <SCORE.INTER.CONST>
1

>  <SCORE.INTER.POLAR>
0

>  <SCORE.INTER.ROT>
7

>  <SCORE.INTER.SOLV>
8.52226

>  <SCORE.INTER.VDW>
-16.6015

>  <SCORE.INTER.norm>
-0.305227

>  <SCORE.INTRA>
-10.6767

>  <SCORE.INTRA.DIHEDRAL>
-10.1031

>  <SCORE.INTRA.DIHEDRAL.0>
15.0182

>  <SCORE.INTRA.POLAR>
0

>  <SCORE.INTRA.POLAR.0>
0

>  <SCORE.INTRA.REPUL>
0

>  <SCORE.INTRA.REPUL.0>
0

>  <SCORE.INTRA.SOLV>
-0.89276

>  <SCORE.INTRA.SOLV.lig_0>
-47.9129

>  <SCORE.INTRA.VDW>
-5.1788

>  <SCORE.INTRA.VDW.0>
2.00851

>  <SCORE.INTRA.norm>
-0.395435

>  <SCORE.RESTR>
0

>  <SCORE.RESTR.CAVITY>
0

>  <SCORE.RESTR.norm>
0

>  <SCORE.SYSTEM>
0

>  <SCORE.SYSTEM.CONST>
0

>  <SCORE.SYSTEM.DIHEDRAL>
0

>  <SCORE.SYSTEM.SOLV>
0

>  <SCORE.SYSTEM.norm>
0

>  <SCORE.heavy>
27

>  <SCORE.norm>
-0.700662

>  <RMSD>
16.225

$$$$
ligand
 OpenBabel11021811483D
libRbt.so/2013.1/901 2013/11/27
 27 29  0  0  0  0  0  0  0  0999 V2000
  -12.6650   -7.1372   18.8043 N   0  0  0  0  0  0  0  0  0  0  0  0
  -11.3934   -7.8142   18.5648 C   0  0  2  0  0  0  0  0  0  0  0  0
  -10.6333   -8.0740   19.8628 C   0  0  0  0  0  0  0  0  0  0  0  0
  -11.1803   -7.9371   20.9594 O   0  0  0  0  0  0  0  0  0  0  0  0
  -10.5408   -7.0348   17.5680 C   0  0  0  0  0  0  0  0  0  0  0  0
  -10.9780   -7.2244   16.1237 C   0  0  0  0  0  0  0  0  0  0  0  0
  -10.0692   -8.5220   15.2482 S   0  0  2  0  0  0  0  0  0  0  0  0
  -10.0462   -9.8168   16.5129 C   0  0  0  0  0  0  0  0  0  0  0  0
   -8.3734   -7.8890   15.3575 C   0  0  0  0  0  0  0  0  0  0  0  0
   -8.1694   -6.8086   14.3052 C   0  0  1  0  0  0  0  0  0  0  0  0
   -8.8778   -5.6602   14.7066 O   0  0  0  0  0  0  0  0  0  0  0  0
   -6.7414   -6.3303   14.1212 C   0  0  1  0  0  0  0  0  0  0  0  0
   -6.1194   -7.0016   13.0482 O   0  0  0  0  0  0  0  0  0  0  0  0
   -6.9128   -4.8624   13.7869 C   0  0  1  0  0  0  0  0  0  0  0  0
   -6.6722   -4.6882   12.4123 O   0  0  0  0  0  0  0  0  0  0  0  0
   -8.3597   -4.5048   14.0986 C   0  0  2  0  0  0  0  0  0  0  0  0
   -9.4526   -8.4218   19.8385 O   0  0  0  0  0  0  0  0  0  0  0  0
   -8.0682   -3.1217   19.1758 N   0  0  0  0  0  0  0  0  0  0  0  0
   -7.9932   -4.3890   18.6324 C   0  0  0  0  0  0  0  0  0  0  0  0
   -8.0919   -4.5756   17.2665 N   0  0  0  0  0  0  0  0  0  0  0  0
   -8.2684   -3.5153   16.4428 C   0  0  0  0  0  0  0  0  0  0  0  0
   -8.3375   -2.2319   16.9707 C   0  0  0  0  0  0  0  0  0  0  0  0
   -8.2418   -2.0374   18.3432 C   0  0  0  0  0  0  0  0  0  0  0  0
   -8.3176   -0.8089   18.8495 N   0  0  0  0  0  0  0  0  0  0  0  0
   -8.5061   -1.3704   15.9445 N   0  0  0  0  0  0  0  0  0  0  0  0
   -8.5273   -2.0734   14.7878 C   0  0  0  0  0  0  0  0  0  0  0  0
   -8.3809   -3.4044   15.0770 N   0  0  0  0  0  0  0  0  0  0  0  0
  2  1  1  1  0  0  0
  2  3  1  0  0  0  0
  2  5  1  0  0  0  0
  3  4  1  0  0  0  0
  3 17  1  0  0  0  0
  5  6  1  0  0  0  0
  7  6  1  1  0  0  0
  7  8  1  0  0  0  0
  7  9  1  0  0  0  0
 10  9  1  1  0  0  0
 10 11  1  0  0  0  0
 10 12  1  0  0  0  0
 11 16  1  0  0  0  0
 12 13  1  6  0  0  0
 12 14  1  0  0  0  0
 14 15  1  6  0  0  0
 14 16  1  0  0  0  0
 16 27  1  1  0  0  0
 18 19  2  0  0  0  0
 18 23  1  0  0  0  0
 19 20  1  0  0  0  0
 20 21  2  0  0  0  0
 21 22  1  0  0  0  0
 21 27  1  0  0  0  0
 22 23  2  0  0  0  0
 22 25  1  0  0  0  0
 23 24  1  0  0  0  0
 25 26  2  0  0  0  0
 26 27  1  0  0  0  0
M  END
>  <CHROM.1>
12.31505793,-78.01351865,-94.79358726,43.60639282,-79.41023733,72.25717815
29.71433301,-8.94686821,-5.68591796,16.46966857,2.83481749,-1.05602532,-2.52650871

>  <Name>
ligand

>  <RI>
0

>  <Rbt.Current_Directory>
/home/itssahil/PROJECTS/Mol_Feturizer/New_Systems/rnas/3GX6

>  <Rbt.Executable>
rbdock ($Id: //depot/dev/client3/rdock/2013.1/src/exe/rbdock.cxx#4 $)

>  <Rbt.Library>
libRbt.so (2013.1, Build901 2013/11/27)

>  <Rbt.Parameter_File>
/export/apps/rDock/src/rDock_2013.1_src/data/scripts/dock_solv.prm

>  <Rbt.Receptor>
prm/blind_docking_100.prm

>  <SCORE>
-19.3911

>  <SCORE.INTER>
-12.0586

>  <SCORE.INTER.CONST>
1

>  <SCORE.INTER.POLAR>
0

>  <SCORE.INTER.ROT>
7

>  <SCORE.INTER.SOLV>
11.2815

>  <SCORE.INTER.VDW>
-20.0662

>  <SCORE.INTER.norm>
-0.446613

>  <SCORE.INTRA>
-7.33256

>  <SCORE.INTRA.DIHEDRAL>
-6.06075

>  <SCORE.INTRA.DIHEDRAL.0>
15.0182

>  <SCORE.INTRA.POLAR>
0

>  <SCORE.INTRA.POLAR.0>
0

>  <SCORE.INTRA.REPUL>
0

>  <SCORE.INTRA.REPUL.0>
0

>  <SCORE.INTRA.SOLV>
-0.794901

>  <SCORE.INTRA.SOLV.lig_0>
-47.9129

>  <SCORE.INTRA.VDW>
-3.90474

>  <SCORE.INTRA.VDW.0>
2.00851

>  <SCORE.INTRA.norm>
-0.271576

>  <SCORE.RESTR>
0

>  <SCORE.RESTR.CAVITY>
0

>  <SCORE.RESTR.norm>
0

>  <SCORE.SYSTEM>
0

>  <SCORE.SYSTEM.CONST>
0

>  <SCORE.SYSTEM.DIHEDRAL>
0

>  <SCORE.SYSTEM.SOLV>
0

>  <SCORE.SYSTEM.norm>
0

>  <SCORE.heavy>
27

>  <SCORE.norm>
-0.718189

>  <RMSD>
16.394

$$$$
ligand
 OpenBabel11021811483D
libRbt.so/2013.1/901 2013/11/27
 27 29  0  0  0  0  0  0  0  0999 V2000
   -9.6208    0.6269   13.4160 N   0  0  0  0  0  0  0  0  0  0  0  0
   -9.9824    1.0051   14.7795 C   0  0  2  0  0  0  0  0  0  0  0  0
   -9.2535    2.2675   15.2323 C   0  0  0  0  0  0  0  0  0  0  0  0
   -9.8621    3.3250   15.4106 O   0  0  0  0  0  0  0  0  0  0  0  0
   -9.7448   -0.1509   15.7464 C   0  0  0  0  0  0  0  0  0  0  0  0
  -10.3265    0.0921   17.1305 C   0  0  0  0  0  0  0  0  0  0  0  0
   -9.3455    1.2222   18.1486 S   0  0  2  0  0  0  0  0  0  0  0  0
   -9.4066    0.3653   19.7419 C   0  0  0  0  0  0  0  0  0  0  0  0
  -10.5360    2.5627   18.4207 C   0  0  0  0  0  0  0  0  0  0  0  0
   -9.8042    3.7875   18.9506 C   0  0  1  0  0  0  0  0  0  0  0  0
   -9.2650    3.4700   20.2116 O   0  0  0  0  0  0  0  0  0  0  0  0
   -8.6128    4.2477   18.1317 C   0  0  1  0  0  0  0  0  0  0  0  0
   -8.9791    5.2828   17.2467 O   0  0  0  0  0  0  0  0  0  0  0  0
   -7.6586    4.7762   19.1834 C   0  0  1  0  0  0  0  0  0  0  0  0
   -7.6691    6.1814   19.1277 O   0  0  0  0  0  0  0  0  0  0  0  0
   -8.1921    4.3174   20.5338 C   0  0  2  0  0  0  0  0  0  0  0  0
   -8.0375    2.2541   15.4239 O   0  0  0  0  0  0  0  0  0  0  0  0
   -4.9425    0.1752   20.2937 N   0  0  0  0  0  0  0  0  0  0  0  0
   -5.8430    0.6080   19.3404 C   0  0  0  0  0  0  0  0  0  0  0  0
   -6.6274    1.7228   19.5685 N   0  0  0  0  0  0  0  0  0  0  0  0
   -6.5255    2.4032   20.7350 C   0  0  0  0  0  0  0  0  0  0  0  0
   -5.6189    1.9876   21.7024 C   0  0  0  0  0  0  0  0  0  0  0  0
   -4.8290    0.8661   21.4807 C   0  0  0  0  0  0  0  0  0  0  0  0
   -3.9675    0.4626   22.4113 N   0  0  0  0  0  0  0  0  0  0  0  0
   -5.7133    2.8348   22.7497 N   0  0  0  0  0  0  0  0  0  0  0  0
   -6.6393    3.7792   22.4609 C   0  0  0  0  0  0  0  0  0  0  0  0
   -7.1530    3.5280   21.2160 N   0  0  0  0  0  0  0  0  0  0  0  0
  2  1  1  6  0  0  0
  2  3  1  0  0  0  0
  2  5  1  0  0  0  0
  3  4  1  0  0  0  0
  3 17  1  0  0  0  0
  5  6  1  0  0  0  0
  7  6  1  6  0  0  0
  7  8  1  0  0  0  0
  7  9  1  0  0  0  0
 10  9  1  6  0  0  0
 10 11  1  0  0  0  0
 10 12  1  0  0  0  0
 11 16  1  0  0  0  0
 12 13  1  6  0  0  0
 12 14  1  0  0  0  0
 14 15  1  1  0  0  0
 14 16  1  0  0  0  0
 16 27  1  6  0  0  0
 18 19  2  0  0  0  0
 18 23  1  0  0  0  0
 19 20  1  0  0  0  0
 20 21  2  0  0  0  0
 21 22  1  0  0  0  0
 21 27  1  0  0  0  0
 22 23  2  0  0  0  0
 22 25  1  0  0  0  0
 23 24  1  0  0  0  0
 25 26  2  0  0  0  0
 26 27  1  0  0  0  0
M  END
>  <CHROM.1>
111.14810858,-169.85674934,-76.76173320,-137.67602216,-165.28129100,-64.32373842
56.56838071,-8.05630016,2.35189766,18.74581082,-2.68836046,-0.91633235,0.46629127

>  <Name>
ligand

>  <RI>
0

>  <Rbt.Current_Directory>
/home/itssahil/PROJECTS/Mol_Feturizer/New_Systems/rnas/3GX6

>  <Rbt.Executable>
rbdock ($Id: //depot/dev/client3/rdock/2013.1/src/exe/rbdock.cxx#4 $)

>  <Rbt.Library>
libRbt.so (2013.1, Build901 2013/11/27)

>  <Rbt.Parameter_File>
/export/apps/rDock/src/rDock_2013.1_src/data/scripts/dock_solv.prm

>  <Rbt.Receptor>
prm/blind_docking_80.prm

>  <SCORE>
-16.6311

>  <SCORE.INTER>
-6.03009

>  <SCORE.INTER.CONST>
1

>  <SCORE.INTER.POLAR>
0

>  <SCORE.INTER.ROT>
7

>  <SCORE.INTER.SOLV>
9.77729

>  <SCORE.INTER.VDW>
-15.5458

>  <SCORE.INTER.norm>
-0.223337

>  <SCORE.INTRA>
-10.601

>  <SCORE.INTRA.DIHEDRAL>
-4.89116

>  <SCORE.INTRA.DIHEDRAL.0>
15.0182

>  <SCORE.INTRA.POLAR>
0

>  <SCORE.INTRA.POLAR.0>
0

>  <SCORE.INTRA.REPUL>
0

>  <SCORE.INTRA.REPUL.0>
0

>  <SCORE.INTRA.SOLV>
-1.19996

>  <SCORE.INTRA.SOLV.lig_0>
-47.9129

>  <SCORE.INTRA.VDW>
-7.55543

>  <SCORE.INTRA.VDW.0>
2.00851

>  <SCORE.INTRA.norm>
-0.392629

>  <SCORE.RESTR>
0

>  <SCORE.RESTR.CAVITY>
0

>  <SCORE.RESTR.norm>
0

>  <SCORE.SYSTEM>
0

>  <SCORE.SYSTEM.CONST>
0

>  <SCORE.SYSTEM.DIHEDRAL>
0

>  <SCORE.SYSTEM.SOLV>
0

>  <SCORE.SYSTEM.norm>
0

>  <SCORE.heavy>
27

>  <SCORE.norm>
-0.615966

>  <RMSD>
16.690

$$$$
ligand
 OpenBabel11021811483D
libRbt.so/2013.1/901 2013/11/27
 27 29  0  0  0  0  0  0  0  0999 V2000
   -5.6710    4.1764   24.1564 N   0  0  0  0  0  0  0  0  0  0  0  0
   -5.8329    3.4458   22.9022 C   0  0  2  0  0  0  0  0  0  0  0  0
   -5.8330    4.3801   21.6951 C   0  0  0  0  0  0  0  0  0  0  0  0
   -5.8734    5.6042   21.8372 O   0  0  0  0  0  0  0  0  0  0  0  0
   -7.0885    2.5796   22.9348 C   0  0  0  0  0  0  0  0  0  0  0  0
   -7.1793    1.6062   21.7697 C   0  0  0  0  0  0  0  0  0  0  0  0
   -8.6697    0.5792   21.7885 S   0  0  2  0  0  0  0  0  0  0  0  0
   -8.2889   -0.5263   23.1703 C   0  0  0  0  0  0  0  0  0  0  0  0
   -8.3583   -0.5061   20.3695 C   0  0  0  0  0  0  0  0  0  0  0  0
   -8.5735    0.2743   19.0807 C   0  0  1  0  0  0  0  0  0  0  0  0
   -7.9065   -0.3982   18.0393 O   0  0  0  0  0  0  0  0  0  0  0  0
  -10.0111    0.3793   18.6072 C   0  0  1  0  0  0  0  0  0  0  0  0
  -10.5927    1.5933   19.0275 O   0  0  0  0  0  0  0  0  0  0  0  0
   -9.8760    0.3627   17.0981 C   0  0  1  0  0  0  0  0  0  0  0  0
  -10.0953    1.6660   16.6173 O   0  0  0  0  0  0  0  0  0  0  0  0
   -8.4463   -0.0594   16.7876 C   0  0  2  0  0  0  0  0  0  0  0  0
   -5.7979    3.9258   20.5514 O   0  0  0  0  0  0  0  0  0  0  0  0
   -6.8441   -5.0417   16.1672 N   0  0  0  0  0  0  0  0  0  0  0  0
   -6.5634   -4.1801   17.2091 C   0  0  0  0  0  0  0  0  0  0  0  0
   -7.0675   -2.8931   17.2129 N   0  0  0  0  0  0  0  0  0  0  0  0
   -7.8410   -2.4591   16.1896 C   0  0  0  0  0  0  0  0  0  0  0  0
   -8.1412   -3.3147   15.1368 C   0  0  0  0  0  0  0  0  0  0  0  0
   -7.6355   -4.6090   15.1253 C   0  0  0  0  0  0  0  0  0  0  0  0
   -7.9153   -5.4253   14.1121 N   0  0  0  0  0  0  0  0  0  0  0  0
   -8.9249   -2.6420   14.2668 N   0  0  0  0  0  0  0  0  0  0  0  0
   -9.1394   -1.3961   14.7510 C   0  0  0  0  0  0  0  0  0  0  0  0
   -8.4758   -1.2648   15.9422 N   0  0  0  0  0  0  0  0  0  0  0  0
  2  1  1  1  0  0  0
  2  3  1  0  0  0  0
  2  5  1  0  0  0  0
  3  4  1  0  0  0  0
  3 17  1  0  0  0  0
  5  6  1  0  0  0  0
  7  6  1  6  0  0  0
  7  8  1  0  0  0  0
  7  9  1  0  0  0  0
 10  9  1  1  0  0  0
 10 11  1  0  0  0  0
 10 12  1  0  0  0  0
 11 16  1  0  0  0  0
 12 13  1  6  0  0  0
 12 14  1  0  0  0  0
 14 15  1  1  0  0  0
 14 16  1  0  0  0  0
 16 27  1  6  0  0  0
 18 19  2  0  0  0  0
 18 23  1  0  0  0  0
 19 20  1  0  0  0  0
 20 21  2  0  0  0  0
 21 22  1  0  0  0  0
 21 27  1  0  0  0  0
 22 23  2  0  0  0  0
 22 25  1  0  0  0  0
 23 24  1  0  0  0  0
 25 26  2  0  0  0  0
 26 27  1  0  0  0  0
M  END
>  <CHROM.1>
-9.04965621,-169.45446075,-179.60605969,-71.88223761,-74.57835396,160.05907771
-12.72951295,-7.92016030,-0.01174849,18.84309303,-1.28842520,1.03610701,-2.57503038

>  <Name>
ligand

>  <RI>
0

>  <Rbt.Current_Directory>
/home/itssahil/PROJECTS/Mol_Feturizer/New_Systems/rnas/3GX6

>  <Rbt.Executable>
rbdock ($Id: //depot/dev/client3/rdock/2013.1/src/exe/rbdock.cxx#4 $)

>  <Rbt.Library>
libRbt.so (2013.1, Build901 2013/11/27)

>  <Rbt.Parameter_File>
/export/apps/rDock/src/rDock_2013.1_src/data/scripts/dock_solv.prm

>  <Rbt.Receptor>
prm/blind_docking_80.prm

>  <SCORE>
-17.6931

>  <SCORE.INTER>
-7.80905

>  <SCORE.INTER.CONST>
1

>  <SCORE.INTER.POLAR>
0

>  <SCORE.INTER.ROT>
7

>  <SCORE.INTER.SOLV>
6.45584

>  <SCORE.INTER.VDW>
-15.6246

>  <SCORE.INTER.norm>
-0.289224

>  <SCORE.INTRA>
-9.88406

>  <SCORE.INTRA.DIHEDRAL>
-10.0071

>  <SCORE.INTRA.DIHEDRAL.0>
15.0182

>  <SCORE.INTRA.POLAR>
0

>  <SCORE.INTRA.POLAR.0>
0

>  <SCORE.INTRA.REPUL>
0

>  <SCORE.INTRA.REPUL.0>
0

>  <SCORE.INTRA.SOLV>
-1.67576

>  <SCORE.INTRA.SOLV.lig_0>
-47.9129

>  <SCORE.INTRA.VDW>
-4.04265

>  <SCORE.INTRA.VDW.0>
2.00851

>  <SCORE.INTRA.norm>
-0.366076

>  <SCORE.RESTR>
0

>  <SCORE.RESTR.CAVITY>
0

>  <SCORE.RESTR.norm>
0

>  <SCORE.SYSTEM>
0

>  <SCORE.SYSTEM.CONST>
0

>  <SCORE.SYSTEM.DIHEDRAL>
0

>  <SCORE.SYSTEM.SOLV>
0

>  <SCORE.SYSTEM.norm>
0

>  <SCORE.heavy>
27

>  <SCORE.norm>
-0.6553

>  <RMSD>
16.723

$$$$
ligand
 OpenBabel11021811483D
libRbt.so/2013.1/901 2013/11/27
 27 29  0  0  0  0  0  0  0  0999 V2000
   -6.2046    1.8060   21.6355 N   0  0  0  0  0  0  0  0  0  0  0  0
   -7.2852    0.9060   22.0295 C   0  0  2  0  0  0  0  0  0  0  0  0
   -6.8363   -0.5528   22.0383 C   0  0  0  0  0  0  0  0  0  0  0  0
   -6.0120   -0.9705   21.2220 O   0  0  0  0  0  0  0  0  0  0  0  0
   -8.5104    1.1051   21.1423 C   0  0  0  0  0  0  0  0  0  0  0  0
   -8.2120    0.9496   19.6592 C   0  0  0  0  0  0  0  0  0  0  0  0
   -9.6908    0.7846   18.6285 S   0  0  2  0  0  0  0  0  0  0  0  0
  -10.1002   -0.9546   18.9183 C   0  0  0  0  0  0  0  0  0  0  0  0
   -8.9511    0.7042   16.9747 C   0  0  0  0  0  0  0  0  0  0  0  0
   -8.3011    2.0409   16.6473 C   0  0  1  0  0  0  0  0  0  0  0  0
   -9.0227    3.0565   17.3028 O   0  0  0  0  0  0  0  0  0  0  0  0
   -6.8737    2.2147   17.1313 C   0  0  1  0  0  0  0  0  0  0  0  0
   -5.9537    1.9133   16.1059 O   0  0  0  0  0  0  0  0  0  0  0  0
   -6.8059    3.6892   17.4737 C   0  0  1  0  0  0  0  0  0  0  0  0
   -6.0696    4.3453   16.4711 O   0  0  0  0  0  0  0  0  0  0  0  0
   -8.2374    4.2083   17.4747 C   0  0  2  0  0  0  0  0  0  0  0  0
   -7.2955   -1.3445   22.8617 O   0  0  0  0  0  0  0  0  0  0  0  0
   -6.4250    6.9937   21.5652 N   0  0  0  0  0  0  0  0  0  0  0  0
   -5.7523    6.6350   20.4137 C   0  0  0  0  0  0  0  0  0  0  0  0
   -6.3831    5.8934   19.4327 N   0  0  0  0  0  0  0  0  0  0  0  0
   -7.6705    5.5046   19.5915 C   0  0  0  0  0  0  0  0  0  0  0  0
   -8.3660    5.8635   20.7395 C   0  0  0  0  0  0  0  0  0  0  0  0
   -7.7372    6.6068   21.7310 C   0  0  0  0  0  0  0  0  0  0  0  0
   -8.4006    6.9423   22.8348 N   0  0  0  0  0  0  0  0  0  0  0  0
   -9.6156    5.3611   20.6409 N   0  0  0  0  0  0  0  0  0  0  0  0
   -9.7298    4.7128   19.4579 C   0  0  0  0  0  0  0  0  0  0  0  0
   -8.5342    4.7918   18.7938 N   0  0  0  0  0  0  0  0  0  0  0  0
  2  1  1  6  0  0  0
  2  3  1  0  0  0  0
  2  5  1  0  0  0  0
  3  4  1  0  0  0  0
  3 17  1  0  0  0  0
  5  6  1  0  0  0  0
  7  6  1  1  0  0  0
  7  8  1  0  0  0  0
  7  9  1  0  0  0  0
 10  9  1  1  0  0  0
 10 11  1  0  0  0  0
 10 12  1  0  0  0  0
 11 16  1  0  0  0  0
 12 13  1  6  0  0  0
 12 14  1  0  0  0  0
 14 15  1  6  0  0  0
 14 16  1  0  0  0  0
 16 27  1  1  0  0  0
 18 19  2  0  0  0  0
 18 23  1  0  0  0  0
 19 20  1  0  0  0  0
 20 21  2  0  0  0  0
 21 22  1  0  0  0  0
 21 27  1  0  0  0  0
 22 23  2  0  0  0  0
 22 25  1  0  0  0  0
 23 24  1  0  0  0  0
 25 26  2  0  0  0  0
 26 27  1  0  0  0  0
M  END
>  <CHROM.1>
-34.19227186,55.43320537,166.07014878,-78.74510006,-66.48909037,-30.72176814
149.67863672,-7.81905312,2.87497941,19.50823886,-2.31930308,-1.43872128,-0.66426239

>  <Name>
ligand

>  <RI>
0

>  <Rbt.Current_Directory>
/home/itssahil/PROJECTS/Mol_Feturizer/New_Systems/rnas/3GX6

>  <Rbt.Executable>
rbdock ($Id: //depot/dev/client3/rdock/2013.1/src/exe/rbdock.cxx#4 $)

>  <Rbt.Library>
libRbt.so (2013.1, Build901 2013/11/27)

>  <Rbt.Parameter_File>
/export/apps/rDock/src/rDock_2013.1_src/data/scripts/dock_solv.prm

>  <Rbt.Receptor>
prm/blind_docking_80.prm

>  <SCORE>
-18.5212

>  <SCORE.INTER>
-9.69955

>  <SCORE.INTER.CONST>
1

>  <SCORE.INTER.POLAR>
0

>  <SCORE.INTER.ROT>
7

>  <SCORE.INTER.SOLV>
5.94189

>  <SCORE.INTER.VDW>
-16.7137

>  <SCORE.INTER.norm>
-0.359242

>  <SCORE.INTRA>
-8.82162

>  <SCORE.INTRA.DIHEDRAL>
-8.15098

>  <SCORE.INTRA.DIHEDRAL.0>
15.0182

>  <SCORE.INTRA.POLAR>
0

>  <SCORE.INTRA.POLAR.0>
0

>  <SCORE.INTRA.REPUL>
0

>  <SCORE.INTRA.REPUL.0>
0

>  <SCORE.INTRA.SOLV>
-0.719916

>  <SCORE.INTRA.SOLV.lig_0>
-47.9129

>  <SCORE.INTRA.VDW>
-4.38617

>  <SCORE.INTRA.VDW.0>
2.00851

>  <SCORE.INTRA.norm>
-0.326727

>  <SCORE.RESTR>
0

>  <SCORE.RESTR.CAVITY>
0

>  <SCORE.RESTR.norm>
0

>  <SCORE.SYSTEM>
0

>  <SCORE.SYSTEM.CONST>
0

>  <SCORE.SYSTEM.DIHEDRAL>
0

>  <SCORE.SYSTEM.SOLV>
0

>  <SCORE.SYSTEM.norm>
0

>  <SCORE.heavy>
27

>  <SCORE.norm>
-0.685969

>  <RMSD>
16.729

$$$$
ligand
 OpenBabel11021811483D
libRbt.so/2013.1/901 2013/11/27
 27 29  0  0  0  0  0  0  0  0999 V2000
   -8.3519    6.4301   21.3769 N   0  0  0  0  0  0  0  0  0  0  0  0
   -7.0676    5.7533   21.5355 C   0  0  2  0  0  0  0  0  0  0  0  0
   -6.1789    5.9233   20.3061 C   0  0  0  0  0  0  0  0  0  0  0  0
   -4.9564    6.0405   20.4153 O   0  0  0  0  0  0  0  0  0  0  0  0
   -7.2671    4.2798   21.8775 C   0  0  0  0  0  0  0  0  0  0  0  0
   -5.9692    3.5544   22.1973 C   0  0  0  0  0  0  0  0  0  0  0  0
   -6.1814    1.7887   22.5342 S   0  0  2  0  0  0  0  0  0  0  0  0
   -4.4736    1.3182   22.9065 C   0  0  0  0  0  0  0  0  0  0  0  0
   -6.3704    1.1372   20.8524 C   0  0  0  0  0  0  0  0  0  0  0  0
   -7.8461    0.8975   20.5672 C   0  0  1  0  0  0  0  0  0  0  0  0
   -8.4662    2.1450   20.3649 O   0  0  0  0  0  0  0  0  0  0  0  0
   -8.1534    0.1104   19.3071 C   0  0  1  0  0  0  0  0  0  0  0  0
   -8.3481   -1.2550   19.6007 O   0  0  0  0  0  0  0  0  0  0  0  0
   -9.4503    0.7287   18.8256 C   0  0  1  0  0  0  0  0  0  0  0  0
  -10.4992   -0.1666   19.1011 O   0  0  0  0  0  0  0  0  0  0  0  0
   -9.6522    2.0091   19.6246 C   0  0  2  0  0  0  0  0  0  0  0  0
   -6.6698    5.9518   19.1774 O   0  0  0  0  0  0  0  0  0  0  0  0
   -7.6083    4.4837   15.4444 N   0  0  0  0  0  0  0  0  0  0  0  0
   -7.1531    3.3350   16.0610 C   0  0  0  0  0  0  0  0  0  0  0  0
   -7.8135    2.8173   17.1593 N   0  0  0  0  0  0  0  0  0  0  0  0
   -8.9152    3.4347   17.6481 C   0  0  0  0  0  0  0  0  0  0  0  0
   -9.3928    4.5868   17.0355 C   0  0  0  0  0  0  0  0  0  0  0  0
   -8.7322    5.1142   15.9326 C   0  0  0  0  0  0  0  0  0  0  0  0
   -9.1843    6.2230   15.3519 N   0  0  0  0  0  0  0  0  0  0  0  0
  -10.4922    4.9886   17.7089 N   0  0  0  0  0  0  0  0  0  0  0  0
  -10.7283    4.1135   18.7144 C   0  0  0  0  0  0  0  0  0  0  0  0
   -9.7613    3.1434   18.6919 N   0  0  0  0  0  0  0  0  0  0  0  0
  2  1  1  6  0  0  0
  2  3  1  0  0  0  0
  2  5  1  0  0  0  0
  3  4  1  0  0  0  0
  3 17  1  0  0  0  0
  5  6  1  0  0  0  0
  7  6  1  6  0  0  0
  7  8  1  0  0  0  0
  7  9  1  0  0  0  0
 10  9  1  6  0  0  0
 10 11  1  0  0  0  0
 10 12  1  0  0  0  0
 11 16  1  0  0  0  0
 12 13  1  1  0  0  0
 12 14  1  0  0  0  0
 14 15  1  1  0  0  0
 14 16  1  0  0  0  0
 16 27  1  6  0  0  0
 18 19  2  0  0  0  0
 18 23  1  0  0  0  0
 19 20  1  0  0  0  0
 20 21  2  0  0  0  0
 21 22  1  0  0  0  0
 21 27  1  0  0  0  0
 22 23  2  0  0  0  0
 22 25  1  0  0  0  0
 23 24  1  0  0  0  0
 25 26  2  0  0  0  0
 26 27  1  0  0  0  0
M  END
>  <CHROM.1>
144.26112024,-173.99201641,-177.46275266,-178.39286531,-100.53866533,74.22604524
63.99378350,-7.86826369,3.18128736,19.48554141,-2.29015975,0.92362635,2.70369372

>  <Name>
ligand

>  <RI>
0

>  <Rbt.Current_Directory>
/home/itssahil/PROJECTS/Mol_Feturizer/New_Systems/rnas/3GX6

>  <Rbt.Executable>
rbdock ($Id: //depot/dev/client3/rdock/2013.1/src/exe/rbdock.cxx#4 $)

>  <Rbt.Library>
libRbt.so (2013.1, Build901 2013/11/27)

>  <Rbt.Parameter_File>
/export/apps/rDock/src/rDock_2013.1_src/data/scripts/dock_solv.prm

>  <Rbt.Receptor>
prm/blind_docking_40.prm

>  <SCORE>
-16.1942

>  <SCORE.INTER>
-5.14453

>  <SCORE.INTER.CONST>
1

>  <SCORE.INTER.POLAR>
0

>  <SCORE.INTER.ROT>
7

>  <SCORE.INTER.SOLV>
12.953

>  <SCORE.INTER.VDW>
-16.014

>  <SCORE.INTER.norm>
-0.190538

>  <SCORE.INTRA>
-11.0496

>  <SCORE.INTRA.DIHEDRAL>
-8.28531

>  <SCORE.INTRA.DIHEDRAL.0>
15.0182

>  <SCORE.INTRA.POLAR>
0

>  <SCORE.INTRA.POLAR.0>
0

>  <SCORE.INTRA.REPUL>
0

>  <SCORE.INTRA.REPUL.0>
0

>  <SCORE.INTRA.SOLV>
-1.6275

>  <SCORE.INTRA.SOLV.lig_0>
-47.9129

>  <SCORE.INTRA.VDW>
-6.09323

>  <SCORE.INTRA.VDW.0>
2.00851

>  <SCORE.INTRA.norm>
-0.409246

>  <SCORE.RESTR>
0

>  <SCORE.RESTR.CAVITY>
0

>  <SCORE.RESTR.norm>
0

>  <SCORE.SYSTEM>
0

>  <SCORE.SYSTEM.CONST>
0

>  <SCORE.SYSTEM.DIHEDRAL>
0

>  <SCORE.SYSTEM.SOLV>
0

>  <SCORE.SYSTEM.norm>
0

>  <SCORE.heavy>
27

>  <SCORE.norm>
-0.599784

>  <RMSD>
16.868

$$$$
ligand
 OpenBabel11021811483D
libRbt.so/2013.1/901 2013/11/27
 27 29  0  0  0  0  0  0  0  0999 V2000
   -6.2604    4.2180   16.4505 N   0  0  0  0  0  0  0  0  0  0  0  0
   -5.6384    3.1196   15.7160 C   0  0  2  0  0  0  0  0  0  0  0  0
   -5.2956    3.5155   14.2822 C   0  0  0  0  0  0  0  0  0  0  0  0
   -6.0017    4.3076   13.6541 O   0  0  0  0  0  0  0  0  0  0  0  0
   -6.5174    1.8730   15.7532 C   0  0  0  0  0  0  0  0  0  0  0  0
   -7.9058    2.0973   15.1743 C   0  0  0  0  0  0  0  0  0  0  0  0
   -8.9400    0.6119   15.1564 S   0  0  2  0  0  0  0  0  0  0  0  0
  -10.1415    1.0641   13.8803 C   0  0  0  0  0  0  0  0  0  0  0  0
   -9.9166    0.8535   16.6651 C   0  0  0  0  0  0  0  0  0  0  0  0
   -9.1728    0.2526   17.8492 C   0  0  1  0  0  0  0  0  0  0  0  0
   -8.0324    1.0386   18.1007 O   0  0  0  0  0  0  0  0  0  0  0  0
   -9.9278    0.2446   19.1652 C   0  0  1  0  0  0  0  0  0  0  0  0
  -10.5571   -0.9994   19.3775 O   0  0  0  0  0  0  0  0  0  0  0  0
   -8.8312    0.4540   20.1897 C   0  0  1  0  0  0  0  0  0  0  0  0
   -8.5883   -0.7701   20.8380 O   0  0  0  0  0  0  0  0  0  0  0  0
   -7.5860    0.8784   19.4228 C   0  0  2  0  0  0  0  0  0  0  0  0
   -4.3056    3.0447   13.7220 O   0  0  0  0  0  0  0  0  0  0  0  0
   -8.8949    5.8534   20.5682 N   0  0  0  0  0  0  0  0  0  0  0  0
   -9.7031    4.8549   20.0616 C   0  0  0  0  0  0  0  0  0  0  0  0
   -9.1929    3.5943   19.8147 N   0  0  0  0  0  0  0  0  0  0  0  0
   -7.8894    3.3239   20.0631 C   0  0  0  0  0  0  0  0  0  0  0  0
   -7.0631    4.3136   20.5810 C   0  0  0  0  0  0  0  0  0  0  0  0
   -7.5688    5.5838   20.8290 C   0  0  0  0  0  0  0  0  0  0  0  0
   -6.7748    6.5343   21.3162 N   0  0  0  0  0  0  0  0  0  0  0  0
   -5.8312    3.7835   20.7397 N   0  0  0  0  0  0  0  0  0  0  0  0
   -5.8646    2.4865   20.3533 C   0  0  0  0  0  0  0  0  0  0  0  0
   -7.1323    2.1838   19.9313 N   0  0  0  0  0  0  0  0  0  0  0  0
  2  1  1  6  0  0  0
  2  3  1  0  0  0  0
  2  5  1  0  0  0  0
  3  4  1  0  0  0  0
  3 17  1  0  0  0  0
  5  6  1  0  0  0  0
  7  6  1  1  0  0  0
  7  8  1  0  0  0  0
  7  9  1  0  0  0  0
 10  9  1  6  0  0  0
 10 11  1  0  0  0  0
 10 12  1  0  0  0  0
 11 16  1  0  0  0  0
 12 13  1  1  0  0  0
 12 14  1  0  0  0  0
 14 15  1  6  0  0  0
 14 16  1  0  0  0  0
 16 27  1  1  0  0  0
 18 19  2  0  0  0  0
 18 23  1  0  0  0  0
 19 20  1  0  0  0  0
 20 21  2  0  0  0  0
 21 22  1  0  0  0  0
 21 27  1  0  0  0  0
 22 23  2  0  0  0  0
 22 25  1  0  0  0  0
 23 24  1  0  0  0  0
 25 26  2  0  0  0  0
 26 27  1  0  0  0  0
M  END
>  <CHROM.1>
-33.38227699,58.38593681,177.89441996,-158.67266736,-88.39441995,69.23274885
60.63513934,-7.82494823,2.38071786,17.91877754,-1.33537844,0.92784130,1.18307286

>  <Name>
ligand

>  <RI>
0

>  <Rbt.Current_Directory>
/home/itssahil/PROJECTS/Mol_Feturizer/New_Systems/rnas/3GX6

>  <Rbt.Executable>
rbdock ($Id: //depot/dev/client3/rdock/2013.1/src/exe/rbdock.cxx#4 $)

>  <Rbt.Library>
libRbt.so (2013.1, Build901 2013/11/27)

>  <Rbt.Parameter_File>
/export/apps/rDock/src/rDock_2013.1_src/data/scripts/dock_solv.prm

>  <Rbt.Receptor>
prm/blind_docking_60.prm

>  <SCORE>
-18.9199

>  <SCORE.INTER>
-8.68541

>  <SCORE.INTER.CONST>
1

>  <SCORE.INTER.POLAR>
0

>  <SCORE.INTER.ROT>
7

>  <SCORE.INTER.SOLV>
11.0297

>  <SCORE.INTER.VDW>
-17.7335

>  <SCORE.INTER.norm>
-0.321682

>  <SCORE.INTRA>
-10.2345

>  <SCORE.INTRA.DIHEDRAL>
-8.29982

>  <SCORE.INTRA.DIHEDRAL.0>
15.0182

>  <SCORE.INTRA.POLAR>
0

>  <SCORE.INTRA.POLAR.0>
0

>  <SCORE.INTRA.REPUL>
0

>  <SCORE.INTRA.REPUL.0>
0

>  <SCORE.INTRA.SOLV>
-0.681216

>  <SCORE.INTRA.SOLV.lig_0>
-47.9129

>  <SCORE.INTRA.VDW>
-5.74396

>  <SCORE.INTRA.VDW.0>
2.00851

>  <SCORE.INTRA.norm>
-0.379055

>  <SCORE.RESTR>
0

>  <SCORE.RESTR.CAVITY>
0

>  <SCORE.RESTR.norm>
0

>  <SCORE.SYSTEM>
0

>  <SCORE.SYSTEM.CONST>
0

>  <SCORE.SYSTEM.DIHEDRAL>
0

>  <SCORE.SYSTEM.SOLV>
0

>  <SCORE.SYSTEM.norm>
0

>  <SCORE.heavy>
27

>  <SCORE.norm>
-0.700737

>  <RMSD>
16.926

$$$$
ligand
 OpenBabel11021811483D
libRbt.so/2013.1/901 2013/11/27
 27 29  0  0  0  0  0  0  0  0999 V2000
   -6.5648    5.1201   12.5900 N   0  0  0  0  0  0  0  0  0  0  0  0
   -7.4988    4.0282   12.3283 C   0  0  2  0  0  0  0  0  0  0  0  0
   -8.9050    4.5413   12.0297 C   0  0  0  0  0  0  0  0  0  0  0  0
   -9.4694    5.3316   12.7895 O   0  0  0  0  0  0  0  0  0  0  0  0
   -7.5050    3.0289   13.4812 C   0  0  0  0  0  0  0  0  0  0  0  0
   -8.4367    1.8491   13.2508 C   0  0  0  0  0  0  0  0  0  0  0  0
   -8.3004    0.5528   14.5067 S   0  0  2  0  0  0  0  0  0  0  0  0
   -9.6501   -0.5407   13.9973 C   0  0  0  0  0  0  0  0  0  0  0  0
   -9.0379    1.3828   15.9404 C   0  0  0  0  0  0  0  0  0  0  0  0
   -9.3757    0.3478   17.0038 C   0  0  1  0  0  0  0  0  0  0  0  0
   -8.1716   -0.1326   17.5525 O   0  0  0  0  0  0  0  0  0  0  0  0
  -10.1597    0.8617   18.1968 C   0  0  1  0  0  0  0  0  0  0  0  0
  -11.5405    0.6288   18.0307 O   0  0  0  0  0  0  0  0  0  0  0  0
   -9.6257    0.0260   19.3425 C   0  0  1  0  0  0  0  0  0  0  0  0
  -10.5974   -0.9308   19.6859 O   0  0  0  0  0  0  0  0  0  0  0  0
   -8.3773   -0.6793   18.8299 C   0  0  2  0  0  0  0  0  0  0  0  0
   -9.5066    4.1695   11.0220 O   0  0  0  0  0  0  0  0  0  0  0  0
   -6.5188   -0.2903   23.7462 N   0  0  0  0  0  0  0  0  0  0  0  0
   -7.7671   -0.7176   23.3386 C   0  0  0  0  0  0  0  0  0  0  0  0
   -8.0938   -0.7558   21.9963 N   0  0  0  0  0  0  0  0  0  0  0  0
   -7.1928   -0.3691   21.0622 C   0  0  0  0  0  0  0  0  0  0  0  0
   -5.9289    0.0556   21.4530 C   0  0  0  0  0  0  0  0  0  0  0  0
   -5.5946    0.0990   22.8010 C   0  0  0  0  0  0  0  0  0  0  0  0
   -4.3872    0.5150   23.1756 N   0  0  0  0  0  0  0  0  0  0  0  0
   -5.2351    0.3715   20.3383 N   0  0  0  0  0  0  0  0  0  0  0  0
   -6.0199    0.1412   19.2596 C   0  0  0  0  0  0  0  0  0  0  0  0
   -7.2369   -0.3187   19.6889 N   0  0  0  0  0  0  0  0  0  0  0  0
  2  1  1  1  0  0  0
  2  3  1  0  0  0  0
  2  5  1  0  0  0  0
  3  4  1  0  0  0  0
  3 17  1  0  0  0  0
  5  6  1  0  0  0  0
  7  6  1  6  0  0  0
  7  8  1  0  0  0  0
  7  9  1  0  0  0  0
 10  9  1  6  0  0  0
 10 11  1  0  0  0  0
 10 12  1  0  0  0  0
 11 16  1  0  0  0  0
 12 13  1  6  0  0  0
 12 14  1  0  0  0  0
 14 15  1  6  0  0  0
 14 16  1  0  0  0  0
 16 27  1  1  0  0  0
 18 19  2  0  0  0  0
 18 23  1  0  0  0  0
 19 20  1  0  0  0  0
 20 21  2  0  0  0  0
 21 22  1  0  0  0  0
 21 27  1  0  0  0  0
 22 23  2  0  0  0  0
 22 25  1  0  0  0  0
 23 24  1  0  0  0  0
 25 26  2  0  0  0  0
 26 27  1  0  0  0  0
M  END
>  <CHROM.1>
-51.97122082,-178.62985848,172.65285658,174.09832737,164.39879190,70.41407624
162.99384407,-8.11167528,1.05595379,17.41417817,-1.76411616,0.47429340,2.04119120

>  <Name>
ligand

>  <RI>
0

>  <Rbt.Current_Directory>
/home/itssahil/PROJECTS/Mol_Feturizer/New_Systems/rnas/3GX6

>  <Rbt.Executable>
rbdock ($Id: //depot/dev/client3/rdock/2013.1/src/exe/rbdock.cxx#4 $)

>  <Rbt.Library>
libRbt.so (2013.1, Build901 2013/11/27)

>  <Rbt.Parameter_File>
/export/apps/rDock/src/rDock_2013.1_src/data/scripts/dock_solv.prm

>  <Rbt.Receptor>
prm/blind_docking_60.prm

>  <SCORE>
-17.6118

>  <SCORE.INTER>
-7.35041

>  <SCORE.INTER.CONST>
1

>  <SCORE.INTER.POLAR>
0

>  <SCORE.INTER.ROT>
7

>  <SCORE.INTER.SOLV>
10.7672

>  <SCORE.INTER.VDW>
-16.756

>  <SCORE.INTER.norm>
-0.272237

>  <SCORE.INTRA>
-10.2614

>  <SCORE.INTRA.DIHEDRAL>
-11.0628

>  <SCORE.INTRA.DIHEDRAL.0>
15.0182

>  <SCORE.INTRA.POLAR>
0

>  <SCORE.INTRA.POLAR.0>
0

>  <SCORE.INTRA.REPUL>
0

>  <SCORE.INTRA.REPUL.0>
0

>  <SCORE.INTRA.SOLV>
-1.78166

>  <SCORE.INTRA.SOLV.lig_0>
-47.9129

>  <SCORE.INTRA.VDW>
-3.83917

>  <SCORE.INTRA.VDW.0>
2.00851

>  <SCORE.INTRA.norm>
-0.380052

>  <SCORE.RESTR>
0

>  <SCORE.RESTR.CAVITY>
0

>  <SCORE.RESTR.norm>
0

>  <SCORE.SYSTEM>
0

>  <SCORE.SYSTEM.CONST>
0

>  <SCORE.SYSTEM.DIHEDRAL>
0

>  <SCORE.SYSTEM.SOLV>
0

>  <SCORE.SYSTEM.norm>
0

>  <SCORE.heavy>
27

>  <SCORE.norm>
-0.652289

>  <RMSD>
16.933

$$$$
ligand
 OpenBabel11021811483D
libRbt.so/2013.1/901 2013/11/27
 27 29  0  0  0  0  0  0  0  0999 V2000
   -6.4942    5.4139   23.0937 N   0  0  0  0  0  0  0  0  0  0  0  0
   -5.7752    5.4121   21.8225 C   0  0  2  0  0  0  0  0  0  0  0  0
   -5.9767    6.7147   21.0527 C   0  0  0  0  0  0  0  0  0  0  0  0
   -7.0958    7.2192   20.9363 O   0  0  0  0  0  0  0  0  0  0  0  0
   -6.1641    4.2019   20.9785 C   0  0  0  0  0  0  0  0  0  0  0  0
   -7.6220    4.2129   20.5456 C   0  0  0  0  0  0  0  0  0  0  0  0
   -8.1309    2.7241   19.6507 S   0  0  2  0  0  0  0  0  0  0  0  0
   -9.7520    3.2473   19.0385 C   0  0  0  0  0  0  0  0  0  0  0  0
   -8.6037    1.6402   21.0255 C   0  0  0  0  0  0  0  0  0  0  0  0
   -8.7862    0.2203   20.5087 C   0  0  1  0  0  0  0  0  0  0  0  0
   -9.6930    0.2539   19.4325 O   0  0  0  0  0  0  0  0  0  0  0  0
   -7.5433   -0.4375   19.9392 C   0  0  1  0  0  0  0  0  0  0  0  0
   -6.9118   -1.2450   20.9077 O   0  0  0  0  0  0  0  0  0  0  0  0
   -8.0944   -1.3003   18.8222 C   0  0  1  0  0  0  0  0  0  0  0  0
   -8.0658   -2.6425   19.2413 O   0  0  0  0  0  0  0  0  0  0  0  0
   -9.5376   -0.8677   18.6015 C   0  0  2  0  0  0  0  0  0  0  0  0
   -5.0212    7.2856   20.5267 O   0  0  0  0  0  0  0  0  0  0  0  0
   -8.5429   -1.9343   13.5370 N   0  0  0  0  0  0  0  0  0  0  0  0
   -8.1733   -2.6638   14.6498 C   0  0  0  0  0  0  0  0  0  0  0  0
   -8.5177   -2.2354   15.9179 N   0  0  0  0  0  0  0  0  0  0  0  0
   -9.2198   -1.0895   16.0851 C   0  0  0  0  0  0  0  0  0  0  0  0
   -9.6078   -0.3469   14.9767 C   0  0  0  0  0  0  0  0  0  0  0  0
   -9.2626   -0.7704   13.6990 C   0  0  0  0  0  0  0  0  0  0  0  0
   -9.6261   -0.0539   12.6381 N   0  0  0  0  0  0  0  0  0  0  0  0
  -10.2931    0.7296   15.4185 N   0  0  0  0  0  0  0  0  0  0  0  0
  -10.3613    0.6751   16.7695 C   0  0  0  0  0  0  0  0  0  0  0  0
   -9.7020   -0.4459   17.2002 N   0  0  0  0  0  0  0  0  0  0  0  0
  2  1  1  1  0  0  0
  2  3  1  0  0  0  0
  2  5  1  0  0  0  0
  3  4  1  0  0  0  0
  3 17  1  0  0  0  0
  5  6  1  0  0  0  0
  7  6  1  1  0  0  0
  7  8  1  0  0  0  0
  7  9  1  0  0  0  0
 10  9  1  6  0  0  0
 10 11  1  0  0  0  0
 10 12  1  0  0  0  0
 11 16  1  0  0  0  0
 12 13  1  1  0  0  0
 12 14  1  0  0  0  0
 14 15  1  1  0  0  0
 14 16  1  0  0  0  0
 16 27  1  6  0  0  0
 18 19  2  0  0  0  0
 18 23  1  0  0  0  0
 19 20  1  0  0  0  0
 20 21  2  0  0  0  0
 21 22  1  0  0  0  0
 21 27  1  0  0  0  0
 22 23  2  0  0  0  0
 22 25  1  0  0  0  0
 23 24  1  0  0  0  0
 25 26  2  0  0  0  0
 26 27  1  0  0  0  0
M  END
>  <CHROM.1>
-45.40138553,64.77546166,-175.61420632,-169.21381963,-167.96224870,-53.70378820
157.32824262,-8.20722395,1.38698349,18.56165207,-0.26975348,1.27925645,2.55971396

>  <Name>
ligand

>  <RI>
0

>  <Rbt.Current_Directory>
/home/itssahil/PROJECTS/Mol_Feturizer/New_Systems/rnas/3GX6

>  <Rbt.Executable>
rbdock ($Id: //depot/dev/client3/rdock/2013.1/src/exe/rbdock.cxx#4 $)

>  <Rbt.Library>
libRbt.so (2013.1, Build901 2013/11/27)

>  <Rbt.Parameter_File>
/export/apps/rDock/src/rDock_2013.1_src/data/scripts/dock_solv.prm

>  <Rbt.Receptor>
prm/blind_docking_40.prm

>  <SCORE>
-21.4236

>  <SCORE.INTER>
-11.803

>  <SCORE.INTER.CONST>
1

>  <SCORE.INTER.POLAR>
0

>  <SCORE.INTER.ROT>
7

>  <SCORE.INTER.SOLV>
6.27314

>  <SCORE.INTER.VDW>
-18.2264

>  <SCORE.INTER.norm>
-0.437147

>  <SCORE.INTRA>
-9.62063

>  <SCORE.INTRA.DIHEDRAL>
-9.40962

>  <SCORE.INTRA.DIHEDRAL.0>
15.0182

>  <SCORE.INTRA.POLAR>
0

>  <SCORE.INTRA.POLAR.0>
0

>  <SCORE.INTRA.REPUL>
0

>  <SCORE.INTRA.REPUL.0>
0

>  <SCORE.INTRA.SOLV>
-0.92127

>  <SCORE.INTRA.SOLV.lig_0>
-47.9129

>  <SCORE.INTRA.VDW>
-4.45519

>  <SCORE.INTRA.VDW.0>
2.00851

>  <SCORE.INTRA.norm>
-0.35632

>  <SCORE.RESTR>
0

>  <SCORE.RESTR.CAVITY>
0

>  <SCORE.RESTR.norm>
0

>  <SCORE.SYSTEM>
0

>  <SCORE.SYSTEM.CONST>
0

>  <SCORE.SYSTEM.DIHEDRAL>
0

>  <SCORE.SYSTEM.SOLV>
0

>  <SCORE.SYSTEM.norm>
0

>  <SCORE.heavy>
27

>  <SCORE.norm>
-0.793467

>  <RMSD>
16.942

$$$$
ligand
 OpenBabel11021811483D
libRbt.so/2013.1/901 2013/11/27
 27 29  0  0  0  0  0  0  0  0999 V2000
   -4.3489    3.5119   18.2242 N   0  0  0  0  0  0  0  0  0  0  0  0
   -5.7311    3.8494   18.5535 C   0  0  2  0  0  0  0  0  0  0  0  0
   -5.8170    5.0680   19.4687 C   0  0  0  0  0  0  0  0  0  0  0  0
   -4.9445    5.2956   20.3097 O   0  0  0  0  0  0  0  0  0  0  0  0
   -6.4559    2.6496   19.1561 C   0  0  0  0  0  0  0  0  0  0  0  0
   -5.8105    2.1353   20.4336 C   0  0  0  0  0  0  0  0  0  0  0  0
   -6.6398    0.6910   21.1424 S   0  0  2  0  0  0  0  0  0  0  0  0
   -5.5400    0.3314   22.5344 C   0  0  0  0  0  0  0  0  0  0  0  0
   -6.1537   -0.5986   19.9637 C   0  0  0  0  0  0  0  0  0  0  0  0
   -7.3564   -1.4782   19.6540 C   0  0  1  0  0  0  0  0  0  0  0  0
   -8.3442   -0.6799   19.0468 O   0  0  0  0  0  0  0  0  0  0  0  0
   -7.1126   -2.6015   18.6637 C   0  0  1  0  0  0  0  0  0  0  0  0
   -6.8403   -3.8128   19.3327 O   0  0  0  0  0  0  0  0  0  0  0  0
   -8.4328   -2.7001   17.9267 C   0  0  1  0  0  0  0  0  0  0  0  0
   -9.1088   -3.8484   18.3764 O   0  0  0  0  0  0  0  0  0  0  0  0
   -9.2372   -1.4605   18.2943 C   0  0  2  0  0  0  0  0  0  0  0  0
   -6.7667    5.8471   19.3870 O   0  0  0  0  0  0  0  0  0  0  0  0
   -8.8687   -1.2701   13.0405 N   0  0  0  0  0  0  0  0  0  0  0  0
   -8.3512   -2.2219   13.8968 C   0  0  0  0  0  0  0  0  0  0  0  0
   -8.5406   -2.1171   15.2619 N   0  0  0  0  0  0  0  0  0  0  0  0
   -9.2339   -1.0744   15.7777 C   0  0  0  0  0  0  0  0  0  0  0  0
   -9.7693   -0.1117   14.9309 C   0  0  0  0  0  0  0  0  0  0  0  0
   -9.5804   -0.2095   13.5577 C   0  0  0  0  0  0  0  0  0  0  0  0
  -10.0851    0.7179   12.7475 N   0  0  0  0  0  0  0  0  0  0  0  0
  -10.4104    0.8001   15.6932 N   0  0  0  0  0  0  0  0  0  0  0  0
  -10.3079    0.4288   16.9910 C   0  0  0  0  0  0  0  0  0  0  0  0
   -9.5824   -0.7310   17.0626 N   0  0  0  0  0  0  0  0  0  0  0  0
  2  1  1  1  0  0  0
  2  3  1  0  0  0  0
  2  5  1  0  0  0  0
  3  4  1  0  0  0  0
  3 17  1  0  0  0  0
  5  6  1  0  0  0  0
  7  6  1  6  0  0  0
  7  8  1  0  0  0  0
  7  9  1  0  0  0  0
 10  9  1  6  0  0  0
 10 11  1  0  0  0  0
 10 12  1  0  0  0  0
 11 16  1  0  0  0  0
 12 13  1  1  0  0  0
 12 14  1  0  0  0  0
 14 15  1  1  0  0  0
 14 16  1  0  0  0  0
 16 27  1  6  0  0  0
 18 19  2  0  0  0  0
 18 23  1  0  0  0  0
 19 20  1  0  0  0  0
 20 21  2  0  0  0  0
 21 22  1  0  0  0  0
 21 27  1  0  0  0  0
 22 23  2  0  0  0  0
 22 25  1  0  0  0  0
 23 24  1  0  0  0  0
 25 26  2  0  0  0  0
 26 27  1  0  0  0  0
M  END
>  <CHROM.1>
-33.05792936,59.77924036,-178.83086210,176.38409465,-137.28629604,62.37442681
112.12312290,-7.65156393,0.27885526,18.01524277,0.26568092,-1.07603439,-0.46884300

>  <Name>
ligand

>  <RI>
0

>  <Rbt.Current_Directory>
/home/itssahil/PROJECTS/Mol_Feturizer/New_Systems/rnas/3GX6

>  <Rbt.Executable>
rbdock ($Id: //depot/dev/client3/rdock/2013.1/src/exe/rbdock.cxx#4 $)

>  <Rbt.Library>
libRbt.so (2013.1, Build901 2013/11/27)

>  <Rbt.Parameter_File>
/export/apps/rDock/src/rDock_2013.1_src/data/scripts/dock_solv.prm

>  <Rbt.Receptor>
prm/blind_docking_40.prm

>  <SCORE>
-16.3889

>  <SCORE.INTER>
-8.33905

>  <SCORE.INTER.CONST>
1

>  <SCORE.INTER.POLAR>
0

>  <SCORE.INTER.ROT>
7

>  <SCORE.INTER.SOLV>
12.1626

>  <SCORE.INTER.VDW>
-17.8802

>  <SCORE.INTER.norm>
-0.308854

>  <SCORE.INTRA>
-8.04983

>  <SCORE.INTRA.DIHEDRAL>
-7.64823

>  <SCORE.INTRA.DIHEDRAL.0>
15.0182

>  <SCORE.INTRA.POLAR>
0

>  <SCORE.INTRA.POLAR.0>
0

>  <SCORE.INTRA.REPUL>
0

>  <SCORE.INTRA.REPUL.0>
0

>  <SCORE.INTRA.SOLV>
-1.07063

>  <SCORE.INTRA.SOLV.lig_0>
-47.9129

>  <SCORE.INTRA.VDW>
-3.6904

>  <SCORE.INTRA.VDW.0>
2.00851

>  <SCORE.INTRA.norm>
-0.298142

>  <SCORE.RESTR>
0

>  <SCORE.RESTR.CAVITY>
0

>  <SCORE.RESTR.norm>
0

>  <SCORE.SYSTEM>
0

>  <SCORE.SYSTEM.CONST>
0

>  <SCORE.SYSTEM.DIHEDRAL>
0

>  <SCORE.SYSTEM.SOLV>
0

>  <SCORE.SYSTEM.norm>
0

>  <SCORE.heavy>
27

>  <SCORE.norm>
-0.606996

>  <RMSD>
16.965

$$$$
ligand
 OpenBabel11021811483D
libRbt.so/2013.1/901 2013/11/27
 27 29  0  0  0  0  0  0  0  0999 V2000
   -8.1215    1.3732   24.7068 N   0  0  0  0  0  0  0  0  0  0  0  0
   -8.1138    0.8044   23.3618 C   0  0  2  0  0  0  0  0  0  0  0  0
   -8.7631   -0.5766   23.3240 C   0  0  0  0  0  0  0  0  0  0  0  0
   -9.9402   -0.7178   22.9852 O   0  0  0  0  0  0  0  0  0  0  0  0
   -6.6981    0.7686   22.7938 C   0  0  0  0  0  0  0  0  0  0  0  0
   -6.6538    0.4575   21.3057 C   0  0  0  0  0  0  0  0  0  0  0  0
   -7.0969   -1.2503   20.9015 S   0  0  2  0  0  0  0  0  0  0  0  0
   -5.6137   -2.1176   21.4711 C   0  0  0  0  0  0  0  0  0  0  0  0
   -6.8439   -1.2563   19.1058 C   0  0  0  0  0  0  0  0  0  0  0  0
   -7.8893   -0.3685   18.4461 C   0  0  1  0  0  0  0  0  0  0  0  0
   -7.6041   -0.2965   17.0695 O   0  0  0  0  0  0  0  0  0  0  0  0
   -9.3185   -0.8734   18.5132 C   0  0  1  0  0  0  0  0  0  0  0  0
  -10.0099   -0.2871   19.5933 O   0  0  0  0  0  0  0  0  0  0  0  0
   -9.9096   -0.4019   17.2001 C   0  0  1  0  0  0  0  0  0  0  0  0
  -10.7584    0.6888   17.4605 O   0  0  0  0  0  0  0  0  0  0  0  0
   -8.7459    0.0562   16.3314 C   0  0  2  0  0  0  0  0  0  0  0  0
   -8.1213   -1.5793   23.6377 O   0  0  0  0  0  0  0  0  0  0  0  0
   -8.6193    0.2255   11.0654 N   0  0  0  0  0  0  0  0  0  0  0  0
   -8.5863    1.2830   11.9528 C   0  0  0  0  0  0  0  0  0  0  0  0
   -8.6307    1.0591   13.3159 N   0  0  0  0  0  0  0  0  0  0  0  0
   -8.7120   -0.2035   13.7988 C   0  0  0  0  0  0  0  0  0  0  0  0
   -8.7376   -1.2805   12.9214 C   0  0  0  0  0  0  0  0  0  0  0  0
   -8.6960   -1.0624   11.5496 C   0  0  0  0  0  0  0  0  0  0  0  0
   -8.7302   -2.0936   10.7091 N   0  0  0  0  0  0  0  0  0  0  0  0
   -8.8121   -2.4114   13.6556 N   0  0  0  0  0  0  0  0  0  0  0  0
   -8.8164   -2.0767   14.9673 C   0  0  0  0  0  0  0  0  0  0  0  0
   -8.7544   -0.7125   15.0754 N   0  0  0  0  0  0  0  0  0  0  0  0
  2  1  1  1  0  0  0
  2  3  1  0  0  0  0
  2  5  1  0  0  0  0
  3  4  1  0  0  0  0
  3 17  1  0  0  0  0
  5  6  1  0  0  0  0
  7  6  1  1  0  0  0
  7  8  1  0  0  0  0
  7  9  1  0  0  0  0
 10  9  1  1  0  0  0
 10 11  1  0  0  0  0
 10 12  1  0  0  0  0
 11 16  1  0  0  0  0
 12 13  1  1  0  0  0
 12 14  1  0  0  0  0
 14 15  1  1  0  0  0
 14 16  1  0  0  0  0
 16 27  1  6  0  0  0
 18 19  2  0  0  0  0
 18 23  1  0  0  0  0
 19 20  1  0  0  0  0
 20 21  2  0  0  0  0
 21 22  1  0  0  0  0
 21 27  1  0  0  0  0
 22 23  2  0  0  0  0
 22 25  1  0  0  0  0
 23 24  1  0  0  0  0
 25 26  2  0  0  0  0
 26 27  1  0  0  0  0
M  END
>  <CHROM.1>
97.22771392,-168.19224218,-70.37618369,-73.24745574,-67.90461635,175.01077917
-118.60347098,-8.35783678,-0.51362410,17.97346515,1.45660489,-0.64771308
1.47139318

>  <Name>
ligand

>  <RI>
0

>  <Rbt.Current_Directory>
/home/itssahil/PROJECTS/Mol_Feturizer/New_Systems/rnas/3GX6

>  <Rbt.Executable>
rbdock ($Id: //depot/dev/client3/rdock/2013.1/src/exe/rbdock.cxx#4 $)

>  <Rbt.Library>
libRbt.so (2013.1, Build901 2013/11/27)

>  <Rbt.Parameter_File>
/export/apps/rDock/src/rDock_2013.1_src/data/scripts/dock_solv.prm

>  <Rbt.Receptor>
prm/blind_docking_100.prm

>  <SCORE>
-22.2205

>  <SCORE.INTER>
-11.4438

>  <SCORE.INTER.CONST>
1

>  <SCORE.INTER.POLAR>
0

>  <SCORE.INTER.ROT>
7

>  <SCORE.INTER.SOLV>
11.8923

>  <SCORE.INTER.VDW>
-19.8599

>  <SCORE.INTER.norm>
-0.423843

>  <SCORE.INTRA>
-10.7943

>  <SCORE.INTRA.DIHEDRAL>
-10.7778

>  <SCORE.INTRA.DIHEDRAL.0>
15.0182

>  <SCORE.INTRA.POLAR>
0

>  <SCORE.INTRA.POLAR.0>
0

>  <SCORE.INTRA.REPUL>
0

>  <SCORE.INTRA.REPUL.0>
0

>  <SCORE.INTRA.SOLV>
-1.46204

>  <SCORE.INTRA.SOLV.lig_0>
-47.9129

>  <SCORE.INTRA.VDW>
-4.67441

>  <SCORE.INTRA.VDW.0>
2.00851

>  <SCORE.INTRA.norm>
-0.39979

>  <SCORE.RESTR>
0.0176296

>  <SCORE.RESTR.CAVITY>
0.0176296

>  <SCORE.RESTR.norm>
0.000652949

>  <SCORE.SYSTEM>
0

>  <SCORE.SYSTEM.CONST>
0

>  <SCORE.SYSTEM.DIHEDRAL>
0

>  <SCORE.SYSTEM.SOLV>
0

>  <SCORE.SYSTEM.norm>
0

>  <SCORE.heavy>
27

>  <SCORE.norm>
-0.82298

>  <RMSD>
17.015

$$$$
ligand
 OpenBabel11021811483D
libRbt.so/2013.1/901 2013/11/27
 27 29  0  0  0  0  0  0  0  0999 V2000
   -8.5637   -2.2644   10.1339 N   0  0  0  0  0  0  0  0  0  0  0  0
   -8.8445   -2.2165   11.5663 C   0  0  2  0  0  0  0  0  0  0  0  0
   -8.8148   -0.7885   12.1047 C   0  0  0  0  0  0  0  0  0  0  0  0
   -9.5629   -0.4371   13.0197 O   0  0  0  0  0  0  0  0  0  0  0  0
   -7.8899   -3.1217   12.3390 C   0  0  0  0  0  0  0  0  0  0  0  0
   -7.9113   -4.5660   11.8629 C   0  0  0  0  0  0  0  0  0  0  0  0
   -7.0638   -5.7157   12.9748 S   0  0  2  0  0  0  0  0  0  0  0  0
   -7.1324   -7.2338   11.9913 C   0  0  0  0  0  0  0  0  0  0  0  0
   -8.3620   -6.0288   14.2016 C   0  0  0  0  0  0  0  0  0  0  0  0
   -7.8769   -5.5841   15.5740 C   0  0  1  0  0  0  0  0  0  0  0  0
   -7.6074   -4.2034   15.5224 O   0  0  0  0  0  0  0  0  0  0  0  0
   -8.8758   -5.7352   16.7059 C   0  0  1  0  0  0  0  0  0  0  0  0
   -8.6635   -6.9397   17.4079 O   0  0  0  0  0  0  0  0  0  0  0  0
   -8.5630   -4.5513   17.5983 C   0  0  1  0  0  0  0  0  0  0  0  0
   -7.8828   -5.0196   18.7366 O   0  0  0  0  0  0  0  0  0  0  0  0
   -7.6484   -3.6291   16.8035 C   0  0  2  0  0  0  0  0  0  0  0  0
   -8.0428    0.0444   11.6291 O   0  0  0  0  0  0  0  0  0  0  0  0
  -10.2347    0.2114   19.3208 N   0  0  0  0  0  0  0  0  0  0  0  0
   -9.7838   -0.9894   19.8325 C   0  0  0  0  0  0  0  0  0  0  0  0
   -9.1191   -1.8928   19.0249 N   0  0  0  0  0  0  0  0  0  0  0  0
   -8.9054   -1.6124   17.7173 C   0  0  0  0  0  0  0  0  0  0  0  0
   -9.3443   -0.4055   17.1870 C   0  0  0  0  0  0  0  0  0  0  0  0
  -10.0157    0.5062   17.9926 C   0  0  0  0  0  0  0  0  0  0  0  0
  -10.4444    1.6580   17.4821 N   0  0  0  0  0  0  0  0  0  0  0  0
   -9.0003   -0.3771   15.8815 N   0  0  0  0  0  0  0  0  0  0  0  0
   -8.3436   -1.5224   15.5816 C   0  0  0  0  0  0  0  0  0  0  0  0
   -8.2749   -2.2999   16.7074 N   0  0  0  0  0  0  0  0  0  0  0  0
  2  1  1  6  0  0  0
  2  3  1  0  0  0  0
  2  5  1  0  0  0  0
  3  4  1  0  0  0  0
  3 17  1  0  0  0  0
  5  6  1  0  0  0  0
  7  6  1  6  0  0  0
  7  8  1  0  0  0  0
  7  9  1  0  0  0  0
 10  9  1  6  0  0  0
 10 11  1  0  0  0  0
 10 12  1  0  0  0  0
 11 16  1  0  0  0  0
 12 13  1  1  0  0  0
 12 14  1  0  0  0  0
 14 15  1  1  0  0  0
 14 16  1  0  0  0  0
 16 27  1  6  0  0  0
 18 19  2  0  0  0  0
 18 23  1  0  0  0  0
 19 20  1  0  0  0  0
 20 21  2  0  0  0  0
 21 22  1  0  0  0  0
 21 27  1  0  0  0  0
 22 23  2  0  0  0  0
 22 25  1  0  0  0  0
 23 24  1  0  0  0  0
 25 26  2  0  0  0  0
 26 27  1  0  0  0  0
M  END
>  <CHROM.1>
146.32996425,-56.21882460,-167.77240189,-173.54676166,-119.38555956,60.90798876
156.43422665,-8.52377991,-2.96981982,15.27028234,0.50203674,1.29281938,-1.11353789

>  <Name>
ligand

>  <RI>
0

>  <Rbt.Current_Directory>
/home/itssahil/PROJECTS/Mol_Feturizer/New_Systems/rnas/3GX6

>  <Rbt.Executable>
rbdock ($Id: //depot/dev/client3/rdock/2013.1/src/exe/rbdock.cxx#4 $)

>  <Rbt.Library>
libRbt.so (2013.1, Build901 2013/11/27)

>  <Rbt.Parameter_File>
/export/apps/rDock/src/rDock_2013.1_src/data/scripts/dock_solv.prm

>  <Rbt.Receptor>
prm/blind_docking_80.prm

>  <SCORE>
-20.4147

>  <SCORE.INTER>
-11.3732

>  <SCORE.INTER.CONST>
1

>  <SCORE.INTER.POLAR>
0

>  <SCORE.INTER.ROT>
7

>  <SCORE.INTER.SOLV>
12.7782

>  <SCORE.INTER.VDW>
-20.1082

>  <SCORE.INTER.norm>
-0.421231

>  <SCORE.INTRA>
-9.04151

>  <SCORE.INTRA.DIHEDRAL>
-6.50512

>  <SCORE.INTRA.DIHEDRAL.0>
15.0182

>  <SCORE.INTRA.POLAR>
0

>  <SCORE.INTRA.POLAR.0>
0

>  <SCORE.INTRA.REPUL>
0

>  <SCORE.INTRA.REPUL.0>
0

>  <SCORE.INTRA.SOLV>
-0.955409

>  <SCORE.INTRA.SOLV.lig_0>
-47.9129

>  <SCORE.INTRA.VDW>
-5.31124

>  <SCORE.INTRA.VDW.0>
2.00851

>  <SCORE.INTRA.norm>
-0.334871

>  <SCORE.RESTR>
0

>  <SCORE.RESTR.CAVITY>
0

>  <SCORE.RESTR.norm>
0

>  <SCORE.SYSTEM>
0

>  <SCORE.SYSTEM.CONST>
0

>  <SCORE.SYSTEM.DIHEDRAL>
0

>  <SCORE.SYSTEM.SOLV>
0

>  <SCORE.SYSTEM.norm>
0

>  <SCORE.heavy>
27

>  <SCORE.norm>
-0.756101

>  <RMSD>
17.081

$$$$
ligand
 OpenBabel11021811483D
libRbt.so/2013.1/901 2013/11/27
 27 29  0  0  0  0  0  0  0  0999 V2000
   -8.1672    5.0541   13.0160 N   0  0  0  0  0  0  0  0  0  0  0  0
   -6.7331    4.9895   13.2841 C   0  0  2  0  0  0  0  0  0  0  0  0
   -5.9285    4.7189   12.0155 C   0  0  0  0  0  0  0  0  0  0  0  0
   -5.5935    5.6385   11.2655 O   0  0  0  0  0  0  0  0  0  0  0  0
   -6.4273    3.9586   14.3665 C   0  0  0  0  0  0  0  0  0  0  0  0
   -7.2182    4.1770   15.6471 C   0  0  0  0  0  0  0  0  0  0  0  0
   -6.8889    2.9434   16.9301 S   0  0  2  0  0  0  0  0  0  0  0  0
   -5.1344    3.2581   17.2453 C   0  0  0  0  0  0  0  0  0  0  0  0
   -6.8049    1.4279   15.9377 C   0  0  0  0  0  0  0  0  0  0  0  0
   -7.1852    0.2359   16.8041 C   0  0  1  0  0  0  0  0  0  0  0  0
   -6.3570    0.2337   17.9424 O   0  0  0  0  0  0  0  0  0  0  0  0
   -8.5968    0.2501   17.3600 C   0  0  1  0  0  0  0  0  0  0  0  0
   -9.4658   -0.5080   16.5483 O   0  0  0  0  0  0  0  0  0  0  0  0
   -8.4381   -0.4135   18.7130 C   0  0  1  0  0  0  0  0  0  0  0  0
   -8.9638   -1.7156   18.6343 O   0  0  0  0  0  0  0  0  0  0  0  0
   -6.9438   -0.4853   18.9968 C   0  0  2  0  0  0  0  0  0  0  0  0
   -5.6020    3.5708   11.7137 O   0  0  0  0  0  0  0  0  0  0  0  0
   -8.3796    0.3010   24.0063 N   0  0  0  0  0  0  0  0  0  0  0  0
   -8.9736   -0.5206   23.0688 C   0  0  0  0  0  0  0  0  0  0  0  0
   -8.4647   -0.6078   21.7867 N   0  0  0  0  0  0  0  0  0  0  0  0
   -7.3771    0.1170   21.4323 C   0  0  0  0  0  0  0  0  0  0  0  0
   -6.7610    0.9426   22.3647 C   0  0  0  0  0  0  0  0  0  0  0  0
   -7.2690    1.0371   23.6546 C   0  0  0  0  0  0  0  0  0  0  0  0
   -6.6843    1.8352   24.5447 N   0  0  0  0  0  0  0  0  0  0  0  0
   -5.7092    1.5367   21.7609 N   0  0  0  0  0  0  0  0  0  0  0  0
   -5.6371    1.0951   20.4832 C   0  0  0  0  0  0  0  0  0  0  0  0
   -6.6626    0.2142   20.2617 N   0  0  0  0  0  0  0  0  0  0  0  0
  2  1  1  6  0  0  0
  2  3  1  0  0  0  0
  2  5  1  0  0  0  0
  3  4  1  0  0  0  0
  3 17  1  0  0  0  0
  5  6  1  0  0  0  0
  7  6  1  6  0  0  0
  7  8  1  0  0  0  0
  7  9  1  0  0  0  0
 10  9  1  6  0  0  0
 10 11  1  0  0  0  0
 10 12  1  0  0  0  0
 11 16  1  0  0  0  0
 12 13  1  6  0  0  0
 12 14  1  0  0  0  0
 14 15  1  6  0  0  0
 14 16  1  0  0  0  0
 16 27  1  1  0  0  0
 18 19  2  0  0  0  0
 18 23  1  0  0  0  0
 19 20  1  0  0  0  0
 20 21  2  0  0  0  0
 21 22  1  0  0  0  0
 21 27  1  0  0  0  0
 22 23  2  0  0  0  0
 22 25  1  0  0  0  0
 23 24  1  0  0  0  0
 25 26  2  0  0  0  0
 26 27  1  0  0  0  0
M  END
>  <CHROM.1>
84.90815617,-54.02706118,178.92289313,63.19195538,-153.48810599,-54.64806483
157.30509695,-7.10868831,1.68574287,17.94841796,-1.35755210,1.01051419,1.80496936

>  <Name>
ligand

>  <RI>
0

>  <Rbt.Current_Directory>
/home/itssahil/PROJECTS/Mol_Feturizer/New_Systems/rnas/3GX6

>  <Rbt.Executable>
rbdock ($Id: //depot/dev/client3/rdock/2013.1/src/exe/rbdock.cxx#4 $)

>  <Rbt.Library>
libRbt.so (2013.1, Build901 2013/11/27)

>  <Rbt.Parameter_File>
/export/apps/rDock/src/rDock_2013.1_src/data/scripts/dock_solv.prm

>  <Rbt.Receptor>
prm/blind_docking_100.prm

>  <SCORE>
-17.8117

>  <SCORE.INTER>
-10.3251

>  <SCORE.INTER.CONST>
1

>  <SCORE.INTER.POLAR>
0

>  <SCORE.INTER.ROT>
7

>  <SCORE.INTER.SOLV>
7.08235

>  <SCORE.INTER.VDW>
-17.5108

>  <SCORE.INTER.norm>
-0.382411

>  <SCORE.INTRA>
-7.48665

>  <SCORE.INTRA.DIHEDRAL>
-8.49403

>  <SCORE.INTRA.DIHEDRAL.0>
15.0182

>  <SCORE.INTRA.POLAR>
0

>  <SCORE.INTRA.POLAR.0>
0

>  <SCORE.INTRA.REPUL>
0

>  <SCORE.INTRA.REPUL.0>
0

>  <SCORE.INTRA.SOLV>
-0.856829

>  <SCORE.INTRA.SOLV.lig_0>
-47.9129

>  <SCORE.INTRA.VDW>
-2.81122

>  <SCORE.INTRA.VDW.0>
2.00851

>  <SCORE.INTRA.norm>
-0.277283

>  <SCORE.RESTR>
0

>  <SCORE.RESTR.CAVITY>
0

>  <SCORE.RESTR.norm>
0

>  <SCORE.SYSTEM>
0

>  <SCORE.SYSTEM.CONST>
0

>  <SCORE.SYSTEM.DIHEDRAL>
0

>  <SCORE.SYSTEM.SOLV>
0

>  <SCORE.SYSTEM.norm>
0

>  <SCORE.heavy>
27

>  <SCORE.norm>
-0.659694

>  <RMSD>
17.160

$$$$
ligand
 OpenBabel11021811483D
libRbt.so/2013.1/901 2013/11/27
 27 29  0  0  0  0  0  0  0  0999 V2000
  -10.5160    7.0531   12.8555 N   0  0  0  0  0  0  0  0  0  0  0  0
  -10.7022    5.6743   13.2995 C   0  0  2  0  0  0  0  0  0  0  0  0
  -12.1666    5.2485   13.2358 C   0  0  0  0  0  0  0  0  0  0  0  0
  -12.4807    4.0599   13.1417 O   0  0  0  0  0  0  0  0  0  0  0  0
  -10.1241    5.4694   14.6966 C   0  0  0  0  0  0  0  0  0  0  0  0
  -10.1191    4.0143   15.1390 C   0  0  0  0  0  0  0  0  0  0  0  0
   -9.1974    3.7176   16.6683 S   0  0  2  0  0  0  0  0  0  0  0  0
   -9.5252    1.9541   16.9120 C   0  0  0  0  0  0  0  0  0  0  0  0
  -10.3123    4.4581   17.8919 C   0  0  0  0  0  0  0  0  0  0  0  0
   -9.6890    4.3450   19.2758 C   0  0  1  0  0  0  0  0  0  0  0  0
   -9.6680    2.9860   19.6422 O   0  0  0  0  0  0  0  0  0  0  0  0
   -8.2431    4.7914   19.3849 C   0  0  1  0  0  0  0  0  0  0  0  0
   -8.1600    6.1236   19.8400 O   0  0  0  0  0  0  0  0  0  0  0  0
   -7.6723    3.8499   20.4259 C   0  0  1  0  0  0  0  0  0  0  0  0
   -7.5124    4.5608   21.6288 O   0  0  0  0  0  0  0  0  0  0  0  0
   -8.6947    2.7392   20.6244 C   0  0  2  0  0  0  0  0  0  0  0  0
  -13.0655    6.0889   13.2721 O   0  0  0  0  0  0  0  0  0  0  0  0
   -9.3101   -2.1755   18.8236 N   0  0  0  0  0  0  0  0  0  0  0  0
  -10.2621   -1.1805   18.9268 C   0  0  0  0  0  0  0  0  0  0  0  0
   -9.9282    0.0632   19.4286 N   0  0  0  0  0  0  0  0  0  0  0  0
   -8.6608    0.3203   19.8305 C   0  0  0  0  0  0  0  0  0  0  0  0
   -7.6875   -0.6658   19.7261 C   0  0  0  0  0  0  0  0  0  0  0  0
   -8.0169   -1.9193   19.2250 C   0  0  0  0  0  0  0  0  0  0  0  0
   -7.0867   -2.8666   19.1340 N   0  0  0  0  0  0  0  0  0  0  0  0
   -6.5256   -0.1509   20.1827 N   0  0  0  0  0  0  0  0  0  0  0  0
   -6.7371    1.1336   20.5540 C   0  0  0  0  0  0  0  0  0  0  0  0
   -8.0547    1.4433   20.3424 N   0  0  0  0  0  0  0  0  0  0  0  0
  2  1  1  1  0  0  0
  2  3  1  0  0  0  0
  2  5  1  0  0  0  0
  3  4  1  0  0  0  0
  3 17  1  0  0  0  0
  5  6  1  0  0  0  0
  7  6  1  6  0  0  0
  7  8  1  0  0  0  0
  7  9  1  0  0  0  0
 10  9  1  6  0  0  0
 10 11  1  0  0  0  0
 10 12  1  0  0  0  0
 11 16  1  0  0  0  0
 12 13  1  1  0  0  0
 12 14  1  0  0  0  0
 14 15  1  1  0  0  0
 14 16  1  0  0  0  0
 16 27  1  6  0  0  0
 18 19  2  0  0  0  0
 18 23  1  0  0  0  0
 19 20  1  0  0  0  0
 20 21  2  0  0  0  0
 21 22  1  0  0  0  0
 21 27  1  0  0  0  0
 22 23  2  0  0  0  0
 22 25  1  0  0  0  0
 23 24  1  0  0  0  0
 25 26  2  0  0  0  0
 26 27  1  0  0  0  0
M  END
>  <CHROM.1>
156.16306212,-172.25644392,170.54963678,176.06794752,-178.45265880,-68.23589850
-35.84247918,-9.29855466,2.78259616,17.82922100,-2.48318475,1.07620656,-3.12287956

>  <Name>
ligand

>  <RI>
0

>  <Rbt.Current_Directory>
/home/itssahil/PROJECTS/Mol_Feturizer/New_Systems/rnas/3GX6

>  <Rbt.Executable>
rbdock ($Id: //depot/dev/client3/rdock/2013.1/src/exe/rbdock.cxx#4 $)

>  <Rbt.Library>
libRbt.so (2013.1, Build901 2013/11/27)

>  <Rbt.Parameter_File>
/export/apps/rDock/src/rDock_2013.1_src/data/scripts/dock_solv.prm

>  <Rbt.Receptor>
prm/blind_docking_40.prm

>  <SCORE>
-20.7681

>  <SCORE.INTER>
-10.4748

>  <SCORE.INTER.CONST>
1

>  <SCORE.INTER.POLAR>
0

>  <SCORE.INTER.ROT>
7

>  <SCORE.INTER.SOLV>
12.9356

>  <SCORE.INTER.VDW>
-19.5617

>  <SCORE.INTER.norm>
-0.387956

>  <SCORE.INTRA>
-10.2933

>  <SCORE.INTRA.DIHEDRAL>
-10.7184

>  <SCORE.INTRA.DIHEDRAL.0>
15.0182

>  <SCORE.INTRA.POLAR>
0

>  <SCORE.INTRA.POLAR.0>
0

>  <SCORE.INTRA.REPUL>
0

>  <SCORE.INTRA.REPUL.0>
0

>  <SCORE.INTRA.SOLV>
-1.53801

>  <SCORE.INTRA.SOLV.lig_0>
-47.9129

>  <SCORE.INTRA.VDW>
-4.16503

>  <SCORE.INTRA.VDW.0>
2.00851

>  <SCORE.INTRA.norm>
-0.381232

>  <SCORE.RESTR>
0

>  <SCORE.RESTR.CAVITY>
0

>  <SCORE.RESTR.norm>
0

>  <SCORE.SYSTEM>
0

>  <SCORE.SYSTEM.CONST>
0

>  <SCORE.SYSTEM.DIHEDRAL>
0

>  <SCORE.SYSTEM.SOLV>
0

>  <SCORE.SYSTEM.norm>
0

>  <SCORE.heavy>
27

>  <SCORE.norm>
-0.769187

>  <RMSD>
17.199

$$$$
ligand
 OpenBabel11021811483D
libRbt.so/2013.1/901 2013/11/27
 27 29  0  0  0  0  0  0  0  0999 V2000
   -8.0611    0.1890   17.6812 N   0  0  0  0  0  0  0  0  0  0  0  0
   -9.1673    0.0114   18.6181 C   0  0  2  0  0  0  0  0  0  0  0  0
  -10.5113    0.3624   17.9853 C   0  0  0  0  0  0  0  0  0  0  0  0
  -11.3980    0.9159   18.6392 O   0  0  0  0  0  0  0  0  0  0  0  0
   -8.9305    0.8082   19.8975 C   0  0  0  0  0  0  0  0  0  0  0  0
   -7.6043    0.4883   20.5697 C   0  0  0  0  0  0  0  0  0  0  0  0
   -7.3919    1.2803   22.1834 S   0  0  2  0  0  0  0  0  0  0  0  0
   -8.7300    0.4928   23.1140 C   0  0  0  0  0  0  0  0  0  0  0  0
   -8.1005    2.9178   21.8598 C   0  0  0  0  0  0  0  0  0  0  0  0
   -6.9782    3.9066   21.5790 C   0  0  1  0  0  0  0  0  0  0  0  0
   -6.1632    3.3744   20.5621 O   0  0  0  0  0  0  0  0  0  0  0  0
   -7.4113    5.2611   21.0503 C   0  0  1  0  0  0  0  0  0  0  0  0
   -7.5069    6.2031   22.0954 O   0  0  0  0  0  0  0  0  0  0  0  0
   -6.2832    5.6385   20.1118 C   0  0  1  0  0  0  0  0  0  0  0  0
   -5.5030    6.6315   20.7307 O   0  0  0  0  0  0  0  0  0  0  0  0
   -5.4420    4.3860   19.9067 C   0  0  2  0  0  0  0  0  0  0  0  0
  -10.7375    0.0930   16.8055 O   0  0  0  0  0  0  0  0  0  0  0  0
   -7.9754    4.4801   15.2864 N   0  0  0  0  0  0  0  0  0  0  0  0
   -8.4296    4.9144   16.5160 C   0  0  0  0  0  0  0  0  0  0  0  0
   -7.6285    4.8130   17.6377 N   0  0  0  0  0  0  0  0  0  0  0  0
   -6.3868    4.2806   17.5448 C   0  0  0  0  0  0  0  0  0  0  0  0
   -5.9095    3.8461   16.3144 C   0  0  0  0  0  0  0  0  0  0  0  0
   -6.7107    3.9427   15.1831 C   0  0  0  0  0  0  0  0  0  0  0  0
   -6.2570    3.5177   14.0064 N   0  0  0  0  0  0  0  0  0  0  0  0
   -4.6584    3.3727   16.4990 N   0  0  0  0  0  0  0  0  0  0  0  0
   -4.3304    3.5132   17.8049 C   0  0  0  0  0  0  0  0  0  0  0  0
   -5.3893    4.0747   18.4684 N   0  0  0  0  0  0  0  0  0  0  0  0
  2  1  1  6  0  0  0
  2  3  1  0  0  0  0
  2  5  1  0  0  0  0
  3  4  1  0  0  0  0
  3 17  1  0  0  0  0
  5  6  1  0  0  0  0
  7  6  1  6  0  0  0
  7  8  1  0  0  0  0
  7  9  1  0  0  0  0
 10  9  1  6  0  0  0
 10 11  1  0  0  0  0
 10 12  1  0  0  0  0
 11 16  1  0  0  0  0
 12 13  1  1  0  0  0
 12 14  1  0  0  0  0
 14 15  1  1  0  0  0
 14 16  1  0  0  0  0
 16 27  1  6  0  0  0
 18 19  2  0  0  0  0
 18 23  1  0  0  0  0
 19 20  1  0  0  0  0
 20 21  2  0  0  0  0
 21 22  1  0  0  0  0
 21 27  1  0  0  0  0
 22 23  2  0  0  0  0
 22 25  1  0  0  0  0
 23 24  1  0  0  0  0
 25 26  2  0  0  0  0
 26 27  1  0  0  0  0
M  END
>  <CHROM.1>
-143.38155110,-54.93978640,-173.34056233,63.65321514,-98.90258959,52.67704774
79.06498639,-7.43310498,2.99712604,19.07066986,2.28009215,0.91328574,1.58549390

>  <Name>
ligand

>  <RI>
0

>  <Rbt.Current_Directory>
/home/itssahil/PROJECTS/Mol_Feturizer/New_Systems/rnas/3GX6

>  <Rbt.Executable>
rbdock ($Id: //depot/dev/client3/rdock/2013.1/src/exe/rbdock.cxx#4 $)

>  <Rbt.Library>
libRbt.so (2013.1, Build901 2013/11/27)

>  <Rbt.Parameter_File>
/export/apps/rDock/src/rDock_2013.1_src/data/scripts/dock_solv.prm

>  <Rbt.Receptor>
prm/blind_docking_100.prm

>  <SCORE>
-21.8208

>  <SCORE.INTER>
-14.0833

>  <SCORE.INTER.CONST>
1

>  <SCORE.INTER.POLAR>
0

>  <SCORE.INTER.ROT>
7

>  <SCORE.INTER.SOLV>
6.55459

>  <SCORE.INTER.VDW>
-19.8404

>  <SCORE.INTER.norm>
-0.521605

>  <SCORE.INTRA>
-7.73746

>  <SCORE.INTRA.DIHEDRAL>
-8.79491

>  <SCORE.INTRA.DIHEDRAL.0>
15.0182

>  <SCORE.INTRA.POLAR>
0

>  <SCORE.INTRA.POLAR.0>
0

>  <SCORE.INTRA.REPUL>
0

>  <SCORE.INTRA.REPUL.0>
0

>  <SCORE.INTRA.SOLV>
-0.976085

>  <SCORE.INTRA.SOLV.lig_0>
-47.9129

>  <SCORE.INTRA.VDW>
-2.85196

>  <SCORE.INTRA.VDW.0>
2.00851

>  <SCORE.INTRA.norm>
-0.286573

>  <SCORE.RESTR>
0

>  <SCORE.RESTR.CAVITY>
0

>  <SCORE.RESTR.norm>
0

>  <SCORE.SYSTEM>
0

>  <SCORE.SYSTEM.CONST>
0

>  <SCORE.SYSTEM.DIHEDRAL>
0

>  <SCORE.SYSTEM.SOLV>
0

>  <SCORE.SYSTEM.norm>
0

>  <SCORE.heavy>
27

>  <SCORE.norm>
-0.808178

>  <RMSD>
17.288

$$$$
ligand
 OpenBabel11021811483D
libRbt.so/2013.1/901 2013/11/27
 27 29  0  0  0  0  0  0  0  0999 V2000
   -9.7766    4.7508   13.5209 N   0  0  0  0  0  0  0  0  0  0  0  0
   -9.8347    5.0061   14.9577 C   0  0  2  0  0  0  0  0  0  0  0  0
  -10.2766    6.4346   15.2647 C   0  0  0  0  0  0  0  0  0  0  0  0
  -10.4230    6.8201   16.4267 O   0  0  0  0  0  0  0  0  0  0  0  0
   -8.5002    4.6822   15.6227 C   0  0  0  0  0  0  0  0  0  0  0  0
   -8.1534    3.2018   15.5878 C   0  0  0  0  0  0  0  0  0  0  0  0
   -6.6385    2.7838   16.4859 S   0  0  2  0  0  0  0  0  0  0  0  0
   -5.3959    3.1497   15.2215 C   0  0  0  0  0  0  0  0  0  0  0  0
   -6.6880    0.9722   16.4210 C   0  0  0  0  0  0  0  0  0  0  0  0
   -7.5409    0.4494   17.5680 C   0  0  1  0  0  0  0  0  0  0  0  0
   -6.9734    0.8904   18.7784 O   0  0  0  0  0  0  0  0  0  0  0  0
   -8.9700    0.9571   17.6099 C   0  0  1  0  0  0  0  0  0  0  0  0
   -9.8492    0.0384   17.0003 O   0  0  0  0  0  0  0  0  0  0  0  0
   -9.2580    1.0453   19.0950 C   0  0  1  0  0  0  0  0  0  0  0  0
  -10.1025   -0.0223   19.4485 O   0  0  0  0  0  0  0  0  0  0  0  0
   -7.9235    0.8965   19.8129 C   0  0  2  0  0  0  0  0  0  0  0  0
  -10.5012    7.2305   14.3526 O   0  0  0  0  0  0  0  0  0  0  0  0
   -5.2293    5.3766   20.4803 N   0  0  0  0  0  0  0  0  0  0  0  0
   -5.1242    4.4649   19.4484 C   0  0  0  0  0  0  0  0  0  0  0  0
   -5.9126    3.3299   19.4296 N   0  0  0  0  0  0  0  0  0  0  0  0
   -6.7968    3.0953   20.4281 C   0  0  0  0  0  0  0  0  0  0  0  0
   -6.9225    4.0056   21.4702 C   0  0  0  0  0  0  0  0  0  0  0  0
   -6.1311    5.1475   21.4968 C   0  0  0  0  0  0  0  0  0  0  0  0
   -6.2449    6.0145   22.5000 N   0  0  0  0  0  0  0  0  0  0  0  0
   -7.8673    3.5400   22.3153 N   0  0  0  0  0  0  0  0  0  0  0  0
   -8.3499    2.3739   21.8255 C   0  0  0  0  0  0  0  0  0  0  0  0
   -7.6986    2.0827   20.6560 N   0  0  0  0  0  0  0  0  0  0  0  0
  2  1  1  6  0  0  0
  2  3  1  0  0  0  0
  2  5  1  0  0  0  0
  3  4  1  0  0  0  0
  3 17  1  0  0  0  0
  5  6  1  0  0  0  0
  7  6  1  6  0  0  0
  7  8  1  0  0  0  0
  7  9  1  0  0  0  0
 10  9  1  6  0  0  0
 10 11  1  0  0  0  0
 10 12  1  0  0  0  0
 11 16  1  0  0  0  0
 12 13  1  6  0  0  0
 12 14  1  0  0  0  0
 14 15  1  1  0  0  0
 14 16  1  0  0  0  0
 16 27  1  1  0  0  0
 18 19  2  0  0  0  0
 18 23  1  0  0  0  0
 19 20  1  0  0  0  0
 20 21  2  0  0  0  0
 21 22  1  0  0  0  0
 21 27  1  0  0  0  0
 22 23  2  0  0  0  0
 22 25  1  0  0  0  0
 23 24  1  0  0  0  0
 25 26  2  0  0  0  0
 26 27  1  0  0  0  0
M  END
>  <CHROM.1>
177.75005166,-66.41592835,-175.43546124,-83.77867379,-85.12395271,-59.16754918
5.37122399,-7.87912482,3.24544374,18.10257968,-2.69312013,1.16775291,2.97406533

>  <Name>
ligand

>  <RI>
0

>  <Rbt.Current_Directory>
/home/itssahil/PROJECTS/Mol_Feturizer/New_Systems/rnas/3GX6

>  <Rbt.Executable>
rbdock ($Id: //depot/dev/client3/rdock/2013.1/src/exe/rbdock.cxx#4 $)

>  <Rbt.Library>
libRbt.so (2013.1, Build901 2013/11/27)

>  <Rbt.Parameter_File>
/export/apps/rDock/src/rDock_2013.1_src/data/scripts/dock_solv.prm

>  <Rbt.Receptor>
prm/blind_docking_40.prm

>  <SCORE>
-19.7796

>  <SCORE.INTER>
-9.17255

>  <SCORE.INTER.CONST>
1

>  <SCORE.INTER.POLAR>
0

>  <SCORE.INTER.ROT>
7

>  <SCORE.INTER.SOLV>
7.54655

>  <SCORE.INTER.VDW>
-16.8972

>  <SCORE.INTER.norm>
-0.339724

>  <SCORE.INTRA>
-10.607

>  <SCORE.INTRA.DIHEDRAL>
-10.0945

>  <SCORE.INTRA.DIHEDRAL.0>
15.0182

>  <SCORE.INTRA.POLAR>
0

>  <SCORE.INTRA.POLAR.0>
0

>  <SCORE.INTRA.REPUL>
0

>  <SCORE.INTRA.REPUL.0>
0

>  <SCORE.INTRA.SOLV>
-0.800827

>  <SCORE.INTRA.SOLV.lig_0>
-47.9129

>  <SCORE.INTRA.VDW>
-5.15938

>  <SCORE.INTRA.VDW.0>
2.00851

>  <SCORE.INTRA.norm>
-0.392854

>  <SCORE.RESTR>
0

>  <SCORE.RESTR.CAVITY>
0

>  <SCORE.RESTR.norm>
0

>  <SCORE.SYSTEM>
0

>  <SCORE.SYSTEM.CONST>
0

>  <SCORE.SYSTEM.DIHEDRAL>
0

>  <SCORE.SYSTEM.SOLV>
0

>  <SCORE.SYSTEM.norm>
0

>  <SCORE.heavy>
27

>  <SCORE.norm>
-0.732578

>  <RMSD>
17.353

$$$$
ligand
 OpenBabel11021811483D
libRbt.so/2013.1/901 2013/11/27
 27 29  0  0  0  0  0  0  0  0999 V2000
  -11.3256    3.4760   11.6164 N   0  0  0  0  0  0  0  0  0  0  0  0
  -11.7654    3.6663   12.9960 C   0  0  2  0  0  0  0  0  0  0  0  0
  -12.1999    5.1053   13.2616 C   0  0  0  0  0  0  0  0  0  0  0  0
  -13.3252    5.4992   12.9471 O   0  0  0  0  0  0  0  0  0  0  0  0
  -10.6858    3.2214   13.9781 C   0  0  0  0  0  0  0  0  0  0  0  0
  -10.3563    1.7399   13.8806 C   0  0  0  0  0  0  0  0  0  0  0  0
   -9.1057    1.1887   15.0674 S   0  0  2  0  0  0  0  0  0  0  0  0
   -8.9253   -0.5433   14.5734 C   0  0  0  0  0  0  0  0  0  0  0  0
  -10.1055    1.0265   16.5715 C   0  0  0  0  0  0  0  0  0  0  0  0
   -9.1869    0.8353   17.7698 C   0  0  1  0  0  0  0  0  0  0  0  0
   -8.5004    2.0427   17.9985 O   0  0  0  0  0  0  0  0  0  0  0  0
   -9.8771    0.5341   19.0868 C   0  0  1  0  0  0  0  0  0  0  0  0
   -9.9094   -0.8541   19.3330 O   0  0  0  0  0  0  0  0  0  0  0  0
   -8.9888    1.2219   20.1035 C   0  0  1  0  0  0  0  0  0  0  0  0
   -8.2474    0.2392   20.7836 O   0  0  0  0  0  0  0  0  0  0  0  0
   -8.0417    2.1237   19.3236 C   0  0  2  0  0  0  0  0  0  0  0  0
  -11.4287    5.9045   13.7928 O   0  0  0  0  0  0  0  0  0  0  0  0
   -5.6393    6.5645   20.8347 N   0  0  0  0  0  0  0  0  0  0  0  0
   -5.0603    5.3791   20.4266 C   0  0  0  0  0  0  0  0  0  0  0  0
   -5.8455    4.3013   20.0634 N   0  0  0  0  0  0  0  0  0  0  0  0
   -7.1958    4.3935   20.1079 C   0  0  0  0  0  0  0  0  0  0  0  0
   -7.7963    5.5810   20.5077 C   0  0  0  0  0  0  0  0  0  0  0  0
   -7.0129    6.6677   20.8768 C   0  0  0  0  0  0  0  0  0  0  0  0
   -7.5881    7.8020   21.2689 N   0  0  0  0  0  0  0  0  0  0  0  0
   -9.1344    5.4069   20.4548 N   0  0  0  0  0  0  0  0  0  0  0  0
   -9.3910    4.1518   20.0173 C   0  0  0  0  0  0  0  0  0  0  0  0
   -8.2015    3.5091   19.7967 N   0  0  0  0  0  0  0  0  0  0  0  0
  2  1  1  6  0  0  0
  2  3  1  0  0  0  0
  2  5  1  0  0  0  0
  3  4  1  0  0  0  0
  3 17  1  0  0  0  0
  5  6  1  0  0  0  0
  7  6  1  6  0  0  0
  7  8  1  0  0  0  0
  7  9  1  0  0  0  0
 10  9  1  6  0  0  0
 10 11  1  0  0  0  0
 10 12  1  0  0  0  0
 11 16  1  0  0  0  0
 12 13  1  1  0  0  0
 12 14  1  0  0  0  0
 14 15  1  6  0  0  0
 14 16  1  0  0  0  0
 16 27  1  1  0  0  0
 18 19  2  0  0  0  0
 18 23  1  0  0  0  0
 19 20  1  0  0  0  0
 20 21  2  0  0  0  0
 21 22  1  0  0  0  0
 21 27  1  0  0  0  0
 22 23  2  0  0  0  0
 22 25  1  0  0  0  0
 23 24  1  0  0  0  0
 25 26  2  0  0  0  0
 26 27  1  0  0  0  0
M  END
>  <CHROM.1>
81.52744907,-62.64752741,-178.59079374,-176.62351544,-168.76411256,69.39768132
-113.04084529,-9.12373917,3.17407145,17.48642759,2.99762044,1.06722740,3.09566490

>  <Name>
ligand

>  <RI>
0

>  <Rbt.Current_Directory>
/home/itssahil/PROJECTS/Mol_Feturizer/New_Systems/rnas/3GX6

>  <Rbt.Executable>
rbdock ($Id: //depot/dev/client3/rdock/2013.1/src/exe/rbdock.cxx#4 $)

>  <Rbt.Library>
libRbt.so (2013.1, Build901 2013/11/27)

>  <Rbt.Parameter_File>
/export/apps/rDock/src/rDock_2013.1_src/data/scripts/dock_solv.prm

>  <Rbt.Receptor>
prm/blind_docking_80.prm

>  <SCORE>
-20.9868

>  <SCORE.INTER>
-11.5722

>  <SCORE.INTER.CONST>
1

>  <SCORE.INTER.POLAR>
0

>  <SCORE.INTER.ROT>
7

>  <SCORE.INTER.SOLV>
12.1321

>  <SCORE.INTER.VDW>
-20.0255

>  <SCORE.INTER.norm>
-0.428601

>  <SCORE.INTRA>
-9.41453

>  <SCORE.INTRA.DIHEDRAL>
-10.0365

>  <SCORE.INTRA.DIHEDRAL.0>
15.0182

>  <SCORE.INTRA.POLAR>
0

>  <SCORE.INTRA.POLAR.0>
0

>  <SCORE.INTRA.REPUL>
0

>  <SCORE.INTRA.REPUL.0>
0

>  <SCORE.INTRA.SOLV>
-1.2517

>  <SCORE.INTRA.SOLV.lig_0>
-47.9129

>  <SCORE.INTRA.VDW>
-3.77044

>  <SCORE.INTRA.VDW.0>
2.00851

>  <SCORE.INTRA.norm>
-0.348686

>  <SCORE.RESTR>
0

>  <SCORE.RESTR.CAVITY>
0

>  <SCORE.RESTR.norm>
0

>  <SCORE.SYSTEM>
0

>  <SCORE.SYSTEM.CONST>
0

>  <SCORE.SYSTEM.DIHEDRAL>
0

>  <SCORE.SYSTEM.SOLV>
0

>  <SCORE.SYSTEM.norm>
0

>  <SCORE.heavy>
27

>  <SCORE.norm>
-0.777287

>  <RMSD>
17.359

$$$$
ligand
 OpenBabel11021811483D
libRbt.so/2013.1/901 2013/11/27
 27 29  0  0  0  0  0  0  0  0999 V2000
  -10.4382    6.6598   12.8183 N   0  0  0  0  0  0  0  0  0  0  0  0
  -10.5834    5.2111   12.9331 C   0  0  2  0  0  0  0  0  0  0  0  0
  -12.0460    4.7940   13.0628 C   0  0  0  0  0  0  0  0  0  0  0  0
  -12.9409    5.6353   13.1714 O   0  0  0  0  0  0  0  0  0  0  0  0
   -9.7465    4.6698   14.0883 C   0  0  0  0  0  0  0  0  0  0  0  0
  -10.2423    5.1197   15.4539 C   0  0  0  0  0  0  0  0  0  0  0  0
   -9.2653    4.4770   16.8354 S   0  0  2  0  0  0  0  0  0  0  0  0
   -9.5168    2.6979   16.6155 C   0  0  0  0  0  0  0  0  0  0  0  0
  -10.3717    4.8221   18.2301 C   0  0  0  0  0  0  0  0  0  0  0  0
   -9.6708    4.4599   19.5316 C   0  0  1  0  0  0  0  0  0  0  0  0
   -9.6115    3.0566   19.6269 O   0  0  0  0  0  0  0  0  0  0  0  0
   -8.2270    4.9111   19.6493 C   0  0  1  0  0  0  0  0  0  0  0  0
   -8.1362    6.1326   20.3482 O   0  0  0  0  0  0  0  0  0  0  0  0
   -7.5866    3.8008   20.4575 C   0  0  1  0  0  0  0  0  0  0  0  0
   -7.3693    4.2709   21.7651 O   0  0  0  0  0  0  0  0  0  0  0  0
   -8.5817    2.6487   20.4908 C   0  0  2  0  0  0  0  0  0  0  0  0
  -12.3599    3.6036   13.0667 O   0  0  0  0  0  0  0  0  0  0  0  0
   -9.2661   -2.1915   18.5214 N   0  0  0  0  0  0  0  0  0  0  0  0
  -10.2297   -1.3112   18.9724 C   0  0  0  0  0  0  0  0  0  0  0  0
   -9.8733   -0.0700   19.4648 N   0  0  0  0  0  0  0  0  0  0  0  0
   -8.5707    0.2970   19.5153 C   0  0  0  0  0  0  0  0  0  0  0  0
   -7.5879   -0.5722   19.0580 C   0  0  0  0  0  0  0  0  0  0  0  0
   -7.9390   -1.8227   18.5642 C   0  0  0  0  0  0  0  0  0  0  0  0
   -6.9968   -2.6588   18.1350 N   0  0  0  0  0  0  0  0  0  0  0  0
   -6.3923    0.0362   19.2125 N   0  0  0  0  0  0  0  0  0  0  0  0
   -6.5973    1.2674   19.7367 C   0  0  0  0  0  0  0  0  0  0  0  0
   -7.9415    1.4467   19.9307 N   0  0  0  0  0  0  0  0  0  0  0  0
  2  1  1  1  0  0  0
  2  3  1  0  0  0  0
  2  5  1  0  0  0  0
  3  4  1  0  0  0  0
  3 17  1  0  0  0  0
  5  6  1  0  0  0  0
  7  6  1  6  0  0  0
  7  8  1  0  0  0  0
  7  9  1  0  0  0  0
 10  9  1  6  0  0  0
 10 11  1  0  0  0  0
 10 12  1  0  0  0  0
 11 16  1  0  0  0  0
 12 13  1  1  0  0  0
 12 14  1  0  0  0  0
 14 15  1  1  0  0  0
 14 16  1  0  0  0  0
 16 27  1  6  0  0  0
 18 19  2  0  0  0  0
 18 23  1  0  0  0  0
 19 20  1  0  0  0  0
 20 21  2  0  0  0  0
 21 22  1  0  0  0  0
 21 27  1  0  0  0  0
 22 23  2  0  0  0  0
 22 25  1  0  0  0  0
 23 24  1  0  0  0  0
 25 26  2  0  0  0  0
 26 27  1  0  0  0  0
M  END
>  <CHROM.1>
-5.87370831,67.23921202,179.64417188,-61.60153600,-175.01848569,-72.61482301
-51.60712595,-9.23019102,2.82555770,17.67747972,-2.65203670,1.11236860,-2.97008767

>  <Name>
ligand

>  <RI>
0

>  <Rbt.Current_Directory>
/home/itssahil/PROJECTS/Mol_Feturizer/New_Systems/rnas/3GX6

>  <Rbt.Executable>
rbdock ($Id: //depot/dev/client3/rdock/2013.1/src/exe/rbdock.cxx#4 $)

>  <Rbt.Library>
libRbt.so (2013.1, Build901 2013/11/27)

>  <Rbt.Parameter_File>
/export/apps/rDock/src/rDock_2013.1_src/data/scripts/dock_solv.prm

>  <Rbt.Receptor>
prm/blind_docking_40.prm

>  <SCORE>
-19.3795

>  <SCORE.INTER>
-10.1758

>  <SCORE.INTER.CONST>
1

>  <SCORE.INTER.POLAR>
0

>  <SCORE.INTER.ROT>
7

>  <SCORE.INTER.SOLV>
9.75861

>  <SCORE.INTER.VDW>
-18.3034

>  <SCORE.INTER.norm>
-0.376883

>  <SCORE.INTRA>
-9.20371

>  <SCORE.INTRA.DIHEDRAL>
-10.4774

>  <SCORE.INTRA.DIHEDRAL.0>
15.0182

>  <SCORE.INTRA.POLAR>
0

>  <SCORE.INTRA.POLAR.0>
0

>  <SCORE.INTRA.REPUL>
0

>  <SCORE.INTRA.REPUL.0>
0

>  <SCORE.INTRA.SOLV>
-0.926799

>  <SCORE.INTRA.SOLV.lig_0>
-47.9129

>  <SCORE.INTRA.VDW>
-3.50159

>  <SCORE.INTRA.VDW.0>
2.00851

>  <SCORE.INTRA.norm>
-0.340878

>  <SCORE.RESTR>
0

>  <SCORE.RESTR.CAVITY>
0

>  <SCORE.RESTR.norm>
0

>  <SCORE.SYSTEM>
0

>  <SCORE.SYSTEM.CONST>
0

>  <SCORE.SYSTEM.DIHEDRAL>
0

>  <SCORE.SYSTEM.SOLV>
0

>  <SCORE.SYSTEM.norm>
0

>  <SCORE.heavy>
27

>  <SCORE.norm>
-0.717761

>  <RMSD>
17.360

$$$$
ligand
 OpenBabel11021811483D
libRbt.so/2013.1/901 2013/11/27
 27 29  0  0  0  0  0  0  0  0999 V2000
   -9.8930    4.3380   12.3733 N   0  0  0  0  0  0  0  0  0  0  0  0
  -10.9412    4.5369   13.3706 C   0  0  2  0  0  0  0  0  0  0  0  0
  -11.5673    5.9253   13.2693 C   0  0  0  0  0  0  0  0  0  0  0  0
  -12.7914    6.0730   13.2620 O   0  0  0  0  0  0  0  0  0  0  0  0
  -10.4136    4.2663   14.7764 C   0  0  0  0  0  0  0  0  0  0  0  0
   -9.2329    5.1464   15.1566 C   0  0  0  0  0  0  0  0  0  0  0  0
   -8.5661    4.8049   16.8043 S   0  0  2  0  0  0  0  0  0  0  0  0
   -8.3421    3.0116   16.7023 C   0  0  0  0  0  0  0  0  0  0  0  0
  -10.0680    4.9180   17.8142 C   0  0  0  0  0  0  0  0  0  0  0  0
   -9.7452    4.5133   19.2454 C   0  0  1  0  0  0  0  0  0  0  0  0
   -9.6931    3.1079   19.3071 O   0  0  0  0  0  0  0  0  0  0  0  0
   -8.3959    4.9679   19.7695 C   0  0  1  0  0  0  0  0  0  0  0  0
   -8.5184    6.1640   20.5063 O   0  0  0  0  0  0  0  0  0  0  0  0
   -7.9848    3.8329   20.6853 C   0  0  1  0  0  0  0  0  0  0  0  0
   -8.1411    4.2570   22.0171 O   0  0  0  0  0  0  0  0  0  0  0  0
   -8.9335    2.6749   20.4064 C   0  0  2  0  0  0  0  0  0  0  0  0
  -10.8576    6.9280   13.1874 O   0  0  0  0  0  0  0  0  0  0  0  0
   -9.0275   -2.2868   18.6323 N   0  0  0  0  0  0  0  0  0  0  0  0
  -10.0986   -1.4577   18.9010 C   0  0  0  0  0  0  0  0  0  0  0  0
   -9.8939   -0.1730   19.3677 N   0  0  0  0  0  0  0  0  0  0  0  0
   -8.6370    0.2878   19.5721 C   0  0  0  0  0  0  0  0  0  0  0  0
   -7.5468   -0.5292   19.2992 C   0  0  0  0  0  0  0  0  0  0  0  0
   -7.7454   -1.8228   18.8323 C   0  0  0  0  0  0  0  0  0  0  0  0
   -6.7013   -2.6084   18.5800 N   0  0  0  0  0  0  0  0  0  0  0  0
   -6.4254    0.1694   19.5788 N   0  0  0  0  0  0  0  0  0  0  0  0
   -6.7794    1.4055   20.0022 C   0  0  0  0  0  0  0  0  0  0  0  0
   -8.1462    1.4973   20.0041 N   0  0  0  0  0  0  0  0  0  0  0  0
  2  1  1  6  0  0  0
  2  3  1  0  0  0  0
  2  5  1  0  0  0  0
  3  4  1  0  0  0  0
  3 17  1  0  0  0  0
  5  6  1  0  0  0  0
  7  6  1  6  0  0  0
  7  8  1  0  0  0  0
  7  9  1  0  0  0  0
 10  9  1  6  0  0  0
 10 11  1  0  0  0  0
 10 12  1  0  0  0  0
 11 16  1  0  0  0  0
 12 13  1  1  0  0  0
 12 14  1  0  0  0  0
 14 15  1  1  0  0  0
 14 16  1  0  0  0  0
 16 27  1  6  0  0  0
 18 19  2  0  0  0  0
 18 23  1  0  0  0  0
 19 20  1  0  0  0  0
 20 21  2  0  0  0  0
 21 22  1  0  0  0  0
 21 27  1  0  0  0  0
 22 23  2  0  0  0  0
 22 25  1  0  0  0  0
 23 24  1  0  0  0  0
 25 26  2  0  0  0  0
 26 27  1  0  0  0  0
M  END
>  <CHROM.1>
132.05254113,58.42953683,-178.36532278,51.12129318,174.08906446,-78.87868476
-61.62556841,-9.08453150,2.94819784,17.74956670,2.75964211,-1.21199605,0.37562979

>  <Name>
ligand

>  <RI>
0

>  <Rbt.Current_Directory>
/home/itssahil/PROJECTS/Mol_Feturizer/New_Systems/rnas/3GX6

>  <Rbt.Executable>
rbdock ($Id: //depot/dev/client3/rdock/2013.1/src/exe/rbdock.cxx#4 $)

>  <Rbt.Library>
libRbt.so (2013.1, Build901 2013/11/27)

>  <Rbt.Parameter_File>
/export/apps/rDock/src/rDock_2013.1_src/data/scripts/dock_solv.prm

>  <Rbt.Receptor>
prm/blind_docking_40.prm

>  <SCORE>
-18.1494

>  <SCORE.INTER>
-10.2377

>  <SCORE.INTER.CONST>
1

>  <SCORE.INTER.POLAR>
0

>  <SCORE.INTER.ROT>
7

>  <SCORE.INTER.SOLV>
7.59158

>  <SCORE.INTER.VDW>
-17.6223

>  <SCORE.INTER.norm>
-0.379174

>  <SCORE.INTRA>
-7.91167

>  <SCORE.INTRA.DIHEDRAL>
-10.6173

>  <SCORE.INTRA.DIHEDRAL.0>
15.0182

>  <SCORE.INTRA.POLAR>
0

>  <SCORE.INTRA.POLAR.0>
0

>  <SCORE.INTRA.REPUL>
0

>  <SCORE.INTRA.REPUL.0>
0

>  <SCORE.INTRA.SOLV>
-0.832541

>  <SCORE.INTRA.SOLV.lig_0>
-47.9129

>  <SCORE.INTRA.VDW>
-2.18675

>  <SCORE.INTRA.VDW.0>
2.00851

>  <SCORE.INTRA.norm>
-0.293025

>  <SCORE.RESTR>
0

>  <SCORE.RESTR.CAVITY>
0

>  <SCORE.RESTR.norm>
0

>  <SCORE.SYSTEM>
0

>  <SCORE.SYSTEM.CONST>
0

>  <SCORE.SYSTEM.DIHEDRAL>
0

>  <SCORE.SYSTEM.SOLV>
0

>  <SCORE.SYSTEM.norm>
0

>  <SCORE.heavy>
27

>  <SCORE.norm>
-0.672199

>  <RMSD>
17.387

$$$$
ligand
 OpenBabel11021811483D
libRbt.so/2013.1/901 2013/11/27
 27 29  0  0  0  0  0  0  0  0999 V2000
   -8.5260   -1.0635   16.8087 N   0  0  0  0  0  0  0  0  0  0  0  0
   -9.2569   -0.7696   18.0384 C   0  0  2  0  0  0  0  0  0  0  0  0
  -10.4833    0.1009   17.7776 C   0  0  0  0  0  0  0  0  0  0  0  0
  -11.1881    0.5029   18.7060 O   0  0  0  0  0  0  0  0  0  0  0  0
   -8.3383   -0.1378   19.0801 C   0  0  0  0  0  0  0  0  0  0  0  0
   -8.9203   -0.1531   20.4851 C   0  0  0  0  0  0  0  0  0  0  0  0
   -7.8057    0.5126   21.7463 S   0  0  2  0  0  0  0  0  0  0  0  0
   -8.7059    0.0619   23.2506 C   0  0  0  0  0  0  0  0  0  0  0  0
   -8.1729    2.2846   21.6303 C   0  0  0  0  0  0  0  0  0  0  0  0
   -6.9134    3.0352   21.2223 C   0  0  1  0  0  0  0  0  0  0  0  0
   -6.7259    2.8655   19.8375 O   0  0  0  0  0  0  0  0  0  0  0  0
   -6.9500    4.5389   21.4204 C   0  0  1  0  0  0  0  0  0  0  0  0
   -6.3482    4.9009   22.6433 O   0  0  0  0  0  0  0  0  0  0  0  0
   -6.1236    5.0568   20.2608 C   0  0  1  0  0  0  0  0  0  0  0  0
   -4.8751    5.4741   20.7557 O   0  0  0  0  0  0  0  0  0  0  0  0
   -5.9260    3.8892   19.3035 C   0  0  2  0  0  0  0  0  0  0  0  0
  -10.7957    0.4150   16.6289 O   0  0  0  0  0  0  0  0  0  0  0  0
   -5.5362    3.2883   14.0822 N   0  0  0  0  0  0  0  0  0  0  0  0
   -4.7708    2.6962   15.0674 C   0  0  0  0  0  0  0  0  0  0  0  0
   -5.0080    2.9689   16.4014 N   0  0  0  0  0  0  0  0  0  0  0  0
   -5.9936    3.8259   16.7591 C   0  0  0  0  0  0  0  0  0  0  0  0
   -6.7796    4.4245   15.7821 C   0  0  0  0  0  0  0  0  0  0  0  0
   -6.5448    4.1569   14.4389 C   0  0  0  0  0  0  0  0  0  0  0  0
   -7.2915    4.7377   13.5029 N   0  0  0  0  0  0  0  0  0  0  0  0
   -7.6804    5.2163   16.4028 N   0  0  0  0  0  0  0  0  0  0  0  0
   -7.4941    5.1187   17.7401 C   0  0  0  0  0  0  0  0  0  0  0  0
   -6.4532    4.2610   17.9797 N   0  0  0  0  0  0  0  0  0  0  0  0
  2  1  1  6  0  0  0
  2  3  1  0  0  0  0
  2  5  1  0  0  0  0
  3  4  1  0  0  0  0
  3 17  1  0  0  0  0
  5  6  1  0  0  0  0
  7  6  1  6  0  0  0
  7  8  1  0  0  0  0
  7  9  1  0  0  0  0
 10  9  1  6  0  0  0
 10 11  1  0  0  0  0
 10 12  1  0  0  0  0
 11 16  1  0  0  0  0
 12 13  1  1  0  0  0
 12 14  1  0  0  0  0
 14 15  1  1  0  0  0
 14 16  1  0  0  0  0
 16 27  1  6  0  0  0
 18 19  2  0  0  0  0
 18 23  1  0  0  0  0
 19 20  1  0  0  0  0
 20 21  2  0  0  0  0
 21 22  1  0  0  0  0
 21 27  1  0  0  0  0
 22 23  2  0  0  0  0
 22 25  1  0  0  0  0
 23 24  1  0  0  0  0
 25 26  2  0  0  0  0
 26 27  1  0  0  0  0
M  END
>  <CHROM.1>
-176.57882999,-164.37457197,176.90443048,-170.56826548,-118.44542318,78.00776982
-97.92718410,-7.44699691,2.54337536,18.68028595,2.11552712,0.93337554,1.61619606

>  <Name>
ligand

>  <RI>
0

>  <Rbt.Current_Directory>
/home/itssahil/PROJECTS/Mol_Feturizer/New_Systems/rnas/3GX6

>  <Rbt.Executable>
rbdock ($Id: //depot/dev/client3/rdock/2013.1/src/exe/rbdock.cxx#4 $)

>  <Rbt.Library>
libRbt.so (2013.1, Build901 2013/11/27)

>  <Rbt.Parameter_File>
/export/apps/rDock/src/rDock_2013.1_src/data/scripts/dock_solv.prm

>  <Rbt.Receptor>
prm/blind_docking_60.prm

>  <SCORE>
-22.17

>  <SCORE.INTER>
-14.6579

>  <SCORE.INTER.CONST>
1

>  <SCORE.INTER.POLAR>
0

>  <SCORE.INTER.ROT>
7

>  <SCORE.INTER.SOLV>
8.21449

>  <SCORE.INTER.VDW>
-20.7768

>  <SCORE.INTER.norm>
-0.542886

>  <SCORE.INTRA>
-7.51208

>  <SCORE.INTRA.DIHEDRAL>
-4.91116

>  <SCORE.INTRA.DIHEDRAL.0>
15.0182

>  <SCORE.INTRA.POLAR>
0

>  <SCORE.INTRA.POLAR.0>
0

>  <SCORE.INTRA.REPUL>
0

>  <SCORE.INTRA.REPUL.0>
0

>  <SCORE.INTRA.SOLV>
-1.78972

>  <SCORE.INTRA.SOLV.lig_0>
-47.9129

>  <SCORE.INTRA.VDW>
-4.16163

>  <SCORE.INTRA.VDW.0>
2.00851

>  <SCORE.INTRA.norm>
-0.278225

>  <SCORE.RESTR>
0

>  <SCORE.RESTR.CAVITY>
0

>  <SCORE.RESTR.norm>
0

>  <SCORE.SYSTEM>
0

>  <SCORE.SYSTEM.CONST>
0

>  <SCORE.SYSTEM.DIHEDRAL>
0

>  <SCORE.SYSTEM.SOLV>
0

>  <SCORE.SYSTEM.norm>
0

>  <SCORE.heavy>
27

>  <SCORE.norm>
-0.821111

>  <RMSD>
17.406

$$$$
ligand
 OpenBabel11021811483D
libRbt.so/2013.1/901 2013/11/27
 27 29  0  0  0  0  0  0  0  0999 V2000
  -10.4476    2.5748   14.2989 N   0  0  0  0  0  0  0  0  0  0  0  0
   -9.6023    2.5607   15.4897 C   0  0  2  0  0  0  0  0  0  0  0  0
   -8.3862    3.4703   15.3354 C   0  0  0  0  0  0  0  0  0  0  0  0
   -8.1384    4.3485   16.1647 O   0  0  0  0  0  0  0  0  0  0  0  0
   -9.1890    1.1362   15.8474 C   0  0  0  0  0  0  0  0  0  0  0  0
  -10.3255    0.3060   16.4237 C   0  0  0  0  0  0  0  0  0  0  0  0
  -10.3456    0.2485   18.2328 S   0  0  2  0  0  0  0  0  0  0  0  0
  -10.4428    2.0149   18.6161 C   0  0  0  0  0  0  0  0  0  0  0  0
   -8.6005   -0.0958   18.5861 C   0  0  0  0  0  0  0  0  0  0  0  0
   -8.4341   -1.5727   18.9137 C   0  0  1  0  0  0  0  0  0  0  0  0
   -8.9585   -2.3250   17.8457 O   0  0  0  0  0  0  0  0  0  0  0  0
   -7.0037   -2.0582   19.0556 C   0  0  1  0  0  0  0  0  0  0  0  0
   -6.6083   -2.0728   20.4091 O   0  0  0  0  0  0  0  0  0  0  0  0
   -7.0680   -3.4732   18.5175 C   0  0  1  0  0  0  0  0  0  0  0  0
   -7.0031   -4.3653   19.6028 O   0  0  0  0  0  0  0  0  0  0  0  0
   -8.4134   -3.6193   17.8196 C   0  0  2  0  0  0  0  0  0  0  0  0
   -7.6295    3.3463   14.3723 O   0  0  0  0  0  0  0  0  0  0  0  0
   -8.3040   -2.0752   12.7819 N   0  0  0  0  0  0  0  0  0  0  0  0
   -8.5905   -1.3164   13.8995 C   0  0  0  0  0  0  0  0  0  0  0  0
   -8.5769   -1.8859   15.1588 N   0  0  0  0  0  0  0  0  0  0  0  0
   -8.2861   -3.1996   15.3116 C   0  0  0  0  0  0  0  0  0  0  0  0
   -7.9869   -3.9769   14.1995 C   0  0  0  0  0  0  0  0  0  0  0  0
   -8.0014   -3.4114   12.9303 C   0  0  0  0  0  0  0  0  0  0  0  0
   -7.7242   -4.1583   11.8643 N   0  0  0  0  0  0  0  0  0  0  0  0
   -7.7302   -5.2316   14.6279 N   0  0  0  0  0  0  0  0  0  0  0  0
   -7.8425   -5.2602   15.9767 C   0  0  0  0  0  0  0  0  0  0  0  0
   -8.1860   -4.0097   16.4181 N   0  0  0  0  0  0  0  0  0  0  0  0
  2  1  1  6  0  0  0
  2  3  1  0  0  0  0
  2  5  1  0  0  0  0
  3  4  1  0  0  0  0
  3 17  1  0  0  0  0
  5  6  1  0  0  0  0
  7  6  1  6  0  0  0
  7  8  1  0  0  0  0
  7  9  1  0  0  0  0
 10  9  1  6  0  0  0
 10 11  1  0  0  0  0
 10 12  1  0  0  0  0
 11 16  1  0  0  0  0
 12 13  1  1  0  0  0
 12 14  1  0  0  0  0
 14 15  1  1  0  0  0
 14 16  1  0  0  0  0
 16 27  1  6  0  0  0
 18 19  2  0  0  0  0
 18 23  1  0  0  0  0
 19 20  1  0  0  0  0
 20 21  2  0  0  0  0
 21 22  1  0  0  0  0
 21 27  1  0  0  0  0
 22 23  2  0  0  0  0
 22 25  1  0  0  0  0
 23 24  1  0  0  0  0
 25 26  2  0  0  0  0
 26 27  1  0  0  0  0
M  END
>  <CHROM.1>
125.84206332,-72.38122866,-96.89180928,57.32198753,-101.31553869,55.35910121
9.14928692,-8.52401236,-1.12149035,16.41142555,3.06616585,-1.34708861,1.47895633

>  <Name>
ligand

>  <RI>
0

>  <Rbt.Current_Directory>
/home/itssahil/PROJECTS/Mol_Feturizer/New_Systems/rnas/3GX6

>  <Rbt.Executable>
rbdock ($Id: //depot/dev/client3/rdock/2013.1/src/exe/rbdock.cxx#4 $)

>  <Rbt.Library>
libRbt.so (2013.1, Build901 2013/11/27)

>  <Rbt.Parameter_File>
/export/apps/rDock/src/rDock_2013.1_src/data/scripts/dock_solv.prm

>  <Rbt.Receptor>
prm/blind_docking_60.prm

>  <SCORE>
-14.6885

>  <SCORE.INTER>
-7.46298

>  <SCORE.INTER.CONST>
1

>  <SCORE.INTER.POLAR>
0

>  <SCORE.INTER.ROT>
7

>  <SCORE.INTER.SOLV>
9.40874

>  <SCORE.INTER.VDW>
-16.3782

>  <SCORE.INTER.norm>
-0.276407

>  <SCORE.INTRA>
-7.22836

>  <SCORE.INTRA.DIHEDRAL>
-4.82193

>  <SCORE.INTRA.DIHEDRAL.0>
15.0182

>  <SCORE.INTRA.POLAR>
0

>  <SCORE.INTRA.POLAR.0>
0

>  <SCORE.INTRA.REPUL>
0

>  <SCORE.INTRA.REPUL.0>
0

>  <SCORE.INTRA.SOLV>
-0.735333

>  <SCORE.INTRA.SOLV.lig_0>
-47.9129

>  <SCORE.INTRA.VDW>
-4.44973

>  <SCORE.INTRA.VDW.0>
2.00851

>  <SCORE.INTRA.norm>
-0.267717

>  <SCORE.RESTR>
0.00281659

>  <SCORE.RESTR.CAVITY>
0.00281659

>  <SCORE.RESTR.norm>
0.000104318

>  <SCORE.SYSTEM>
0

>  <SCORE.SYSTEM.CONST>
0

>  <SCORE.SYSTEM.DIHEDRAL>
0

>  <SCORE.SYSTEM.SOLV>
0

>  <SCORE.SYSTEM.norm>
0

>  <SCORE.heavy>
27

>  <SCORE.norm>
-0.54402

>  <RMSD>
17.415

$$$$
ligand
 OpenBabel11021811483D
libRbt.so/2013.1/901 2013/11/27
 27 29  0  0  0  0  0  0  0  0999 V2000
  -10.0052   -7.3101   15.5584 N   0  0  0  0  0  0  0  0  0  0  0  0
   -8.5790   -7.1059   15.3188 C   0  0  2  0  0  0  0  0  0  0  0  0
   -8.0738   -7.9406   14.1449 C   0  0  0  0  0  0  0  0  0  0  0  0
   -8.5686   -9.0397   13.8853 O   0  0  0  0  0  0  0  0  0  0  0  0
   -7.7699   -7.3783   16.5833 C   0  0  0  0  0  0  0  0  0  0  0  0
   -8.1070   -6.4362   17.7287 C   0  0  0  0  0  0  0  0  0  0  0  0
   -7.6503   -4.7126   17.4173 S   0  0  2  0  0  0  0  0  0  0  0  0
   -6.2450   -4.5367   18.5446 C   0  0  0  0  0  0  0  0  0  0  0  0
   -8.9507   -3.8407   18.3324 C   0  0  0  0  0  0  0  0  0  0  0  0
   -8.6593   -2.3470   18.3228 C   0  0  1  0  0  0  0  0  0  0  0  0
   -8.2147   -1.9909   17.0355 O   0  0  0  0  0  0  0  0  0  0  0  0
   -9.8504   -1.4425   18.5782 C   0  0  1  0  0  0  0  0  0  0  0  0
   -9.9151   -1.0658   19.9356 O   0  0  0  0  0  0  0  0  0  0  0  0
   -9.5518   -0.2324   17.7165 C   0  0  1  0  0  0  0  0  0  0  0  0
   -9.1432    0.8205   18.5544 O   0  0  0  0  0  0  0  0  0  0  0  0
   -8.4052   -0.6206   16.7927 C   0  0  2  0  0  0  0  0  0  0  0  0
   -7.1546   -7.5317   13.4352 O   0  0  0  0  0  0  0  0  0  0  0  0
   -8.2367    2.4169   12.4891 N   0  0  0  0  0  0  0  0  0  0  0  0
   -7.6326    2.6368   13.7113 C   0  0  0  0  0  0  0  0  0  0  0  0
   -7.7834    1.7303   14.7437 N   0  0  0  0  0  0  0  0  0  0  0  0
   -8.5312    0.6148   14.5699 C   0  0  0  0  0  0  0  0  0  0  0  0
   -9.1395    0.3724   13.3445 C   0  0  0  0  0  0  0  0  0  0  0  0
   -8.9943    1.2809   12.3031 C   0  0  0  0  0  0  0  0  0  0  0  0
   -9.5848    1.0533   11.1324 N   0  0  0  0  0  0  0  0  0  0  0  0
   -9.8090   -0.7966   13.4383 N   0  0  0  0  0  0  0  0  0  0  0  0
   -9.6245   -1.3030   14.6802 C   0  0  0  0  0  0  0  0  0  0  0  0
   -8.8347   -0.4420   15.3955 N   0  0  0  0  0  0  0  0  0  0  0  0
  2  1  1  1  0  0  0
  2  3  1  0  0  0  0
  2  5  1  0  0  0  0
  3  4  1  0  0  0  0
  3 17  1  0  0  0  0
  5  6  1  0  0  0  0
  7  6  1  1  0  0  0
  7  8  1  0  0  0  0
  7  9  1  0  0  0  0
 10  9  1  6  0  0  0
 10 11  1  0  0  0  0
 10 12  1  0  0  0  0
 11 16  1  0  0  0  0
 12 13  1  1  0  0  0
 12 14  1  0  0  0  0
 14 15  1  1  0  0  0
 14 16  1  0  0  0  0
 16 27  1  6  0  0  0
 18 19  2  0  0  0  0
 18 23  1  0  0  0  0
 19 20  1  0  0  0  0
 20 21  2  0  0  0  0
 21 22  1  0  0  0  0
 21 27  1  0  0  0  0
 22 23  2  0  0  0  0
 22 25  1  0  0  0  0
 23 24  1  0  0  0  0
 25 26  2  0  0  0  0
 26 27  1  0  0  0  0
M  END
>  <CHROM.1>
-31.88795881,-62.59850183,-66.19660236,-108.39789379,173.87470644,41.51587081
-146.30229832,-8.57183741,-2.61241358,15.83963786,-0.33062878,1.48490233
-1.41798835

>  <Name>
ligand

>  <RI>
0

>  <Rbt.Current_Directory>
/home/itssahil/PROJECTS/Mol_Feturizer/New_Systems/rnas/3GX6

>  <Rbt.Executable>
rbdock ($Id: //depot/dev/client3/rdock/2013.1/src/exe/rbdock.cxx#4 $)

>  <Rbt.Library>
libRbt.so (2013.1, Build901 2013/11/27)

>  <Rbt.Parameter_File>
/export/apps/rDock/src/rDock_2013.1_src/data/scripts/dock_solv.prm

>  <Rbt.Receptor>
prm/blind_docking_60.prm

>  <SCORE>
-17.3504

>  <SCORE.INTER>
-9.27922

>  <SCORE.INTER.CONST>
1

>  <SCORE.INTER.POLAR>
0

>  <SCORE.INTER.ROT>
7

>  <SCORE.INTER.SOLV>
13.2658

>  <SCORE.INTER.VDW>
-18.8748

>  <SCORE.INTER.norm>
-0.343675

>  <SCORE.INTRA>
-8.07119

>  <SCORE.INTRA.DIHEDRAL>
-7.23625

>  <SCORE.INTRA.DIHEDRAL.0>
15.0182

>  <SCORE.INTRA.POLAR>
0

>  <SCORE.INTRA.POLAR.0>
0

>  <SCORE.INTRA.REPUL>
0

>  <SCORE.INTRA.REPUL.0>
0

>  <SCORE.INTRA.SOLV>
-0.510932

>  <SCORE.INTRA.SOLV.lig_0>
-47.9129

>  <SCORE.INTRA.VDW>
-4.1976

>  <SCORE.INTRA.VDW.0>
2.00851

>  <SCORE.INTRA.norm>
-0.298933

>  <SCORE.RESTR>
0

>  <SCORE.RESTR.CAVITY>
0

>  <SCORE.RESTR.norm>
0

>  <SCORE.SYSTEM>
0

>  <SCORE.SYSTEM.CONST>
0

>  <SCORE.SYSTEM.DIHEDRAL>
0

>  <SCORE.SYSTEM.SOLV>
0

>  <SCORE.SYSTEM.norm>
0

>  <SCORE.heavy>
27

>  <SCORE.norm>
-0.642608

>  <RMSD>
17.431

$$$$
ligand
 OpenBabel11021811483D
libRbt.so/2013.1/901 2013/11/27
 27 29  0  0  0  0  0  0  0  0999 V2000
   -6.4899   -4.6548   17.5760 N   0  0  0  0  0  0  0  0  0  0  0  0
   -6.1521   -3.3424   17.0316 C   0  0  2  0  0  0  0  0  0  0  0  0
   -4.7510   -2.8986   17.4437 C   0  0  0  0  0  0  0  0  0  0  0  0
   -4.0054   -2.3231   16.6480 O   0  0  0  0  0  0  0  0  0  0  0  0
   -7.2008   -2.3049   17.4213 C   0  0  0  0  0  0  0  0  0  0  0  0
   -6.9123   -0.9187   16.8661 C   0  0  0  0  0  0  0  0  0  0  0  0
   -8.2339    0.2804   17.1686 S   0  0  2  0  0  0  0  0  0  0  0  0
   -9.4471   -0.2502   15.9344 C   0  0  0  0  0  0  0  0  0  0  0  0
   -7.5455    1.7593   16.3764 C   0  0  0  0  0  0  0  0  0  0  0  0
   -8.5755    2.8790   16.4169 C   0  0  1  0  0  0  0  0  0  0  0  0
   -8.9734    3.0665   17.7542 O   0  0  0  0  0  0  0  0  0  0  0  0
   -8.0827    4.2430   15.9713 C   0  0  1  0  0  0  0  0  0  0  0  0
   -8.3989    4.4752   14.6168 O   0  0  0  0  0  0  0  0  0  0  0  0
   -8.8614    5.1941   16.8573 C   0  0  1  0  0  0  0  0  0  0  0  0
   -9.8655    5.8023   16.0829 O   0  0  0  0  0  0  0  0  0  0  0  0
   -9.5037    4.3521   17.9514 C   0  0  2  0  0  0  0  0  0  0  0  0
   -4.3357   -3.1128   18.5827 O   0  0  0  0  0  0  0  0  0  0  0  0
   -5.4149    5.6353   21.0191 N   0  0  0  0  0  0  0  0  0  0  0  0
   -5.3913    5.1612   19.7224 C   0  0  0  0  0  0  0  0  0  0  0  0
   -6.5679    4.8694   19.0586 N   0  0  0  0  0  0  0  0  0  0  0  0
   -7.7613    5.0410   19.6753 C   0  0  0  0  0  0  0  0  0  0  0  0
   -7.8051    5.5253   20.9769 C   0  0  0  0  0  0  0  0  0  0  0  0
   -6.6258    5.8181   21.6511 C   0  0  0  0  0  0  0  0  0  0  0  0
   -6.6676    6.2729   22.9011 N   0  0  0  0  0  0  0  0  0  0  0  0
   -9.1018    5.6080   21.3447 N   0  0  0  0  0  0  0  0  0  0  0  0
   -9.8729    5.2066   20.3069 C   0  0  0  0  0  0  0  0  0  0  0  0
   -9.0593    4.8519   19.2634 N   0  0  0  0  0  0  0  0  0  0  0  0
  2  1  1  1  0  0  0
  2  3  1  0  0  0  0
  2  5  1  0  0  0  0
  3  4  1  0  0  0  0
  3 17  1  0  0  0  0
  5  6  1  0  0  0  0
  7  6  1  6  0  0  0
  7  8  1  0  0  0  0
  7  9  1  0  0  0  0
 10  9  1  1  0  0  0
 10 11  1  0  0  0  0
 10 12  1  0  0  0  0
 11 16  1  0  0  0  0
 12 13  1  6  0  0  0
 12 14  1  0  0  0  0
 14 15  1  6  0  0  0
 14 16  1  0  0  0  0
 16 27  1  1  0  0  0
 18 19  2  0  0  0  0
 18 23  1  0  0  0  0
 19 20  1  0  0  0  0
 20 21  2  0  0  0  0
 21 22  1  0  0  0  0
 21 27  1  0  0  0  0
 22 23  2  0  0  0  0
 22 25  1  0  0  0  0
 23 24  1  0  0  0  0
 25 26  2  0  0  0  0
 26 27  1  0  0  0  0
M  END
>  <CHROM.1>
139.83471583,-179.22645597,173.78754693,-75.92362981,175.19939549,54.67015315
59.83509437,-7.50199937,2.27350983,18.11559414,-1.20773992,-0.89428305,0.59027607

>  <Name>
ligand

>  <RI>
0

>  <Rbt.Current_Directory>
/home/itssahil/PROJECTS/Mol_Feturizer/New_Systems/rnas/3GX6

>  <Rbt.Executable>
rbdock ($Id: //depot/dev/client3/rdock/2013.1/src/exe/rbdock.cxx#4 $)

>  <Rbt.Library>
libRbt.so (2013.1, Build901 2013/11/27)

>  <Rbt.Parameter_File>
/export/apps/rDock/src/rDock_2013.1_src/data/scripts/dock_solv.prm

>  <Rbt.Receptor>
prm/blind_docking_40.prm

>  <SCORE>
-16.085

>  <SCORE.INTER>
-5.18736

>  <SCORE.INTER.CONST>
1

>  <SCORE.INTER.POLAR>
0

>  <SCORE.INTER.ROT>
7

>  <SCORE.INTER.SOLV>
8.69292

>  <SCORE.INTER.VDW>
-14.6225

>  <SCORE.INTER.norm>
-0.192124

>  <SCORE.INTRA>
-10.8977

>  <SCORE.INTRA.DIHEDRAL>
-11.3609

>  <SCORE.INTRA.DIHEDRAL.0>
15.0182

>  <SCORE.INTRA.POLAR>
0

>  <SCORE.INTRA.POLAR.0>
0

>  <SCORE.INTRA.REPUL>
0

>  <SCORE.INTRA.REPUL.0>
0

>  <SCORE.INTRA.SOLV>
-1.78354

>  <SCORE.INTRA.SOLV.lig_0>
-47.9129

>  <SCORE.INTRA.VDW>
-4.32547

>  <SCORE.INTRA.VDW.0>
2.00851

>  <SCORE.INTRA.norm>
-0.403617

>  <SCORE.RESTR>
0

>  <SCORE.RESTR.CAVITY>
0

>  <SCORE.RESTR.norm>
0

>  <SCORE.SYSTEM>
0

>  <SCORE.SYSTEM.CONST>
0

>  <SCORE.SYSTEM.DIHEDRAL>
0

>  <SCORE.SYSTEM.SOLV>
0

>  <SCORE.SYSTEM.norm>
0

>  <SCORE.heavy>
27

>  <SCORE.norm>
-0.595742

>  <RMSD>
17.549

$$$$
ligand
 OpenBabel11021811483D
libRbt.so/2013.1/901 2013/11/27
 27 29  0  0  0  0  0  0  0  0999 V2000
   -7.1500    2.2368   22.7558 N   0  0  0  0  0  0  0  0  0  0  0  0
   -6.1775    2.0577   21.6810 C   0  0  2  0  0  0  0  0  0  0  0  0
   -4.8180    1.6109   22.2121 C   0  0  0  0  0  0  0  0  0  0  0  0
   -4.3463    2.0958   23.2430 O   0  0  0  0  0  0  0  0  0  0  0  0
   -6.0564    3.3246   20.8395 C   0  0  0  0  0  0  0  0  0  0  0  0
   -7.3041    3.6281   20.0245 C   0  0  0  0  0  0  0  0  0  0  0  0
   -7.3003    5.2709   19.2646 S   0  0  2  0  0  0  0  0  0  0  0  0
   -7.7923    6.2877   20.6790 C   0  0  0  0  0  0  0  0  0  0  0  0
   -8.8436    5.2147   18.3141 C   0  0  0  0  0  0  0  0  0  0  0  0
   -8.5689    4.6179   16.9412 C   0  0  1  0  0  0  0  0  0  0  0  0
   -7.7527    3.4830   17.1069 O   0  0  0  0  0  0  0  0  0  0  0  0
   -9.7843    4.1067   16.1906 C   0  0  1  0  0  0  0  0  0  0  0  0
  -10.2632    5.0772   15.2864 O   0  0  0  0  0  0  0  0  0  0  0  0
   -9.2407    2.9129   15.4323 C   0  0  1  0  0  0  0  0  0  0  0  0
   -9.1124    3.2673   14.0774 O   0  0  0  0  0  0  0  0  0  0  0  0
   -7.8649    2.6116   16.0110 C   0  0  2  0  0  0  0  0  0  0  0  0
   -4.1618    0.7575   21.6148 O   0  0  0  0  0  0  0  0  0  0  0  0
  -10.2504   -1.0414   18.9674 N   0  0  0  0  0  0  0  0  0  0  0  0
  -10.6384    0.2662   18.7512 C   0  0  0  0  0  0  0  0  0  0  0  0
   -9.8884    1.0977   17.9412 N   0  0  0  0  0  0  0  0  0  0  0  0
   -8.7582    0.6402   17.3518 C   0  0  0  0  0  0  0  0  0  0  0  0
   -8.3568   -0.6750   17.5509 C   0  0  0  0  0  0  0  0  0  0  0  0
   -9.1047   -1.5157   18.3662 C   0  0  0  0  0  0  0  0  0  0  0  0
   -8.7148   -2.7726   18.5644 N   0  0  0  0  0  0  0  0  0  0  0  0
   -7.2178   -0.8707   16.8522 N   0  0  0  0  0  0  0  0  0  0  0  0
   -6.9026    0.2770   16.2072 C   0  0  0  0  0  0  0  0  0  0  0  0
   -7.8464    1.2244   16.5047 N   0  0  0  0  0  0  0  0  0  0  0  0
  2  1  1  1  0  0  0
  2  3  1  0  0  0  0
  2  5  1  0  0  0  0
  3  4  1  0  0  0  0
  3 17  1  0  0  0  0
  5  6  1  0  0  0  0
  7  6  1  1  0  0  0
  7  8  1  0  0  0  0
  7  9  1  0  0  0  0
 10  9  1  1  0  0  0
 10 11  1  0  0  0  0
 10 12  1  0  0  0  0
 11 16  1  0  0  0  0
 12 13  1  6  0  0  0
 12 14  1  0  0  0  0
 14 15  1  6  0  0  0
 14 16  1  0  0  0  0
 16 27  1  1  0  0  0
 18 19  2  0  0  0  0
 18 23  1  0  0  0  0
 19 20  1  0  0  0  0
 20 21  2  0  0  0  0
 21 22  1  0  0  0  0
 21 27  1  0  0  0  0
 22 23  2  0  0  0  0
 22 25  1  0  0  0  0
 23 24  1  0  0  0  0
 25 26  2  0  0  0  0
 26 27  1  0  0  0  0
M  END
>  <CHROM.1>
-40.80742728,-68.25534751,169.29848252,-79.95181617,-87.53615204,44.89837692
61.94062460,-7.87361242,2.27182319,18.52639264,-0.09065504,-1.02406939,-0.06532552

>  <Name>
ligand

>  <RI>
0

>  <Rbt.Current_Directory>
/home/itssahil/PROJECTS/Mol_Feturizer/New_Systems/rnas/3GX6

>  <Rbt.Executable>
rbdock ($Id: //depot/dev/client3/rdock/2013.1/src/exe/rbdock.cxx#4 $)

>  <Rbt.Library>
libRbt.so (2013.1, Build901 2013/11/27)

>  <Rbt.Parameter_File>
/export/apps/rDock/src/rDock_2013.1_src/data/scripts/dock_solv.prm

>  <Rbt.Receptor>
prm/blind_docking_60.prm

>  <SCORE>
-16.7878

>  <SCORE.INTER>
-6.93969

>  <SCORE.INTER.CONST>
1

>  <SCORE.INTER.POLAR>
0

>  <SCORE.INTER.ROT>
7

>  <SCORE.INTER.SOLV>
10.3551

>  <SCORE.INTER.VDW>
-16.3448

>  <SCORE.INTER.norm>
-0.257025

>  <SCORE.INTRA>
-9.84807

>  <SCORE.INTRA.DIHEDRAL>
-8.96842

>  <SCORE.INTRA.DIHEDRAL.0>
15.0182

>  <SCORE.INTRA.POLAR>
0

>  <SCORE.INTRA.POLAR.0>
0

>  <SCORE.INTRA.REPUL>
0

>  <SCORE.INTRA.REPUL.0>
0

>  <SCORE.INTRA.SOLV>
-0.911616

>  <SCORE.INTRA.SOLV.lig_0>
-47.9129

>  <SCORE.INTRA.VDW>
-4.90805

>  <SCORE.INTRA.VDW.0>
2.00851

>  <SCORE.INTRA.norm>
-0.364743

>  <SCORE.RESTR>
0

>  <SCORE.RESTR.CAVITY>
0

>  <SCORE.RESTR.norm>
0

>  <SCORE.SYSTEM>
0

>  <SCORE.SYSTEM.CONST>
0

>  <SCORE.SYSTEM.DIHEDRAL>
0

>  <SCORE.SYSTEM.SOLV>
0

>  <SCORE.SYSTEM.norm>
0

>  <SCORE.heavy>
27

>  <SCORE.norm>
-0.621769

>  <RMSD>
17.559

$$$$
ligand
 OpenBabel11021811483D
libRbt.so/2013.1/901 2013/11/27
 27 29  0  0  0  0  0  0  0  0999 V2000
   -8.2553   -7.4605   15.0101 N   0  0  0  0  0  0  0  0  0  0  0  0
   -7.4536   -6.2464   15.1364 C   0  0  2  0  0  0  0  0  0  0  0  0
   -6.6477   -6.2286   16.4326 C   0  0  0  0  0  0  0  0  0  0  0  0
   -5.6558   -5.5067   16.5561 O   0  0  0  0  0  0  0  0  0  0  0  0
   -8.3263   -5.0016   15.0075 C   0  0  0  0  0  0  0  0  0  0  0  0
   -9.0095   -4.8823   13.6539 C   0  0  0  0  0  0  0  0  0  0  0  0
  -10.0611   -3.4181   13.4914 S   0  0  2  0  0  0  0  0  0  0  0  0
  -10.4906   -3.5159   11.7357 C   0  0  0  0  0  0  0  0  0  0  0  0
   -8.8164   -2.0993   13.4793 C   0  0  0  0  0  0  0  0  0  0  0  0
   -9.5141   -0.7476   13.4288 C   0  0  1  0  0  0  0  0  0  0  0  0
  -10.0612   -0.4841   14.6988 O   0  0  0  0  0  0  0  0  0  0  0  0
   -8.6197    0.4444   13.1444 C   0  0  1  0  0  0  0  0  0  0  0  0
   -8.6412    0.7749   11.7736 O   0  0  0  0  0  0  0  0  0  0  0  0
   -9.2587    1.5527   13.9564 C   0  0  1  0  0  0  0  0  0  0  0  0
   -9.9320    2.4181   13.0757 O   0  0  0  0  0  0  0  0  0  0  0  0
  -10.2655    0.8926   14.8887 C   0  0  2  0  0  0  0  0  0  0  0  0
   -6.9722   -6.9424   17.3818 O   0  0  0  0  0  0  0  0  0  0  0  0
   -9.6421   -0.8483   19.8238 N   0  0  0  0  0  0  0  0  0  0  0  0
  -10.0015   -1.5722   18.7041 C   0  0  0  0  0  0  0  0  0  0  0  0
  -10.1232   -0.9522   17.4749 N   0  0  0  0  0  0  0  0  0  0  0  0
   -9.8953    0.3772   17.3544 C   0  0  0  0  0  0  0  0  0  0  0  0
   -9.5244    1.1203   18.4683 C   0  0  0  0  0  0  0  0  0  0  0  0
   -9.4028    0.5038   19.7077 C   0  0  0  0  0  0  0  0  0  0  0  0
   -9.0568    1.2175   20.7764 N   0  0  0  0  0  0  0  0  0  0  0  0
   -9.3533    2.4005   18.0741 N   0  0  0  0  0  0  0  0  0  0  0  0
   -9.5889    2.4791   16.7433 C   0  0  0  0  0  0  0  0  0  0  0  0
   -9.9257    1.2347   16.2800 N   0  0  0  0  0  0  0  0  0  0  0  0
  2  1  1  1  0  0  0
  2  3  1  0  0  0  0
  2  5  1  0  0  0  0
  3  4  1  0  0  0  0
  3 17  1  0  0  0  0
  5  6  1  0  0  0  0
  7  6  1  6  0  0  0
  7  8  1  0  0  0  0
  7  9  1  0  0  0  0
 10  9  1  1  0  0  0
 10 11  1  0  0  0  0
 10 12  1  0  0  0  0
 11 16  1  0  0  0  0
 12 13  1  6  0  0  0
 12 14  1  0  0  0  0
 14 15  1  6  0  0  0
 14 16  1  0  0  0  0
 16 27  1  1  0  0  0
 18 19  2  0  0  0  0
 18 23  1  0  0  0  0
 19 20  1  0  0  0  0
 20 21  2  0  0  0  0
 21 22  1  0  0  0  0
 21 27  1  0  0  0  0
 22 23  2  0  0  0  0
 22 25  1  0  0  0  0
 23 24  1  0  0  0  0
 25 26  2  0  0  0  0
 26 27  1  0  0  0  0
M  END
>  <CHROM.1>
159.54546396,-62.22136533,179.45528106,172.76293194,-176.70526544,74.39814874
-22.36068020,-9.08181119,-1.64312023,15.59874371,-0.60508071,-1.28685872
1.17169062

>  <Name>
ligand

>  <RI>
0

>  <Rbt.Current_Directory>
/home/itssahil/PROJECTS/Mol_Feturizer/New_Systems/rnas/3GX6

>  <Rbt.Executable>
rbdock ($Id: //depot/dev/client3/rdock/2013.1/src/exe/rbdock.cxx#4 $)

>  <Rbt.Library>
libRbt.so (2013.1, Build901 2013/11/27)

>  <Rbt.Parameter_File>
/export/apps/rDock/src/rDock_2013.1_src/data/scripts/dock_solv.prm

>  <Rbt.Receptor>
prm/blind_docking_100.prm

>  <SCORE>
-19.2475

>  <SCORE.INTER>
-9.12954

>  <SCORE.INTER.CONST>
1

>  <SCORE.INTER.POLAR>
0

>  <SCORE.INTER.ROT>
7

>  <SCORE.INTER.SOLV>
15.5919

>  <SCORE.INTER.VDW>
-19.5503

>  <SCORE.INTER.norm>
-0.338131

>  <SCORE.INTRA>
-10.1179

>  <SCORE.INTRA.DIHEDRAL>
-10.6879

>  <SCORE.INTRA.DIHEDRAL.0>
15.0182

>  <SCORE.INTRA.POLAR>
0

>  <SCORE.INTRA.POLAR.0>
0

>  <SCORE.INTRA.REPUL>
0

>  <SCORE.INTRA.REPUL.0>
0

>  <SCORE.INTRA.SOLV>
-1.15053

>  <SCORE.INTRA.SOLV.lig_0>
-47.9129

>  <SCORE.INTRA.VDW>
-4.19873

>  <SCORE.INTRA.VDW.0>
2.00851

>  <SCORE.INTRA.norm>
-0.374738

>  <SCORE.RESTR>
0

>  <SCORE.RESTR.CAVITY>
0

>  <SCORE.RESTR.norm>
0

>  <SCORE.SYSTEM>
0

>  <SCORE.SYSTEM.CONST>
0

>  <SCORE.SYSTEM.DIHEDRAL>
0

>  <SCORE.SYSTEM.SOLV>
0

>  <SCORE.SYSTEM.norm>
0

>  <SCORE.heavy>
27

>  <SCORE.norm>
-0.712869

>  <RMSD>
17.578

$$$$
ligand
 OpenBabel11021811483D
libRbt.so/2013.1/901 2013/11/27
 27 29  0  0  0  0  0  0  0  0999 V2000
   -6.6208    0.3645   22.0136 N   0  0  0  0  0  0  0  0  0  0  0  0
   -8.0299    0.4696   22.3829 C   0  0  2  0  0  0  0  0  0  0  0  0
   -8.2836   -0.0213   23.8058 C   0  0  0  0  0  0  0  0  0  0  0  0
   -8.0192    0.6863   24.7804 O   0  0  0  0  0  0  0  0  0  0  0  0
   -8.9127   -0.2626   21.3767 C   0  0  0  0  0  0  0  0  0  0  0  0
   -9.0471    0.4679   20.0496 C   0  0  0  0  0  0  0  0  0  0  0  0
  -10.1310   -0.3643   18.8626 S   0  0  2  0  0  0  0  0  0  0  0  0
   -8.9257   -0.8516   17.6032 C   0  0  0  0  0  0  0  0  0  0  0  0
  -10.9237    1.0577   18.0639 C   0  0  0  0  0  0  0  0  0  0  0  0
   -9.9234    2.2000   17.9595 C   0  0  1  0  0  0  0  0  0  0  0  0
   -9.8538    2.6060   16.6134 O   0  0  0  0  0  0  0  0  0  0  0  0
  -10.2842    3.4623   18.7200 C   0  0  1  0  0  0  0  0  0  0  0  0
   -9.6526    3.4890   19.9806 O   0  0  0  0  0  0  0  0  0  0  0  0
   -9.7308    4.5629   17.8378 C   0  0  1  0  0  0  0  0  0  0  0  0
   -8.5660    5.0719   18.4393 O   0  0  0  0  0  0  0  0  0  0  0  0
   -9.3747    3.9218   16.5033 C   0  0  2  0  0  0  0  0  0  0  0  0
   -8.7545   -1.1408   24.0076 O   0  0  0  0  0  0  0  0  0  0  0  0
  -12.3054    3.4075   12.1533 N   0  0  0  0  0  0  0  0  0  0  0  0
  -11.7589    2.4091   12.9354 C   0  0  0  0  0  0  0  0  0  0  0  0
  -11.0068    2.7224   14.0518 N   0  0  0  0  0  0  0  0  0  0  0  0
  -10.7924    4.0159   14.3905 C   0  0  0  0  0  0  0  0  0  0  0  0
  -11.3415    5.0338   13.6205 C   0  0  0  0  0  0  0  0  0  0  0  0
  -12.0964    4.7260   12.4952 C   0  0  0  0  0  0  0  0  0  0  0  0
  -12.6142    5.7012   11.7524 N   0  0  0  0  0  0  0  0  0  0  0  0
  -10.9853    6.2118   14.1763 N   0  0  0  0  0  0  0  0  0  0  0  0
  -10.2440    5.9629   15.2814 C   0  0  0  0  0  0  0  0  0  0  0  0
  -10.1144    4.6073   15.4302 N   0  0  0  0  0  0  0  0  0  0  0  0
  2  1  1  6  0  0  0
  2  3  1  0  0  0  0
  2  5  1  0  0  0  0
  3  4  1  0  0  0  0
  3 17  1  0  0  0  0
  5  6  1  0  0  0  0
  7  6  1  1  0  0  0
  7  8  1  0  0  0  0
  7  9  1  0  0  0  0
 10  9  1  6  0  0  0
 10 11  1  0  0  0  0
 10 12  1  0  0  0  0
 11 16  1  0  0  0  0
 12 13  1  1  0  0  0
 12 14  1  0  0  0  0
 14 15  1  1  0  0  0
 14 16  1  0  0  0  0
 16 27  1  6  0  0  0
 18 19  2  0  0  0  0
 18 23  1  0  0  0  0
 19 20  1  0  0  0  0
 20 21  2  0  0  0  0
 21 22  1  0  0  0  0
 21 27  1  0  0  0  0
 22 23  2  0  0  0  0
 22 25  1  0  0  0  0
 23 24  1  0  0  0  0
 25 26  2  0  0  0  0
 26 27  1  0  0  0  0
M  END
>  <CHROM.1>
78.50403928,-73.59495393,-178.28561130,-112.60714764,35.22011545,125.61223777
-21.75693866,-9.89925303,2.41572848,17.79579976,-0.73633598,-1.17812831,-0.30732444

>  <Name>
ligand

>  <RI>
0

>  <Rbt.Current_Directory>
/home/itssahil/PROJECTS/Mol_Feturizer/New_Systems/rnas/3GX6

>  <Rbt.Executable>
rbdock ($Id: //depot/dev/client3/rdock/2013.1/src/exe/rbdock.cxx#4 $)

>  <Rbt.Library>
libRbt.so (2013.1, Build901 2013/11/27)

>  <Rbt.Parameter_File>
/export/apps/rDock/src/rDock_2013.1_src/data/scripts/dock_solv.prm

>  <Rbt.Receptor>
prm/blind_docking_40.prm

>  <SCORE>
-21.4272

>  <SCORE.INTER>
-17.5068

>  <SCORE.INTER.CONST>
1

>  <SCORE.INTER.POLAR>
0

>  <SCORE.INTER.ROT>
7

>  <SCORE.INTER.SOLV>
12.7007

>  <SCORE.INTER.VDW>
-24.1715

>  <SCORE.INTER.norm>
-0.6484

>  <SCORE.INTRA>
-3.92038

>  <SCORE.INTRA.DIHEDRAL>
-1.55972

>  <SCORE.INTRA.DIHEDRAL.0>
15.0182

>  <SCORE.INTRA.POLAR>
0

>  <SCORE.INTRA.POLAR.0>
0

>  <SCORE.INTRA.REPUL>
0

>  <SCORE.INTRA.REPUL.0>
0

>  <SCORE.INTRA.SOLV>
-0.843443

>  <SCORE.INTRA.SOLV.lig_0>
-47.9129

>  <SCORE.INTRA.VDW>
-2.7188

>  <SCORE.INTRA.VDW.0>
2.00851

>  <SCORE.INTRA.norm>
-0.145199

>  <SCORE.RESTR>
0

>  <SCORE.RESTR.CAVITY>
0

>  <SCORE.RESTR.norm>
0

>  <SCORE.SYSTEM>
0

>  <SCORE.SYSTEM.CONST>
0

>  <SCORE.SYSTEM.DIHEDRAL>
0

>  <SCORE.SYSTEM.SOLV>
0

>  <SCORE.SYSTEM.norm>
0

>  <SCORE.heavy>
27

>  <SCORE.norm>
-0.7936

>  <RMSD>
17.605

$$$$
ligand
 OpenBabel11021811483D
libRbt.so/2013.1/901 2013/11/27
 27 29  0  0  0  0  0  0  0  0999 V2000
   -8.8966   -1.3242   17.6241 N   0  0  0  0  0  0  0  0  0  0  0  0
  -10.1378   -0.8269   18.2112 C   0  0  2  0  0  0  0  0  0  0  0  0
  -10.4690    0.5840   17.7319 C   0  0  0  0  0  0  0  0  0  0  0  0
  -11.2622    1.2970   18.3505 O   0  0  0  0  0  0  0  0  0  0  0  0
  -10.0868   -0.8987   19.7344 C   0  0  0  0  0  0  0  0  0  0  0  0
   -8.7750   -0.3966   20.3176 C   0  0  0  0  0  0  0  0  0  0  0  0
   -8.3864    1.3157   19.8779 S   0  0  2  0  0  0  0  0  0  0  0  0
   -7.2540    1.0494   18.4911 C   0  0  0  0  0  0  0  0  0  0  0  0
   -7.2285    1.7572   21.2018 C   0  0  0  0  0  0  0  0  0  0  0  0
   -6.6173    3.1189   20.9041 C   0  0  1  0  0  0  0  0  0  0  0  0
   -5.7518    2.9844   19.8021 O   0  0  0  0  0  0  0  0  0  0  0  0
   -7.5950    4.2029   20.4906 C   0  0  1  0  0  0  0  0  0  0  0  0
   -7.9618    4.9989   21.5954 O   0  0  0  0  0  0  0  0  0  0  0  0
   -6.7953    5.0249   19.5002 C   0  0  1  0  0  0  0  0  0  0  0  0
   -6.4192    6.2287   20.1224 O   0  0  0  0  0  0  0  0  0  0  0  0
   -5.5497    4.2176   19.1608 C   0  0  2  0  0  0  0  0  0  0  0  0
   -9.9512    1.0363   16.7106 O   0  0  0  0  0  0  0  0  0  0  0  0
   -7.9439    4.9386   14.5215 N   0  0  0  0  0  0  0  0  0  0  0  0
   -8.3648    5.3506   15.7705 C   0  0  0  0  0  0  0  0  0  0  0  0
   -7.6094    5.0732   16.8942 N   0  0  0  0  0  0  0  0  0  0  0  0
   -6.4466    4.3880   16.7840 C   0  0  0  0  0  0  0  0  0  0  0  0
   -6.0028    3.9729   15.5345 C   0  0  0  0  0  0  0  0  0  0  0  0
   -6.7586    4.2461   14.4009 C   0  0  0  0  0  0  0  0  0  0  0  0
   -6.3381    3.8401   13.2053 N   0  0  0  0  0  0  0  0  0  0  0  0
   -4.8292    3.3271   15.7052 N   0  0  0  0  0  0  0  0  0  0  0  0
   -4.5151    3.3401   17.0220 C   0  0  0  0  0  0  0  0  0  0  0  0
   -5.5058    3.9937   17.7060 N   0  0  0  0  0  0  0  0  0  0  0  0
  2  1  1  6  0  0  0
  2  3  1  0  0  0  0
  2  5  1  0  0  0  0
  3  4  1  0  0  0  0
  3 17  1  0  0  0  0
  5  6  1  0  0  0  0
  7  6  1  1  0  0  0
  7  8  1  0  0  0  0
  7  9  1  0  0  0  0
 10  9  1  6  0  0  0
 10 11  1  0  0  0  0
 10 12  1  0  0  0  0
 11 16  1  0  0  0  0
 12 13  1  1  0  0  0
 12 14  1  0  0  0  0
 14 15  1  1  0  0  0
 14 16  1  0  0  0  0
 16 27  1  6  0  0  0
 18 19  2  0  0  0  0
 18 23  1  0  0  0  0
 19 20  1  0  0  0  0
 20 21  2  0  0  0  0
 21 22  1  0  0  0  0
 21 27  1  0  0  0  0
 22 23  2  0  0  0  0
 22 25  1  0  0  0  0
 23 24  1  0  0  0  0
 25 26  2  0  0  0  0
 26 27  1  0  0  0  0
M  END
>  <CHROM.1>
-161.35753127,44.86899645,58.40181492,-97.92151256,171.93031329,-69.98953492
110.59222267,-7.60885695,2.75344300,18.20536916,2.59825215,0.93751458,1.61271384

>  <Name>
ligand

>  <RI>
0

>  <Rbt.Current_Directory>
/home/itssahil/PROJECTS/Mol_Feturizer/New_Systems/rnas/3GX6

>  <Rbt.Executable>
rbdock ($Id: //depot/dev/client3/rdock/2013.1/src/exe/rbdock.cxx#4 $)

>  <Rbt.Library>
libRbt.so (2013.1, Build901 2013/11/27)

>  <Rbt.Parameter_File>
/export/apps/rDock/src/rDock_2013.1_src/data/scripts/dock_solv.prm

>  <Rbt.Receptor>
prm/blind_docking_80.prm

>  <SCORE>
-18.9074

>  <SCORE.INTER>
-12.7213

>  <SCORE.INTER.CONST>
1

>  <SCORE.INTER.POLAR>
0

>  <SCORE.INTER.ROT>
7

>  <SCORE.INTER.SOLV>
9.10405

>  <SCORE.INTER.VDW>
-19.7822

>  <SCORE.INTER.norm>
-0.471159

>  <SCORE.INTRA>
-6.18614

>  <SCORE.INTRA.DIHEDRAL>
-8.44317

>  <SCORE.INTRA.DIHEDRAL.0>
15.0182

>  <SCORE.INTRA.POLAR>
0

>  <SCORE.INTRA.POLAR.0>
0

>  <SCORE.INTRA.REPUL>
0

>  <SCORE.INTRA.REPUL.0>
0

>  <SCORE.INTRA.SOLV>
1.47317

>  <SCORE.INTRA.SOLV.lig_0>
-47.9129

>  <SCORE.INTRA.VDW>
-2.70114

>  <SCORE.INTRA.VDW.0>
2.00851

>  <SCORE.INTRA.norm>
-0.229116

>  <SCORE.RESTR>
0

>  <SCORE.RESTR.CAVITY>
0

>  <SCORE.RESTR.norm>
0

>  <SCORE.SYSTEM>
0

>  <SCORE.SYSTEM.CONST>
0

>  <SCORE.SYSTEM.DIHEDRAL>
0

>  <SCORE.SYSTEM.SOLV>
0

>  <SCORE.SYSTEM.norm>
0

>  <SCORE.heavy>
27

>  <SCORE.norm>
-0.700275

>  <RMSD>
17.640

$$$$
ligand
 OpenBabel11021811483D
libRbt.so/2013.1/901 2013/11/27
 27 29  0  0  0  0  0  0  0  0999 V2000
   -7.9440    5.1537   13.7402 N   0  0  0  0  0  0  0  0  0  0  0  0
   -6.9603    4.0746   13.7146 C   0  0  2  0  0  0  0  0  0  0  0  0
   -6.0141    4.1950   12.5229 C   0  0  0  0  0  0  0  0  0  0  0  0
   -4.9797    3.5268   12.4609 O   0  0  0  0  0  0  0  0  0  0  0  0
   -7.6459    2.7119   13.7443 C   0  0  0  0  0  0  0  0  0  0  0  0
   -8.4087    2.4492   15.0336 C   0  0  0  0  0  0  0  0  0  0  0  0
   -9.1619    0.8054   15.1164 S   0  0  2  0  0  0  0  0  0  0  0  0
  -10.4737    0.9831   13.8818 C   0  0  0  0  0  0  0  0  0  0  0  0
  -10.1062    0.9362   16.6589 C   0  0  0  0  0  0  0  0  0  0  0  0
   -9.1619    0.7852   17.8429 C   0  0  1  0  0  0  0  0  0  0  0  0
   -8.4969    2.0105   18.0380 O   0  0  0  0  0  0  0  0  0  0  0  0
   -9.8213    0.4929   19.1776 C   0  0  1  0  0  0  0  0  0  0  0  0
   -9.8197   -0.8912   19.4481 O   0  0  0  0  0  0  0  0  0  0  0  0
   -8.9292    1.2167   20.1656 C   0  0  1  0  0  0  0  0  0  0  0  0
   -8.1548    0.2617   20.8483 O   0  0  0  0  0  0  0  0  0  0  0  0
   -8.0158    2.1242   19.3527 C   0  0  2  0  0  0  0  0  0  0  0  0
   -6.2652    4.9695   11.5995 O   0  0  0  0  0  0  0  0  0  0  0  0
   -5.6796    6.6057   20.8474 N   0  0  0  0  0  0  0  0  0  0  0  0
   -5.0831    5.4204   20.4649 C   0  0  0  0  0  0  0  0  0  0  0  0
   -5.8522    4.3309   20.1021 N   0  0  0  0  0  0  0  0  0  0  0  0
   -7.2039    4.4115   20.1220 C   0  0  0  0  0  0  0  0  0  0  0  0
   -7.8217    5.5985   20.4958 C   0  0  0  0  0  0  0  0  0  0  0  0
   -7.0545    6.6970   20.8643 C   0  0  0  0  0  0  0  0  0  0  0  0
   -7.6466    7.8309   21.2315 N   0  0  0  0  0  0  0  0  0  0  0  0
   -9.1571    5.4117   20.4219 N   0  0  0  0  0  0  0  0  0  0  0  0
   -9.3949    4.1487   19.9964 C   0  0  0  0  0  0  0  0  0  0  0  0
   -8.1961    3.5140   19.8048 N   0  0  0  0  0  0  0  0  0  0  0  0
  2  1  1  6  0  0  0
  2  3  1  0  0  0  0
  2  5  1  0  0  0  0
  3  4  1  0  0  0  0
  3 17  1  0  0  0  0
  5  6  1  0  0  0  0
  7  6  1  6  0  0  0
  7  8  1  0  0  0  0
  7  9  1  0  0  0  0
 10  9  1  6  0  0  0
 10 11  1  0  0  0  0
 10 12  1  0  0  0  0
 11 16  1  0  0  0  0
 12 13  1  1  0  0  0
 12 14  1  0  0  0  0
 14 15  1  6  0  0  0
 14 16  1  0  0  0  0
 16 27  1  1  0  0  0
 18 19  2  0  0  0  0
 18 23  1  0  0  0  0
 19 20  1  0  0  0  0
 20 21  2  0  0  0  0
 21 22  1  0  0  0  0
 21 27  1  0  0  0  0
 22 23  2  0  0  0  0
 22 25  1  0  0  0  0
 23 24  1  0  0  0  0
 25 26  2  0  0  0  0
 26 27  1  0  0  0  0
M  END
>  <CHROM.1>
166.88245987,-64.70774808,-177.24520709,-70.18196994,-77.81409419,79.08574967
-115.22929470,-7.97761147,3.13394025,17.48492386,-1.56248449,1.04431466,1.34842837

>  <Name>
ligand

>  <RI>
0

>  <Rbt.Current_Directory>
/home/itssahil/PROJECTS/Mol_Feturizer/New_Systems/rnas/3GX6

>  <Rbt.Executable>
rbdock ($Id: //depot/dev/client3/rdock/2013.1/src/exe/rbdock.cxx#4 $)

>  <Rbt.Library>
libRbt.so (2013.1, Build901 2013/11/27)

>  <Rbt.Parameter_File>
/export/apps/rDock/src/rDock_2013.1_src/data/scripts/dock_solv.prm

>  <Rbt.Receptor>
prm/blind_docking_80.prm

>  <SCORE>
-19.4616

>  <SCORE.INTER>
-9.7081

>  <SCORE.INTER.CONST>
1

>  <SCORE.INTER.POLAR>
0

>  <SCORE.INTER.ROT>
7

>  <SCORE.INTER.SOLV>
12.7645

>  <SCORE.INTER.VDW>
-18.9936

>  <SCORE.INTER.norm>
-0.359559

>  <SCORE.INTRA>
-9.75351

>  <SCORE.INTRA.DIHEDRAL>
-10.2062

>  <SCORE.INTRA.DIHEDRAL.0>
15.0182

>  <SCORE.INTRA.POLAR>
0

>  <SCORE.INTRA.POLAR.0>
0

>  <SCORE.INTRA.REPUL>
0

>  <SCORE.INTRA.REPUL.0>
0

>  <SCORE.INTRA.SOLV>
-1.17025

>  <SCORE.INTRA.SOLV.lig_0>
-47.9129

>  <SCORE.INTRA.VDW>
-4.0653

>  <SCORE.INTRA.VDW.0>
2.00851

>  <SCORE.INTRA.norm>
-0.361241

>  <SCORE.RESTR>
0

>  <SCORE.RESTR.CAVITY>
0

>  <SCORE.RESTR.norm>
0

>  <SCORE.SYSTEM>
0

>  <SCORE.SYSTEM.CONST>
0

>  <SCORE.SYSTEM.DIHEDRAL>
0

>  <SCORE.SYSTEM.SOLV>
0

>  <SCORE.SYSTEM.norm>
0

>  <SCORE.heavy>
27

>  <SCORE.norm>
-0.7208

>  <RMSD>
17.672

$$$$
ligand
 OpenBabel11021811483D
libRbt.so/2013.1/901 2013/11/27
 27 29  0  0  0  0  0  0  0  0999 V2000
   -7.3775   -5.2307   15.8777 N   0  0  0  0  0  0  0  0  0  0  0  0
   -6.6078   -4.2318   15.1411 C   0  0  2  0  0  0  0  0  0  0  0  0
   -6.3644   -4.6538   13.6945 C   0  0  0  0  0  0  0  0  0  0  0  0
   -6.3937   -5.8413   13.3640 O   0  0  0  0  0  0  0  0  0  0  0  0
   -5.2972   -3.9179   15.8565 C   0  0  0  0  0  0  0  0  0  0  0  0
   -5.4890   -3.4773   17.2994 C   0  0  0  0  0  0  0  0  0  0  0  0
   -6.0867   -1.7776   17.4723 S   0  0  2  0  0  0  0  0  0  0  0  0
   -5.7384   -1.4839   19.2242 C   0  0  0  0  0  0  0  0  0  0  0  0
   -7.8800   -2.0446   17.5069 C   0  0  0  0  0  0  0  0  0  0  0  0
   -8.5707   -0.7715   17.9744 C   0  0  1  0  0  0  0  0  0  0  0  0
   -8.4547    0.1943   16.9568 O   0  0  0  0  0  0  0  0  0  0  0  0
  -10.0630   -0.8856   18.2231 C   0  0  1  0  0  0  0  0  0  0  0  0
  -10.3302   -1.1150   19.5886 O   0  0  0  0  0  0  0  0  0  0  0  0
  -10.5831    0.4773   17.8133 C   0  0  1  0  0  0  0  0  0  0  0  0
  -10.9001    1.2008   18.9769 O   0  0  0  0  0  0  0  0  0  0  0  0
   -9.4516    1.1770   17.0725 C   0  0  2  0  0  0  0  0  0  0  0  0
   -6.1280   -3.8121   12.8278 O   0  0  0  0  0  0  0  0  0  0  0  0
  -10.6455    5.0749   13.7324 N   0  0  0  0  0  0  0  0  0  0  0  0
  -10.2007    5.1762   15.0358 C   0  0  0  0  0  0  0  0  0  0  0  0
   -9.9345    4.0413   15.7784 N   0  0  0  0  0  0  0  0  0  0  0  0
  -10.1117    2.8129   15.2366 C   0  0  0  0  0  0  0  0  0  0  0  0
  -10.5503    2.6915   13.9238 C   0  0  0  0  0  0  0  0  0  0  0  0
  -10.8224    3.8283   13.1724 C   0  0  0  0  0  0  0  0  0  0  0  0
  -11.2516    3.7116   11.9181 N   0  0  0  0  0  0  0  0  0  0  0  0
  -10.6336    1.3749   13.6350 N   0  0  0  0  0  0  0  0  0  0  0  0
  -10.2437    0.6676   14.7214 C   0  0  0  0  0  0  0  0  0  0  0  0
   -9.9161    1.5421   15.7237 N   0  0  0  0  0  0  0  0  0  0  0  0
  2  1  1  1  0  0  0
  2  3  1  0  0  0  0
  2  5  1  0  0  0  0
  3  4  1  0  0  0  0
  3 17  1  0  0  0  0
  5  6  1  0  0  0  0
  7  6  1  1  0  0  0
  7  8  1  0  0  0  0
  7  9  1  0  0  0  0
 10  9  1  6  0  0  0
 10 11  1  0  0  0  0
 10 12  1  0  0  0  0
 11 16  1  0  0  0  0
 12 13  1  1  0  0  0
 12 14  1  0  0  0  0
 14 15  1  1  0  0  0
 14 16  1  0  0  0  0
 16 27  1  6  0  0  0
 18 19  2  0  0  0  0
 18 23  1  0  0  0  0
 19 20  1  0  0  0  0
 20 21  2  0  0  0  0
 21 22  1  0  0  0  0
 21 27  1  0  0  0  0
 22 23  2  0  0  0  0
 22 25  1  0  0  0  0
 23 24  1  0  0  0  0
 25 26  2  0  0  0  0
 26 27  1  0  0  0  0
M  END
>  <CHROM.1>
-23.48230821,-55.30604337,-75.80812084,-164.72264021,166.77680416,70.39125148
-133.88435270,-8.56913081,-0.36671170,15.96936362,-0.17723745,1.02983671
-1.51366853

>  <Name>
ligand

>  <RI>
0

>  <Rbt.Current_Directory>
/home/itssahil/PROJECTS/Mol_Feturizer/New_Systems/rnas/3GX6

>  <Rbt.Executable>
rbdock ($Id: //depot/dev/client3/rdock/2013.1/src/exe/rbdock.cxx#4 $)

>  <Rbt.Library>
libRbt.so (2013.1, Build901 2013/11/27)

>  <Rbt.Parameter_File>
/export/apps/rDock/src/rDock_2013.1_src/data/scripts/dock_solv.prm

>  <Rbt.Receptor>
prm/blind_docking_40.prm

>  <SCORE>
-19.7635

>  <SCORE.INTER>
-10.8718

>  <SCORE.INTER.CONST>
1

>  <SCORE.INTER.POLAR>
0

>  <SCORE.INTER.ROT>
7

>  <SCORE.INTER.SOLV>
9.95745

>  <SCORE.INTER.VDW>
-18.8337

>  <SCORE.INTER.norm>
-0.402659

>  <SCORE.INTRA>
-8.89168

>  <SCORE.INTRA.DIHEDRAL>
-8.98452

>  <SCORE.INTRA.DIHEDRAL.0>
15.0182

>  <SCORE.INTRA.POLAR>
0

>  <SCORE.INTRA.POLAR.0>
0

>  <SCORE.INTRA.REPUL>
0

>  <SCORE.INTRA.REPUL.0>
0

>  <SCORE.INTRA.SOLV>
0.120137

>  <SCORE.INTRA.SOLV.lig_0>
-47.9129

>  <SCORE.INTRA.VDW>
-4.45948

>  <SCORE.INTRA.VDW.0>
2.00851

>  <SCORE.INTRA.norm>
-0.329321

>  <SCORE.RESTR>
0

>  <SCORE.RESTR.CAVITY>
0

>  <SCORE.RESTR.norm>
0

>  <SCORE.SYSTEM>
0

>  <SCORE.SYSTEM.CONST>
0

>  <SCORE.SYSTEM.DIHEDRAL>
0

>  <SCORE.SYSTEM.SOLV>
0

>  <SCORE.SYSTEM.norm>
0

>  <SCORE.heavy>
27

>  <SCORE.norm>
-0.73198

>  <RMSD>
17.722

$$$$
ligand
 OpenBabel11021811483D
libRbt.so/2013.1/901 2013/11/27
 27 29  0  0  0  0  0  0  0  0999 V2000
   -7.7628   -5.8305   17.1795 N   0  0  0  0  0  0  0  0  0  0  0  0
   -7.6097   -4.4226   16.8231 C   0  0  2  0  0  0  0  0  0  0  0  0
   -8.1142   -3.4976   17.9275 C   0  0  0  0  0  0  0  0  0  0  0  0
   -8.1080   -3.8530   19.1082 O   0  0  0  0  0  0  0  0  0  0  0  0
   -8.2903   -4.1208   15.4913 C   0  0  0  0  0  0  0  0  0  0  0  0
   -7.6993   -4.8954   14.3235 C   0  0  0  0  0  0  0  0  0  0  0  0
   -8.5447   -4.6048   12.7497 S   0  0  2  0  0  0  0  0  0  0  0  0
   -7.6186   -5.7227   11.6684 C   0  0  0  0  0  0  0  0  0  0  0  0
   -7.8503   -2.9977   12.2770 C   0  0  0  0  0  0  0  0  0  0  0  0
   -8.8732   -1.9051   12.5536 C   0  0  1  0  0  0  0  0  0  0  0  0
   -9.0555   -1.8116   13.9463 O   0  0  0  0  0  0  0  0  0  0  0  0
   -8.4727   -0.5053   12.1269 C   0  0  1  0  0  0  0  0  0  0  0  0
   -9.0027   -0.1944   10.8576 O   0  0  0  0  0  0  0  0  0  0  0  0
   -9.1111    0.3706   13.1857 C   0  0  1  0  0  0  0  0  0  0  0  0
  -10.2322    1.0051   12.6215 O   0  0  0  0  0  0  0  0  0  0  0  0
   -9.5620   -0.5528   14.3094 C   0  0  2  0  0  0  0  0  0  0  0  0
   -8.5438   -2.3759   17.6575 O   0  0  0  0  0  0  0  0  0  0  0  0
  -10.2507    1.0642   19.2779 N   0  0  0  0  0  0  0  0  0  0  0  0
  -11.2166    0.7368   18.3469 C   0  0  0  0  0  0  0  0  0  0  0  0
  -10.8588    0.3298   17.0755 N   0  0  0  0  0  0  0  0  0  0  0  0
   -9.5530    0.2515   16.7251 C   0  0  0  0  0  0  0  0  0  0  0  0
   -8.5670    0.5686   17.6512 C   0  0  0  0  0  0  0  0  0  0  0  0
   -8.9197    0.9811   18.9304 C   0  0  0  0  0  0  0  0  0  0  0  0
   -7.9753    1.2941   19.8143 N   0  0  0  0  0  0  0  0  0  0  0  0
   -7.3678    0.4005   17.0535 N   0  0  0  0  0  0  0  0  0  0  0  0
   -7.5719   -0.0292   15.7861 C   0  0  0  0  0  0  0  0  0  0  0  0
   -8.9203   -0.1279   15.5649 N   0  0  0  0  0  0  0  0  0  0  0  0
  2  1  1  1  0  0  0
  2  3  1  0  0  0  0
  2  5  1  0  0  0  0
  3  4  1  0  0  0  0
  3 17  1  0  0  0  0
  5  6  1  0  0  0  0
  7  6  1  1  0  0  0
  7  8  1  0  0  0  0
  7  9  1  0  0  0  0
 10  9  1  1  0  0  0
 10 11  1  0  0  0  0
 10 12  1  0  0  0  0
 11 16  1  0  0  0  0
 12 13  1  6  0  0  0
 12 14  1  0  0  0  0
 14 15  1  6  0  0  0
 14 16  1  0  0  0  0
 16 27  1  1  0  0  0
 18 19  2  0  0  0  0
 18 23  1  0  0  0  0
 19 20  1  0  0  0  0
 20 21  2  0  0  0  0
 21 22  1  0  0  0  0
 21 27  1  0  0  0  0
 22 23  2  0  0  0  0
 22 25  1  0  0  0  0
 23 24  1  0  0  0  0
 25 26  2  0  0  0  0
 26 27  1  0  0  0  0
M  END
>  <CHROM.1>
27.66667944,-61.88297817,177.38282829,-177.72513076,-102.98661191,66.79654662
-125.34022832,-8.71497664,-1.69392322,15.39475544,-1.10840127,-1.29869965
1.42873064

>  <Name>
ligand

>  <RI>
0

>  <Rbt.Current_Directory>
/home/itssahil/PROJECTS/Mol_Feturizer/New_Systems/rnas/3GX6

>  <Rbt.Executable>
rbdock ($Id: //depot/dev/client3/rdock/2013.1/src/exe/rbdock.cxx#4 $)

>  <Rbt.Library>
libRbt.so (2013.1, Build901 2013/11/27)

>  <Rbt.Parameter_File>
/export/apps/rDock/src/rDock_2013.1_src/data/scripts/dock_solv.prm

>  <Rbt.Receptor>
prm/blind_docking_80.prm

>  <SCORE>
-20.7182

>  <SCORE.INTER>
-10.396

>  <SCORE.INTER.CONST>
1

>  <SCORE.INTER.POLAR>
0

>  <SCORE.INTER.ROT>
7

>  <SCORE.INTER.SOLV>
7.73981

>  <SCORE.INTER.VDW>
-17.7773

>  <SCORE.INTER.norm>
-0.385037

>  <SCORE.INTRA>
-10.3222

>  <SCORE.INTRA.DIHEDRAL>
-8.61352

>  <SCORE.INTRA.DIHEDRAL.0>
15.0182

>  <SCORE.INTRA.POLAR>
0

>  <SCORE.INTRA.POLAR.0>
0

>  <SCORE.INTRA.REPUL>
0

>  <SCORE.INTRA.REPUL.0>
0

>  <SCORE.INTRA.SOLV>
-1.00559

>  <SCORE.INTRA.SOLV.lig_0>
-47.9129

>  <SCORE.INTRA.VDW>
-5.51266

>  <SCORE.INTRA.VDW.0>
2.00851

>  <SCORE.INTRA.norm>
-0.382304

>  <SCORE.RESTR>
0

>  <SCORE.RESTR.CAVITY>
0

>  <SCORE.RESTR.norm>
0

>  <SCORE.SYSTEM>
0

>  <SCORE.SYSTEM.CONST>
0

>  <SCORE.SYSTEM.DIHEDRAL>
0

>  <SCORE.SYSTEM.SOLV>
0

>  <SCORE.SYSTEM.norm>
0

>  <SCORE.heavy>
27

>  <SCORE.norm>
-0.767341

>  <RMSD>
17.734

$$$$
ligand
 OpenBabel11021811483D
libRbt.so/2013.1/901 2013/11/27
 27 29  0  0  0  0  0  0  0  0999 V2000
   -9.2981   -5.9246   16.3242 N   0  0  0  0  0  0  0  0  0  0  0  0
   -9.4273   -6.6736   15.0771 C   0  0  2  0  0  0  0  0  0  0  0  0
  -10.0200   -8.0616   15.3055 C   0  0  0  0  0  0  0  0  0  0  0  0
   -9.3083   -9.0104   15.6427 O   0  0  0  0  0  0  0  0  0  0  0  0
   -8.0889   -6.7538   14.3489 C   0  0  0  0  0  0  0  0  0  0  0  0
   -7.6287   -5.4182   13.7855 C   0  0  0  0  0  0  0  0  0  0  0  0
   -8.4248   -4.9696   12.2231 S   0  0  2  0  0  0  0  0  0  0  0  0
   -7.4329   -5.9385   11.0595 C   0  0  0  0  0  0  0  0  0  0  0  0
   -7.7548   -3.3051   11.9602 C   0  0  0  0  0  0  0  0  0  0  0  0
   -8.7750   -2.2726   12.4179 C   0  0  1  0  0  0  0  0  0  0  0  0
   -9.0798   -2.5204   13.7697 O   0  0  0  0  0  0  0  0  0  0  0  0
   -8.3082   -0.8293   12.3909 C   0  0  1  0  0  0  0  0  0  0  0  0
   -8.7153   -0.1902   11.2016 O   0  0  0  0  0  0  0  0  0  0  0  0
   -9.0205   -0.2173   13.5801 C   0  0  1  0  0  0  0  0  0  0  0  0
  -10.0727    0.5851   13.1037 O   0  0  0  0  0  0  0  0  0  0  0  0
   -9.5900   -1.3707   14.3949 C   0  0  2  0  0  0  0  0  0  0  0  0
  -11.2249   -8.2613   15.1513 O   0  0  0  0  0  0  0  0  0  0  0  0
  -10.2631    0.4502   19.2945 N   0  0  0  0  0  0  0  0  0  0  0  0
  -11.0848    0.6284   18.1990 C   0  0  0  0  0  0  0  0  0  0  0  0
  -10.7541    0.0787   16.9749 N   0  0  0  0  0  0  0  0  0  0  0  0
   -9.6146   -0.6394   16.8335 C   0  0  0  0  0  0  0  0  0  0  0  0
   -8.7799   -0.8364   17.9266 C   0  0  0  0  0  0  0  0  0  0  0  0
   -9.1050   -0.2843   19.1597 C   0  0  0  0  0  0  0  0  0  0  0  0
   -8.3005   -0.4652   20.2043 N   0  0  0  0  0  0  0  0  0  0  0  0
   -7.7319   -1.5837   17.5182 N   0  0  0  0  0  0  0  0  0  0  0  0
   -7.8933   -1.8757   16.2062 C   0  0  0  0  0  0  0  0  0  0  0  0
   -9.0550   -1.2991   15.7649 N   0  0  0  0  0  0  0  0  0  0  0  0
  2  1  1  1  0  0  0
  2  3  1  0  0  0  0
  2  5  1  0  0  0  0
  3  4  1  0  0  0  0
  3 17  1  0  0  0  0
  5  6  1  0  0  0  0
  7  6  1  1  0  0  0
  7  8  1  0  0  0  0
  7  9  1  0  0  0  0
 10  9  1  1  0  0  0
 10 11  1  0  0  0  0
 10 12  1  0  0  0  0
 11 16  1  0  0  0  0
 12 13  1  6  0  0  0
 12 14  1  0  0  0  0
 14 15  1  6  0  0  0
 14 16  1  0  0  0  0
 16 27  1  1  0  0  0
 18 19  2  0  0  0  0
 18 23  1  0  0  0  0
 19 20  1  0  0  0  0
 20 21  2  0  0  0  0
 21 22  1  0  0  0  0
 21 27  1  0  0  0  0
 22 23  2  0  0  0  0
 22 25  1  0  0  0  0
 23 24  1  0  0  0  0
 25 26  2  0  0  0  0
 26 27  1  0  0  0  0
M  END
>  <CHROM.1>
-84.03661882,-69.37046414,-79.91823476,-81.08506025,-98.71353847,57.21396992
-156.18599972,-9.03625776,-3.02124547,14.95092858,1.10810211,-1.39963290
-3.09797464

>  <Name>
ligand

>  <RI>
0

>  <Rbt.Current_Directory>
/home/itssahil/PROJECTS/Mol_Feturizer/New_Systems/rnas/3GX6

>  <Rbt.Executable>
rbdock ($Id: //depot/dev/client3/rdock/2013.1/src/exe/rbdock.cxx#4 $)

>  <Rbt.Library>
libRbt.so (2013.1, Build901 2013/11/27)

>  <Rbt.Parameter_File>
/export/apps/rDock/src/rDock_2013.1_src/data/scripts/dock_solv.prm

>  <Rbt.Receptor>
prm/blind_docking_100.prm

>  <SCORE>
-23.8466

>  <SCORE.INTER>
-14.9894

>  <SCORE.INTER.CONST>
1

>  <SCORE.INTER.POLAR>
0

>  <SCORE.INTER.ROT>
7

>  <SCORE.INTER.SOLV>
11.814

>  <SCORE.INTER.VDW>
-22.1976

>  <SCORE.INTER.norm>
-0.555164

>  <SCORE.INTRA>
-8.85718

>  <SCORE.INTRA.DIHEDRAL>
-7.39385

>  <SCORE.INTRA.DIHEDRAL.0>
15.0182

>  <SCORE.INTRA.POLAR>
0

>  <SCORE.INTRA.POLAR.0>
0

>  <SCORE.INTRA.REPUL>
0

>  <SCORE.INTRA.REPUL.0>
0

>  <SCORE.INTRA.SOLV>
-0.885752

>  <SCORE.INTRA.SOLV.lig_0>
-47.9129

>  <SCORE.INTRA.VDW>
-4.71738

>  <SCORE.INTRA.VDW.0>
2.00851

>  <SCORE.INTRA.norm>
-0.328044

>  <SCORE.RESTR>
0

>  <SCORE.RESTR.CAVITY>
0

>  <SCORE.RESTR.norm>
0

>  <SCORE.SYSTEM>
0

>  <SCORE.SYSTEM.CONST>
0

>  <SCORE.SYSTEM.DIHEDRAL>
0

>  <SCORE.SYSTEM.SOLV>
0

>  <SCORE.SYSTEM.norm>
0

>  <SCORE.heavy>
27

>  <SCORE.norm>
-0.883208

>  <RMSD>
17.744

$$$$
ligand
 OpenBabel11021811483D
libRbt.so/2013.1/901 2013/11/27
 27 29  0  0  0  0  0  0  0  0999 V2000
   -7.1084   -1.4939   17.6917 N   0  0  0  0  0  0  0  0  0  0  0  0
   -7.4805   -0.7170   16.5123 C   0  0  2  0  0  0  0  0  0  0  0  0
   -7.0601    0.7450   16.6378 C   0  0  0  0  0  0  0  0  0  0  0  0
   -7.3133    1.3956   17.6542 O   0  0  0  0  0  0  0  0  0  0  0  0
   -8.9738   -0.8432   16.2261 C   0  0  0  0  0  0  0  0  0  0  0  0
   -9.4355    0.0035   15.0501 C   0  0  0  0  0  0  0  0  0  0  0  0
   -8.5558   -0.3453   13.5071 S   0  0  2  0  0  0  0  0  0  0  0  0
   -9.2878    0.9051   12.4222 C   0  0  0  0  0  0  0  0  0  0  0  0
   -9.4141   -1.8432   12.9520 C   0  0  0  0  0  0  0  0  0  0  0  0
   -8.5301   -3.0553   13.2082 C   0  0  1  0  0  0  0  0  0  0  0  0
   -8.4810   -3.2820   14.5966 O   0  0  0  0  0  0  0  0  0  0  0  0
   -9.0252   -4.3658   12.6255 C   0  0  1  0  0  0  0  0  0  0  0  0
   -8.4182   -4.6244   11.3792 O   0  0  0  0  0  0  0  0  0  0  0  0
   -8.5702   -5.3879   13.6475 C   0  0  1  0  0  0  0  0  0  0  0  0
   -7.4705   -6.0869   13.1185 O   0  0  0  0  0  0  0  0  0  0  0  0
   -8.1327   -4.6123   14.8827 C   0  0  2  0  0  0  0  0  0  0  0  0
   -6.4618    1.3058   15.7195 O   0  0  0  0  0  0  0  0  0  0  0  0
  -11.6764   -8.0593   16.7091 N   0  0  0  0  0  0  0  0  0  0  0  0
  -11.1546   -7.9690   15.4337 C   0  0  0  0  0  0  0  0  0  0  0  0
  -10.2267   -6.9936   15.1209 N   0  0  0  0  0  0  0  0  0  0  0  0
   -9.8204   -6.1095   16.0628 C   0  0  0  0  0  0  0  0  0  0  0  0
  -10.3280   -6.1904   17.3536 C   0  0  0  0  0  0  0  0  0  0  0  0
  -11.2632   -7.1668   17.6743 C   0  0  0  0  0  0  0  0  0  0  0  0
  -11.7564   -7.2381   18.9084 N   0  0  0  0  0  0  0  0  0  0  0  0
   -9.7581   -5.2087   18.0851 N   0  0  0  0  0  0  0  0  0  0  0  0
   -8.8955   -4.5258   17.2963 C   0  0  0  0  0  0  0  0  0  0  0  0
   -8.9205   -5.0703   16.0395 N   0  0  0  0  0  0  0  0  0  0  0  0
  2  1  1  1  0  0  0
  2  3  1  0  0  0  0
  2  5  1  0  0  0  0
  3  4  1  0  0  0  0
  3 17  1  0  0  0  0
  5  6  1  0  0  0  0
  7  6  1  1  0  0  0
  7  8  1  0  0  0  0
  7  9  1  0  0  0  0
 10  9  1  1  0  0  0
 10 11  1  0  0  0  0
 10 12  1  0  0  0  0
 11 16  1  0  0  0  0
 12 13  1  6  0  0  0
 12 14  1  0  0  0  0
 14 15  1  6  0  0  0
 14 16  1  0  0  0  0
 16 27  1  1  0  0  0
 18 19  2  0  0  0  0
 18 23  1  0  0  0  0
 19 20  1  0  0  0  0
 20 21  2  0  0  0  0
 21 22  1  0  0  0  0
 21 27  1  0  0  0  0
 22 23  2  0  0  0  0
 22 25  1  0  0  0  0
 23 24  1  0  0  0  0
 25 26  2  0  0  0  0
 26 27  1  0  0  0  0
M  END
>  <CHROM.1>
-48.61213526,176.98500225,56.79164826,-176.23751441,-104.32985531,71.12450175
118.71405971,-8.94900429,-3.34028877,15.28131731,0.10714594,1.23585081,1.27706069

>  <Name>
ligand

>  <RI>
0

>  <Rbt.Current_Directory>
/home/itssahil/PROJECTS/Mol_Feturizer/New_Systems/rnas/3GX6

>  <Rbt.Executable>
rbdock ($Id: //depot/dev/client3/rdock/2013.1/src/exe/rbdock.cxx#4 $)

>  <Rbt.Library>
libRbt.so (2013.1, Build901 2013/11/27)

>  <Rbt.Parameter_File>
/export/apps/rDock/src/rDock_2013.1_src/data/scripts/dock_solv.prm

>  <Rbt.Receptor>
prm/blind_docking_40.prm

>  <SCORE>
-18.6732

>  <SCORE.INTER>
-9.48433

>  <SCORE.INTER.CONST>
1

>  <SCORE.INTER.POLAR>
0

>  <SCORE.INTER.ROT>
7

>  <SCORE.INTER.SOLV>
11.7852

>  <SCORE.INTER.VDW>
-18.518

>  <SCORE.INTER.norm>
-0.351271

>  <SCORE.INTRA>
-9.18889

>  <SCORE.INTRA.DIHEDRAL>
-8.07669

>  <SCORE.INTRA.DIHEDRAL.0>
15.0182

>  <SCORE.INTRA.POLAR>
0

>  <SCORE.INTRA.POLAR.0>
0

>  <SCORE.INTRA.REPUL>
0

>  <SCORE.INTRA.REPUL.0>
0

>  <SCORE.INTRA.SOLV>
-0.544968

>  <SCORE.INTRA.SOLV.lig_0>
-47.9129

>  <SCORE.INTRA.VDW>
-4.87807

>  <SCORE.INTRA.VDW.0>
2.00851

>  <SCORE.INTRA.norm>
-0.340329

>  <SCORE.RESTR>
0

>  <SCORE.RESTR.CAVITY>
0

>  <SCORE.RESTR.norm>
0

>  <SCORE.SYSTEM>
0

>  <SCORE.SYSTEM.CONST>
0

>  <SCORE.SYSTEM.DIHEDRAL>
0

>  <SCORE.SYSTEM.SOLV>
0

>  <SCORE.SYSTEM.norm>
0

>  <SCORE.heavy>
27

>  <SCORE.norm>
-0.691601

>  <RMSD>
17.744

$$$$
ligand
 OpenBabel11021811483D
libRbt.so/2013.1/901 2013/11/27
 27 29  0  0  0  0  0  0  0  0999 V2000
   -8.2384   -5.8677   14.0465 N   0  0  0  0  0  0  0  0  0  0  0  0
   -6.9241   -5.2308   14.0489 C   0  0  2  0  0  0  0  0  0  0  0  0
   -6.0717   -5.6800   12.8651 C   0  0  0  0  0  0  0  0  0  0  0  0
   -5.4884   -4.8598   12.1527 O   0  0  0  0  0  0  0  0  0  0  0  0
   -6.2056   -5.4698   15.3735 C   0  0  0  0  0  0  0  0  0  0  0  0
   -6.9607   -4.9239   16.5756 C   0  0  0  0  0  0  0  0  0  0  0  0
   -7.0522   -3.1167   16.6233 S   0  0  2  0  0  0  0  0  0  0  0  0
   -5.6078   -2.7421   17.6479 C   0  0  0  0  0  0  0  0  0  0  0  0
   -8.4019   -2.8711   17.8092 C   0  0  0  0  0  0  0  0  0  0  0  0
   -8.6040   -1.3807   18.0419 C   0  0  1  0  0  0  0  0  0  0  0  0
   -8.4661   -0.7173   16.8080 O   0  0  0  0  0  0  0  0  0  0  0  0
   -9.9771   -0.9730   18.5423 C   0  0  1  0  0  0  0  0  0  0  0  0
   -9.9818   -0.8366   19.9459 O   0  0  0  0  0  0  0  0  0  0  0  0
  -10.1925    0.3767   17.8881 C   0  0  1  0  0  0  0  0  0  0  0  0
  -10.0348    1.3752   18.8657 O   0  0  0  0  0  0  0  0  0  0  0  0
   -9.1118    0.5300   16.8264 C   0  0  2  0  0  0  0  0  0  0  0  0
   -5.9546   -6.8755   12.5953 O   0  0  0  0  0  0  0  0  0  0  0  0
  -11.0771    4.0434   13.4250 N   0  0  0  0  0  0  0  0  0  0  0  0
  -10.5126    4.2797   14.6630 C   0  0  0  0  0  0  0  0  0  0  0  0
  -10.0449    3.2325   15.4342 N   0  0  0  0  0  0  0  0  0  0  0  0
  -10.1392    1.9581   14.9859 C   0  0  0  0  0  0  0  0  0  0  0  0
  -10.6964    1.7018   13.7391 C   0  0  0  0  0  0  0  0  0  0  0  0
  -11.1710    2.7497   12.9597 C   0  0  0  0  0  0  0  0  0  0  0  0
  -11.7134    2.5032   11.7696 N   0  0  0  0  0  0  0  0  0  0  0  0
  -10.6616    0.3672   13.5363 N   0  0  0  0  0  0  0  0  0  0  0  0
  -10.0835   -0.2194   14.6107 C   0  0  0  0  0  0  0  0  0  0  0  0
   -9.7528    0.7512   15.5192 N   0  0  0  0  0  0  0  0  0  0  0  0
  2  1  1  1  0  0  0
  2  3  1  0  0  0  0
  2  5  1  0  0  0  0
  3  4  1  0  0  0  0
  3 17  1  0  0  0  0
  5  6  1  0  0  0  0
  7  6  1  1  0  0  0
  7  8  1  0  0  0  0
  7  9  1  0  0  0  0
 10  9  1  6  0  0  0
 10 11  1  0  0  0  0
 10 12  1  0  0  0  0
 11 16  1  0  0  0  0
 12 13  1  1  0  0  0
 12 14  1  0  0  0  0
 14 15  1  1  0  0  0
 14 16  1  0  0  0  0
 16 27  1  6  0  0  0
 18 19  2  0  0  0  0
 18 23  1  0  0  0  0
 19 20  1  0  0  0  0
 20 21  2  0  0  0  0
 21 22  1  0  0  0  0
 21 27  1  0  0  0  0
 22 23  2  0  0  0  0
 22 25  1  0  0  0  0
 23 24  1  0  0  0  0
 25 26  2  0  0  0  0
 26 27  1  0  0  0  0
M  END
>  <CHROM.1>
131.09034717,-59.88745252,-67.79023103,-93.32862241,177.55957045,39.95091872
-159.60979035,-8.71239666,-1.22135249,15.55638079,0.07501312,1.06660731,-1.60206995

>  <Name>
ligand

>  <RI>
0

>  <Rbt.Current_Directory>
/home/itssahil/PROJECTS/Mol_Feturizer/New_Systems/rnas/3GX6

>  <Rbt.Executable>
rbdock ($Id: //depot/dev/client3/rdock/2013.1/src/exe/rbdock.cxx#4 $)

>  <Rbt.Library>
libRbt.so (2013.1, Build901 2013/11/27)

>  <Rbt.Parameter_File>
/export/apps/rDock/src/rDock_2013.1_src/data/scripts/dock_solv.prm

>  <Rbt.Receptor>
prm/blind_docking_60.prm

>  <SCORE>
-19.0504

>  <SCORE.INTER>
-10.4407

>  <SCORE.INTER.CONST>
1

>  <SCORE.INTER.POLAR>
0

>  <SCORE.INTER.ROT>
7

>  <SCORE.INTER.SOLV>
9.22678

>  <SCORE.INTER.VDW>
-18.3027

>  <SCORE.INTER.norm>
-0.386693

>  <SCORE.INTRA>
-8.60972

>  <SCORE.INTRA.DIHEDRAL>
-8.56278

>  <SCORE.INTRA.DIHEDRAL.0>
15.0182

>  <SCORE.INTRA.POLAR>
0

>  <SCORE.INTRA.POLAR.0>
0

>  <SCORE.INTRA.REPUL>
0

>  <SCORE.INTRA.REPUL.0>
0

>  <SCORE.INTRA.SOLV>
-0.574137

>  <SCORE.INTRA.SOLV.lig_0>
-47.9129

>  <SCORE.INTRA.VDW>
-4.04127

>  <SCORE.INTRA.VDW.0>
2.00851

>  <SCORE.INTRA.norm>
-0.318879

>  <SCORE.RESTR>
0

>  <SCORE.RESTR.CAVITY>
0

>  <SCORE.RESTR.norm>
0

>  <SCORE.SYSTEM>
0

>  <SCORE.SYSTEM.CONST>
0

>  <SCORE.SYSTEM.DIHEDRAL>
0

>  <SCORE.SYSTEM.SOLV>
0

>  <SCORE.SYSTEM.norm>
0

>  <SCORE.heavy>
27

>  <SCORE.norm>
-0.705572

>  <RMSD>
17.769

$$$$
ligand
 OpenBabel11021811483D
libRbt.so/2013.1/901 2013/11/27
 27 29  0  0  0  0  0  0  0  0999 V2000
   -7.0954    5.2146   22.5078 N   0  0  0  0  0  0  0  0  0  0  0  0
   -6.7359    5.6508   21.1612 C   0  0  2  0  0  0  0  0  0  0  0  0
   -7.9684    5.9122   20.2994 C   0  0  0  0  0  0  0  0  0  0  0  0
   -9.1055    5.7737   20.7557 O   0  0  0  0  0  0  0  0  0  0  0  0
   -5.7958    4.6492   20.4972 C   0  0  0  0  0  0  0  0  0  0  0  0
   -6.4434    3.2986   20.2332 C   0  0  0  0  0  0  0  0  0  0  0  0
   -5.4547    2.2057   19.1823 S   0  0  2  0  0  0  0  0  0  0  0  0
   -5.6404    3.0324   17.5827 C   0  0  0  0  0  0  0  0  0  0  0  0
   -6.5836    0.7999   18.9884 C   0  0  0  0  0  0  0  0  0  0  0  0
   -8.0170    1.3082   18.9305 C   0  0  1  0  0  0  0  0  0  0  0  0
   -8.1826    2.0305   17.7337 O   0  0  0  0  0  0  0  0  0  0  0  0
   -9.0928    0.2395   18.8826 C   0  0  1  0  0  0  0  0  0  0  0  0
   -9.6061   -0.0171   20.1707 O   0  0  0  0  0  0  0  0  0  0  0  0
  -10.1619    0.8694   18.0129 C   0  0  1  0  0  0  0  0  0  0  0  0
  -11.2280    1.2695   18.8381 O   0  0  0  0  0  0  0  0  0  0  0  0
   -9.5356    2.0952   17.3620 C   0  0  2  0  0  0  0  0  0  0  0  0
   -7.8489    6.2629   19.1254 O   0  0  0  0  0  0  0  0  0  0  0  0
   -9.0130   -1.0770   13.1860 N   0  0  0  0  0  0  0  0  0  0  0  0
   -8.8066   -1.3803   14.5173 C   0  0  0  0  0  0  0  0  0  0  0  0
   -8.9883   -0.4193   15.4939 N   0  0  0  0  0  0  0  0  0  0  0  0
   -9.3674    0.8359   15.1555 C   0  0  0  0  0  0  0  0  0  0  0  0
   -9.5880    1.1571   13.8218 C   0  0  0  0  0  0  0  0  0  0  0  0
   -9.4046    0.1966   12.8346 C   0  0  0  0  0  0  0  0  0  0  0  0
   -9.6068    0.5071   11.5564 N   0  0  0  0  0  0  0  0  0  0  0  0
   -9.9598    2.4541   13.7641 N   0  0  0  0  0  0  0  0  0  0  0  0
   -9.9957    2.9509   15.0229 C   0  0  0  0  0  0  0  0  0  0  0  0
   -9.6320    1.9621   15.8986 N   0  0  0  0  0  0  0  0  0  0  0  0
  2  1  1  1  0  0  0
  2  3  1  0  0  0  0
  2  5  1  0  0  0  0
  3  4  1  0  0  0  0
  3 17  1  0  0  0  0
  5  6  1  0  0  0  0
  7  6  1  1  0  0  0
  7  8  1  0  0  0  0
  7  9  1  0  0  0  0
 10  9  1  6  0  0  0
 10 11  1  0  0  0  0
 10 12  1  0  0  0  0
 11 16  1  0  0  0  0
 12 13  1  1  0  0  0
 12 14  1  0  0  0  0
 14 15  1  1  0  0  0
 14 16  1  0  0  0  0
 16 27  1  6  0  0  0
 18 19  2  0  0  0  0
 18 23  1  0  0  0  0
 19 20  1  0  0  0  0
 20 21  2  0  0  0  0
 21 22  1  0  0  0  0
 21 27  1  0  0  0  0
 22 23  2  0  0  0  0
 22 25  1  0  0  0  0
 23 24  1  0  0  0  0
 25 26  2  0  0  0  0
 26 27  1  0  0  0  0
M  END
>  <CHROM.1>
1.11452530,65.81930231,169.39001938,-71.74405811,35.18269847,67.83543646
68.93052881,-8.32223483,2.18673652,17.64053787,0.59624710,-1.20379641,0.06119154

>  <Name>
ligand

>  <RI>
0

>  <Rbt.Current_Directory>
/home/itssahil/PROJECTS/Mol_Feturizer/New_Systems/rnas/3GX6

>  <Rbt.Executable>
rbdock ($Id: //depot/dev/client3/rdock/2013.1/src/exe/rbdock.cxx#4 $)

>  <Rbt.Library>
libRbt.so (2013.1, Build901 2013/11/27)

>  <Rbt.Parameter_File>
/export/apps/rDock/src/rDock_2013.1_src/data/scripts/dock_solv.prm

>  <Rbt.Receptor>
prm/blind_docking_60.prm

>  <SCORE>
-15.8903

>  <SCORE.INTER>
-8.29167

>  <SCORE.INTER.CONST>
1

>  <SCORE.INTER.POLAR>
0

>  <SCORE.INTER.ROT>
7

>  <SCORE.INTER.SOLV>
7.67229

>  <SCORE.INTER.VDW>
-16.3519

>  <SCORE.INTER.norm>
-0.307099

>  <SCORE.INTRA>
-7.60522

>  <SCORE.INTRA.DIHEDRAL>
-10.2917

>  <SCORE.INTRA.DIHEDRAL.0>
15.0182

>  <SCORE.INTRA.POLAR>
0

>  <SCORE.INTRA.POLAR.0>
0

>  <SCORE.INTRA.REPUL>
0

>  <SCORE.INTRA.REPUL.0>
0

>  <SCORE.INTRA.SOLV>
-0.971799

>  <SCORE.INTRA.SOLV.lig_0>
-47.9129

>  <SCORE.INTRA.VDW>
-1.97348

>  <SCORE.INTRA.VDW.0>
2.00851

>  <SCORE.INTRA.norm>
-0.281675

>  <SCORE.RESTR>
0.00660138

>  <SCORE.RESTR.CAVITY>
0.00660138

>  <SCORE.RESTR.norm>
0.000244496

>  <SCORE.SYSTEM>
0

>  <SCORE.SYSTEM.CONST>
0

>  <SCORE.SYSTEM.DIHEDRAL>
0

>  <SCORE.SYSTEM.SOLV>
0

>  <SCORE.SYSTEM.norm>
0

>  <SCORE.heavy>
27

>  <SCORE.norm>
-0.588529

>  <RMSD>
17.795

$$$$
ligand
 OpenBabel11021811483D
libRbt.so/2013.1/901 2013/11/27
 27 29  0  0  0  0  0  0  0  0999 V2000
   -4.9274    6.3720   21.2179 N   0  0  0  0  0  0  0  0  0  0  0  0
   -6.3364    6.5200   20.8634 C   0  0  2  0  0  0  0  0  0  0  0  0
   -7.0432    7.5391   21.7532 C   0  0  0  0  0  0  0  0  0  0  0  0
   -7.4618    8.6040   21.2937 O   0  0  0  0  0  0  0  0  0  0  0  0
   -7.0490    5.1712   20.8888 C   0  0  0  0  0  0  0  0  0  0  0  0
   -6.3109    4.0854   20.1210 C   0  0  0  0  0  0  0  0  0  0  0  0
   -7.1336    2.4735   20.1601 S   0  0  2  0  0  0  0  0  0  0  0  0
   -5.7799    1.4011   19.6176 C   0  0  0  0  0  0  0  0  0  0  0  0
   -8.1402    2.5636   18.6544 C   0  0  0  0  0  0  0  0  0  0  0  0
   -9.0970    1.3807   18.6158 C   0  0  1  0  0  0  0  0  0  0  0  0
   -9.8275    1.4412   17.4140 O   0  0  0  0  0  0  0  0  0  0  0  0
   -8.4480    0.0095   18.5985 C   0  0  1  0  0  0  0  0  0  0  0  0
   -8.3834   -0.5339   19.8983 O   0  0  0  0  0  0  0  0  0  0  0  0
   -9.3941   -0.8058   17.7406 C   0  0  1  0  0  0  0  0  0  0  0  0
  -10.1307   -1.6608   18.5797 O   0  0  0  0  0  0  0  0  0  0  0  0
  -10.3378    0.1799   17.0651 C   0  0  2  0  0  0  0  0  0  0  0  0
   -7.2046    7.3175   22.9534 O   0  0  0  0  0  0  0  0  0  0  0  0
   -8.3598   -2.6437   13.0789 N   0  0  0  0  0  0  0  0  0  0  0  0
   -8.1964   -2.8524   14.4341 C   0  0  0  0  0  0  0  0  0  0  0  0
   -8.7888   -2.0063   15.3525 N   0  0  0  0  0  0  0  0  0  0  0  0
   -9.5348   -0.9568   14.9331 C   0  0  0  0  0  0  0  0  0  0  0  0
   -9.7174   -0.7361   13.5735 C   0  0  0  0  0  0  0  0  0  0  0  0
   -9.1225   -1.5812   12.6447 C   0  0  0  0  0  0  0  0  0  0  0  0
   -9.2897   -1.3640   11.3424 N   0  0  0  0  0  0  0  0  0  0  0  0
  -10.4985    0.3564   13.4325 N   0  0  0  0  0  0  0  0  0  0  0  0
  -10.8254    0.8170   14.6628 C   0  0  0  0  0  0  0  0  0  0  0  0
  -10.2375    0.0153   15.6052 N   0  0  0  0  0  0  0  0  0  0  0  0
  2  1  1  1  0  0  0
  2  3  1  0  0  0  0
  2  5  1  0  0  0  0
  3  4  1  0  0  0  0
  3 17  1  0  0  0  0
  5  6  1  0  0  0  0
  7  6  1  6  0  0  0
  7  8  1  0  0  0  0
  7  9  1  0  0  0  0
 10  9  1  6  0  0  0
 10 11  1  0  0  0  0
 10 12  1  0  0  0  0
 11 16  1  0  0  0  0
 12 13  1  1  0  0  0
 12 14  1  0  0  0  0
 14 15  1  1  0  0  0
 14 16  1  0  0  0  0
 16 27  1  6  0  0  0
 18 19  2  0  0  0  0
 18 23  1  0  0  0  0
 19 20  1  0  0  0  0
 20 21  2  0  0  0  0
 21 22  1  0  0  0  0
 21 27  1  0  0  0  0
 22 23  2  0  0  0  0
 22 25  1  0  0  0  0
 23 24  1  0  0  0  0
 25 26  2  0  0  0  0
 26 27  1  0  0  0  0
M  END
>  <CHROM.1>
113.19291030,-49.29547594,179.25239278,-163.81890270,-170.77567672,-177.59023837
119.88914486,-8.34261073,1.64119761,17.81790453,0.47531929,-1.27949667,-0.31554414

>  <Name>
ligand

>  <RI>
0

>  <Rbt.Current_Directory>
/home/itssahil/PROJECTS/Mol_Feturizer/New_Systems/rnas/3GX6

>  <Rbt.Executable>
rbdock ($Id: //depot/dev/client3/rdock/2013.1/src/exe/rbdock.cxx#4 $)

>  <Rbt.Library>
libRbt.so (2013.1, Build901 2013/11/27)

>  <Rbt.Parameter_File>
/export/apps/rDock/src/rDock_2013.1_src/data/scripts/dock_solv.prm

>  <Rbt.Receptor>
prm/blind_docking_80.prm

>  <SCORE>
-16.3695

>  <SCORE.INTER>
-8.41534

>  <SCORE.INTER.CONST>
1

>  <SCORE.INTER.POLAR>
0

>  <SCORE.INTER.ROT>
7

>  <SCORE.INTER.SOLV>
13.4174

>  <SCORE.INTER.VDW>
-18.3494

>  <SCORE.INTER.norm>
-0.311679

>  <SCORE.INTRA>
-7.95413

>  <SCORE.INTRA.DIHEDRAL>
-8.99188

>  <SCORE.INTRA.DIHEDRAL.0>
15.0182

>  <SCORE.INTRA.POLAR>
0

>  <SCORE.INTRA.POLAR.0>
0

>  <SCORE.INTRA.REPUL>
0

>  <SCORE.INTRA.REPUL.0>
0

>  <SCORE.INTRA.SOLV>
-0.724772

>  <SCORE.INTRA.SOLV.lig_0>
-47.9129

>  <SCORE.INTRA.VDW>
-3.0958

>  <SCORE.INTRA.VDW.0>
2.00851

>  <SCORE.INTRA.norm>
-0.294597

>  <SCORE.RESTR>
0

>  <SCORE.RESTR.CAVITY>
0

>  <SCORE.RESTR.norm>
0

>  <SCORE.SYSTEM>
0

>  <SCORE.SYSTEM.CONST>
0

>  <SCORE.SYSTEM.DIHEDRAL>
0

>  <SCORE.SYSTEM.SOLV>
0

>  <SCORE.SYSTEM.norm>
0

>  <SCORE.heavy>
27

>  <SCORE.norm>
-0.606276

>  <RMSD>
17.856

$$$$
ligand
 OpenBabel11021811483D
libRbt.so/2013.1/901 2013/11/27
 27 29  0  0  0  0  0  0  0  0999 V2000
   -7.3646    5.0860   13.5183 N   0  0  0  0  0  0  0  0  0  0  0  0
   -6.8047    3.8209   13.0505 C   0  0  2  0  0  0  0  0  0  0  0  0
   -5.6918    4.0344   12.0279 C   0  0  0  0  0  0  0  0  0  0  0  0
   -5.6450    5.0578   11.3418 O   0  0  0  0  0  0  0  0  0  0  0  0
   -7.8990    2.9118   12.4993 C   0  0  0  0  0  0  0  0  0  0  0  0
   -8.9297    2.5088   13.5425 C   0  0  0  0  0  0  0  0  0  0  0  0
   -8.2841    1.3996   14.8188 S   0  0  2  0  0  0  0  0  0  0  0  0
   -8.7565   -0.2055   14.1281 C   0  0  0  0  0  0  0  0  0  0  0  0
   -9.5311    1.6073   16.1190 C   0  0  0  0  0  0  0  0  0  0  0  0
   -9.1178    0.8083   17.3466 C   0  0  1  0  0  0  0  0  0  0  0  0
   -7.9102    1.3414   17.8359 O   0  0  0  0  0  0  0  0  0  0  0  0
  -10.0694    0.8751   18.5264 C   0  0  1  0  0  0  0  0  0  0  0  0
  -10.9430   -0.2319   18.5324 O   0  0  0  0  0  0  0  0  0  0  0  0
   -9.1388    0.8095   19.7204 C   0  0  1  0  0  0  0  0  0  0  0  0
   -9.2363   -0.4724   20.2905 O   0  0  0  0  0  0  0  0  0  0  0  0
   -7.7270    1.0244   19.1920 C   0  0  2  0  0  0  0  0  0  0  0  0
   -4.8188    3.1817   11.8650 O   0  0  0  0  0  0  0  0  0  0  0  0
   -7.4492    6.2778   19.5074 N   0  0  0  0  0  0  0  0  0  0  0  0
   -8.2075    5.5153   18.6411 C   0  0  0  0  0  0  0  0  0  0  0  0
   -8.1594    4.1350   18.6927 N   0  0  0  0  0  0  0  0  0  0  0  0
   -7.3622    3.5121   19.5929 C   0  0  0  0  0  0  0  0  0  0  0  0
   -6.5986    4.2628   20.4782 C   0  0  0  0  0  0  0  0  0  0  0  0
   -6.6401    5.6509   20.4301 C   0  0  0  0  0  0  0  0  0  0  0  0
   -5.9014    6.3698   21.2718 N   0  0  0  0  0  0  0  0  0  0  0  0
   -5.9108    3.4051   21.2624 N   0  0  0  0  0  0  0  0  0  0  0  0
   -6.2334    2.1393   20.9069 C   0  0  0  0  0  0  0  0  0  0  0  0
   -7.1321    2.1860   19.8740 N   0  0  0  0  0  0  0  0  0  0  0  0
  2  1  1  6  0  0  0
  2  3  1  0  0  0  0
  2  5  1  0  0  0  0
  3  4  1  0  0  0  0
  3 17  1  0  0  0  0
  5  6  1  0  0  0  0
  7  6  1  6  0  0  0
  7  8  1  0  0  0  0
  7  9  1  0  0  0  0
 10  9  1  6  0  0  0
 10 11  1  0  0  0  0
 10 12  1  0  0  0  0
 11 16  1  0  0  0  0
 12 13  1  6  0  0  0
 12 14  1  0  0  0  0
 14 15  1  6  0  0  0
 14 16  1  0  0  0  0
 16 27  1  1  0  0  0
 18 19  2  0  0  0  0
 18 23  1  0  0  0  0
 19 20  1  0  0  0  0
 20 21  2  0  0  0  0
 21 22  1  0  0  0  0
 21 27  1  0  0  0  0
 22 23  2  0  0  0  0
 22 25  1  0  0  0  0
 23 24  1  0  0  0  0
 25 26  2  0  0  0  0
 26 27  1  0  0  0  0
M  END
>  <CHROM.1>
-25.19595313,-62.85129406,-68.66043210,-94.89538495,-176.32059491,63.36170860
33.90693458,-7.73146321,2.72608217,17.02193861,-1.37795335,1.00784661,1.45942743

>  <Name>
ligand

>  <RI>
0

>  <Rbt.Current_Directory>
/home/itssahil/PROJECTS/Mol_Feturizer/New_Systems/rnas/3GX6

>  <Rbt.Executable>
rbdock ($Id: //depot/dev/client3/rdock/2013.1/src/exe/rbdock.cxx#4 $)

>  <Rbt.Library>
libRbt.so (2013.1, Build901 2013/11/27)

>  <Rbt.Parameter_File>
/export/apps/rDock/src/rDock_2013.1_src/data/scripts/dock_solv.prm

>  <Rbt.Receptor>
prm/blind_docking_60.prm

>  <SCORE>
-17.6445

>  <SCORE.INTER>
-7.60206

>  <SCORE.INTER.CONST>
1

>  <SCORE.INTER.POLAR>
0

>  <SCORE.INTER.ROT>
7

>  <SCORE.INTER.SOLV>
13.0624

>  <SCORE.INTER.VDW>
-17.6888

>  <SCORE.INTER.norm>
-0.281558

>  <SCORE.INTRA>
-10.0424

>  <SCORE.INTRA.DIHEDRAL>
-9.22027

>  <SCORE.INTRA.DIHEDRAL.0>
15.0182

>  <SCORE.INTRA.POLAR>
0

>  <SCORE.INTRA.POLAR.0>
0

>  <SCORE.INTRA.REPUL>
0

>  <SCORE.INTRA.REPUL.0>
0

>  <SCORE.INTRA.SOLV>
-0.654193

>  <SCORE.INTRA.SOLV.lig_0>
-47.9129

>  <SCORE.INTRA.VDW>
-5.10516

>  <SCORE.INTRA.VDW.0>
2.00851

>  <SCORE.INTRA.norm>
-0.37194

>  <SCORE.RESTR>
0

>  <SCORE.RESTR.CAVITY>
0

>  <SCORE.RESTR.norm>
0

>  <SCORE.SYSTEM>
0

>  <SCORE.SYSTEM.CONST>
0

>  <SCORE.SYSTEM.DIHEDRAL>
0

>  <SCORE.SYSTEM.SOLV>
0

>  <SCORE.SYSTEM.norm>
0

>  <SCORE.heavy>
27

>  <SCORE.norm>
-0.653498

>  <RMSD>
17.860

$$$$
ligand
 OpenBabel11021811483D
libRbt.so/2013.1/901 2013/11/27
 27 29  0  0  0  0  0  0  0  0999 V2000
   -6.9815   -4.7261    9.9457 N   0  0  0  0  0  0  0  0  0  0  0  0
   -7.1749   -4.8810   11.3850 C   0  0  2  0  0  0  0  0  0  0  0  0
   -7.4656   -6.3298   11.7676 C   0  0  0  0  0  0  0  0  0  0  0  0
   -7.2789   -6.7347   12.9172 O   0  0  0  0  0  0  0  0  0  0  0  0
   -8.2659   -3.9427   11.8920 C   0  0  0  0  0  0  0  0  0  0  0  0
   -8.0251   -2.4860   11.5271 C   0  0  0  0  0  0  0  0  0  0  0  0
   -9.2194   -1.3407   12.2608 S   0  0  2  0  0  0  0  0  0  0  0  0
   -8.5298    0.2432   11.7204 C   0  0  0  0  0  0  0  0  0  0  0  0
   -8.7072   -1.3759   14.0000 C   0  0  0  0  0  0  0  0  0  0  0  0
   -9.4391   -0.2815   14.7636 C   0  0  1  0  0  0  0  0  0  0  0  0
   -9.7991   -0.7879   16.0268 O   0  0  0  0  0  0  0  0  0  0  0  0
   -8.6273    0.9632   15.0695 C   0  0  1  0  0  0  0  0  0  0  0  0
   -8.8594    1.9658   14.1053 O   0  0  0  0  0  0  0  0  0  0  0  0
   -9.1674    1.4015   16.4156 C   0  0  1  0  0  0  0  0  0  0  0  0
   -9.9854    2.5288   16.2211 O   0  0  0  0  0  0  0  0  0  0  0  0
  -10.0083    0.2499   16.9499 C   0  0  2  0  0  0  0  0  0  0  0  0
   -7.8891   -7.1261   10.9296 O   0  0  0  0  0  0  0  0  0  0  0  0
   -5.7928   -1.3434   19.6824 N   0  0  0  0  0  0  0  0  0  0  0  0
   -5.8681   -1.0256   18.3406 C   0  0  0  0  0  0  0  0  0  0  0  0
   -7.0653   -0.6238   17.7790 N   0  0  0  0  0  0  0  0  0  0  0  0
   -8.1831   -0.5412   18.5390 C   0  0  0  0  0  0  0  0  0  0  0  0
   -8.1247   -0.8487   19.8927 C   0  0  0  0  0  0  0  0  0  0  0  0
   -6.9249   -1.2559   20.4633 C   0  0  0  0  0  0  0  0  0  0  0  0
   -6.8713   -1.5596   21.7579 N   0  0  0  0  0  0  0  0  0  0  0  0
   -9.3604   -0.6782   20.4100 N   0  0  0  0  0  0  0  0  0  0  0  0
  -10.1878   -0.2563   19.4251 C   0  0  0  0  0  0  0  0  0  0  0  0
   -9.4755   -0.1652   18.2585 N   0  0  0  0  0  0  0  0  0  0  0  0
  2  1  1  6  0  0  0
  2  3  1  0  0  0  0
  2  5  1  0  0  0  0
  3  4  1  0  0  0  0
  3 17  1  0  0  0  0
  5  6  1  0  0  0  0
  7  6  1  6  0  0  0
  7  8  1  0  0  0  0
  7  9  1  0  0  0  0
 10  9  1  1  0  0  0
 10 11  1  0  0  0  0
 10 12  1  0  0  0  0
 11 16  1  0  0  0  0
 12 13  1  6  0  0  0
 12 14  1  0  0  0  0
 14 15  1  6  0  0  0
 14 16  1  0  0  0  0
 16 27  1  1  0  0  0
 18 19  2  0  0  0  0
 18 23  1  0  0  0  0
 19 20  1  0  0  0  0
 20 21  2  0  0  0  0
 21 22  1  0  0  0  0
 21 27  1  0  0  0  0
 22 23  2  0  0  0  0
 22 25  1  0  0  0  0
 23 24  1  0  0  0  0
 25 26  2  0  0  0  0
 26 27  1  0  0  0  0
M  END
>  <CHROM.1>
158.85130077,-54.31177158,-174.19189659,175.56827942,170.14501534,140.50103161
58.11797069,-8.33360170,-1.52430145,15.37257856,-1.45452244,-1.15943719,1.16986273

>  <Name>
ligand

>  <RI>
0

>  <Rbt.Current_Directory>
/home/itssahil/PROJECTS/Mol_Feturizer/New_Systems/rnas/3GX6

>  <Rbt.Executable>
rbdock ($Id: //depot/dev/client3/rdock/2013.1/src/exe/rbdock.cxx#4 $)

>  <Rbt.Library>
libRbt.so (2013.1, Build901 2013/11/27)

>  <Rbt.Parameter_File>
/export/apps/rDock/src/rDock_2013.1_src/data/scripts/dock_solv.prm

>  <Rbt.Receptor>
prm/blind_docking_100.prm

>  <SCORE>
-17.875

>  <SCORE.INTER>
-9.39656

>  <SCORE.INTER.CONST>
1

>  <SCORE.INTER.POLAR>
0

>  <SCORE.INTER.ROT>
7

>  <SCORE.INTER.SOLV>
13.6973

>  <SCORE.INTER.VDW>
-19.0968

>  <SCORE.INTER.norm>
-0.348021

>  <SCORE.INTRA>
-8.47843

>  <SCORE.INTRA.DIHEDRAL>
-7.68684

>  <SCORE.INTRA.DIHEDRAL.0>
15.0182

>  <SCORE.INTRA.POLAR>
0

>  <SCORE.INTRA.POLAR.0>
0

>  <SCORE.INTRA.REPUL>
0

>  <SCORE.INTRA.REPUL.0>
0

>  <SCORE.INTRA.SOLV>
-0.828561

>  <SCORE.INTRA.SOLV.lig_0>
-47.9129

>  <SCORE.INTRA.VDW>
-4.22073

>  <SCORE.INTRA.VDW.0>
2.00851

>  <SCORE.INTRA.norm>
-0.314016

>  <SCORE.RESTR>
0

>  <SCORE.RESTR.CAVITY>
0

>  <SCORE.RESTR.norm>
0

>  <SCORE.SYSTEM>
0

>  <SCORE.SYSTEM.CONST>
0

>  <SCORE.SYSTEM.DIHEDRAL>
0

>  <SCORE.SYSTEM.SOLV>
0

>  <SCORE.SYSTEM.norm>
0

>  <SCORE.heavy>
27

>  <SCORE.norm>
-0.662037

>  <RMSD>
17.870

$$$$
ligand
 OpenBabel11021811483D
libRbt.so/2013.1/901 2013/11/27
 27 29  0  0  0  0  0  0  0  0999 V2000
   -7.3462   -4.8745   16.3356 N   0  0  0  0  0  0  0  0  0  0  0  0
   -8.5828   -4.7087   15.5765 C   0  0  2  0  0  0  0  0  0  0  0  0
   -9.2445   -6.0488   15.2664 C   0  0  0  0  0  0  0  0  0  0  0  0
   -8.5757   -7.0227   14.9133 O   0  0  0  0  0  0  0  0  0  0  0  0
   -8.3370   -3.9027   14.3046 C   0  0  0  0  0  0  0  0  0  0  0  0
   -9.5996   -3.6589   13.4924 C   0  0  0  0  0  0  0  0  0  0  0  0
   -9.3044   -2.8246   11.9135 S   0  0  2  0  0  0  0  0  0  0  0  0
   -8.0148   -3.8869   11.2171 C   0  0  0  0  0  0  0  0  0  0  0  0
   -8.3310   -1.3940   12.4561 C   0  0  0  0  0  0  0  0  0  0  0  0
   -9.2695   -0.3077   12.9616 C   0  0  1  0  0  0  0  0  0  0  0  0
   -9.8379   -0.7425   14.1738 O   0  0  0  0  0  0  0  0  0  0  0  0
   -8.6176    1.0196   13.3009 C   0  0  1  0  0  0  0  0  0  0  0  0
   -8.7201    1.9218   12.2218 O   0  0  0  0  0  0  0  0  0  0  0  0
   -9.4406    1.5150   14.4727 C   0  0  1  0  0  0  0  0  0  0  0  0
  -10.2763    2.5527   14.0224 O   0  0  0  0  0  0  0  0  0  0  0  0
  -10.2930    0.3431   14.9402 C   0  0  2  0  0  0  0  0  0  0  0  0
  -10.4650   -6.1810   15.3586 O   0  0  0  0  0  0  0  0  0  0  0  0
   -6.6764   -1.0665   18.5052 N   0  0  0  0  0  0  0  0  0  0  0  0
   -6.5164   -0.9198   17.1414 C   0  0  0  0  0  0  0  0  0  0  0  0
   -7.5810   -0.5423   16.3449 N   0  0  0  0  0  0  0  0  0  0  0  0
   -8.7983   -0.3158   16.8933 C   0  0  0  0  0  0  0  0  0  0  0  0
   -8.9762   -0.4501   18.2647 C   0  0  0  0  0  0  0  0  0  0  0  0
   -7.9108   -0.8319   19.0710 C   0  0  0  0  0  0  0  0  0  0  0  0
   -8.0838   -0.9698   20.3834 N   0  0  0  0  0  0  0  0  0  0  0  0
  -10.2654   -0.1624   18.5454 N   0  0  0  0  0  0  0  0  0  0  0  0
  -10.8968    0.1652   17.3935 C   0  0  0  0  0  0  0  0  0  0  0  0
  -10.0031    0.0762   16.3591 N   0  0  0  0  0  0  0  0  0  0  0  0
  2  1  1  6  0  0  0
  2  3  1  0  0  0  0
  2  5  1  0  0  0  0
  3  4  1  0  0  0  0
  3 17  1  0  0  0  0
  5  6  1  0  0  0  0
  7  6  1  1  0  0  0
  7  8  1  0  0  0  0
  7  9  1  0  0  0  0
 10  9  1  1  0  0  0
 10 11  1  0  0  0  0
 10 12  1  0  0  0  0
 11 16  1  0  0  0  0
 12 13  1  6  0  0  0
 12 14  1  0  0  0  0
 14 15  1  6  0  0  0
 14 16  1  0  0  0  0
 16 27  1  1  0  0  0
 18 19  2  0  0  0  0
 18 23  1  0  0  0  0
 19 20  1  0  0  0  0
 20 21  2  0  0  0  0
 21 22  1  0  0  0  0
 21 27  1  0  0  0  0
 22 23  2  0  0  0  0
 22 25  1  0  0  0  0
 23 24  1  0  0  0  0
 25 26  2  0  0  0  0
 26 27  1  0  0  0  0
M  END
>  <CHROM.1>
-41.75322169,-178.17911612,-175.17585964,52.03716293,-82.29041628,69.95821990
50.26374966,-8.92262151,-1.69199581,15.15136412,-1.39632119,-1.42266313,0.64529497

>  <Name>
ligand

>  <RI>
0

>  <Rbt.Current_Directory>
/home/itssahil/PROJECTS/Mol_Feturizer/New_Systems/rnas/3GX6

>  <Rbt.Executable>
rbdock ($Id: //depot/dev/client3/rdock/2013.1/src/exe/rbdock.cxx#4 $)

>  <Rbt.Library>
libRbt.so (2013.1, Build901 2013/11/27)

>  <Rbt.Parameter_File>
/export/apps/rDock/src/rDock_2013.1_src/data/scripts/dock_solv.prm

>  <Rbt.Receptor>
prm/blind_docking_80.prm

>  <SCORE>
-20.389

>  <SCORE.INTER>
-9.69844

>  <SCORE.INTER.CONST>
1

>  <SCORE.INTER.POLAR>
0

>  <SCORE.INTER.ROT>
7

>  <SCORE.INTER.SOLV>
9.31928

>  <SCORE.INTER.VDW>
-17.8387

>  <SCORE.INTER.norm>
-0.359201

>  <SCORE.INTRA>
-10.6906

>  <SCORE.INTRA.DIHEDRAL>
-10.8329

>  <SCORE.INTRA.DIHEDRAL.0>
15.0182

>  <SCORE.INTRA.POLAR>
0

>  <SCORE.INTRA.POLAR.0>
0

>  <SCORE.INTRA.REPUL>
0

>  <SCORE.INTRA.REPUL.0>
0

>  <SCORE.INTRA.SOLV>
-1.67063

>  <SCORE.INTRA.SOLV.lig_0>
-47.9129

>  <SCORE.INTRA.VDW>
-4.43881

>  <SCORE.INTRA.VDW.0>
2.00851

>  <SCORE.INTRA.norm>
-0.395948

>  <SCORE.RESTR>
0

>  <SCORE.RESTR.CAVITY>
0

>  <SCORE.RESTR.norm>
0

>  <SCORE.SYSTEM>
0

>  <SCORE.SYSTEM.CONST>
0

>  <SCORE.SYSTEM.DIHEDRAL>
0

>  <SCORE.SYSTEM.SOLV>
0

>  <SCORE.SYSTEM.norm>
0

>  <SCORE.heavy>
27

>  <SCORE.norm>
-0.755149

>  <RMSD>
17.884

$$$$
ligand
 OpenBabel11021811483D
libRbt.so/2013.1/901 2013/11/27
 27 29  0  0  0  0  0  0  0  0999 V2000
   -6.9744   -6.3984   11.4689 N   0  0  0  0  0  0  0  0  0  0  0  0
   -6.6802   -6.6894   12.8695 C   0  0  2  0  0  0  0  0  0  0  0  0
   -7.6456   -7.7182   13.4521 C   0  0  0  0  0  0  0  0  0  0  0  0
   -8.2841   -7.4819   14.4801 O   0  0  0  0  0  0  0  0  0  0  0  0
   -6.6644   -5.4095   13.6999 C   0  0  0  0  0  0  0  0  0  0  0  0
   -6.1171   -5.6095   15.1047 C   0  0  0  0  0  0  0  0  0  0  0  0
   -5.7713   -4.0646   15.9823 S   0  0  2  0  0  0  0  0  0  0  0  0
   -5.2141   -4.7116   17.5783 C   0  0  0  0  0  0  0  0  0  0  0  0
   -7.4511   -3.5156   16.3888 C   0  0  0  0  0  0  0  0  0  0  0  0
   -7.3832   -2.4289   17.4521 C   0  0  1  0  0  0  0  0  0  0  0  0
   -6.6265   -1.3570   16.9421 O   0  0  0  0  0  0  0  0  0  0  0  0
   -8.7105   -1.8064   17.8427 C   0  0  1  0  0  0  0  0  0  0  0  0
   -9.2328   -2.4185   19.0008 O   0  0  0  0  0  0  0  0  0  0  0  0
   -8.3395   -0.3672   18.1377 C   0  0  1  0  0  0  0  0  0  0  0  0
   -8.3541   -0.1807   19.5315 O   0  0  0  0  0  0  0  0  0  0  0  0
   -6.9256   -0.1593   17.6121 C   0  0  2  0  0  0  0  0  0  0  0  0
   -7.8013   -8.8106   12.9062 O   0  0  0  0  0  0  0  0  0  0  0  0
   -8.6167    1.5462   12.9210 N   0  0  0  0  0  0  0  0  0  0  0  0
   -8.8620    0.3282   13.5237 C   0  0  0  0  0  0  0  0  0  0  0  0
   -8.3341    0.0402   14.7681 N   0  0  0  0  0  0  0  0  0  0  0  0
   -7.5639    0.9498   15.4110 C   0  0  0  0  0  0  0  0  0  0  0  0
   -7.3133    2.1840   14.8239 C   0  0  0  0  0  0  0  0  0  0  0  0
   -7.8388    2.4791   13.5718 C   0  0  0  0  0  0  0  0  0  0  0  0
   -7.5907    3.6576   13.0055 N   0  0  0  0  0  0  0  0  0  0  0  0
   -6.5357    2.8944   15.6689 N   0  0  0  0  0  0  0  0  0  0  0  0
   -6.3055    2.1496   16.7757 C   0  0  0  0  0  0  0  0  0  0  0  0
   -6.9354    0.9413   16.6338 N   0  0  0  0  0  0  0  0  0  0  0  0
  2  1  1  6  0  0  0
  2  3  1  0  0  0  0
  2  5  1  0  0  0  0
  3  4  1  0  0  0  0
  3 17  1  0  0  0  0
  5  6  1  0  0  0  0
  7  6  1  6  0  0  0
  7  8  1  0  0  0  0
  7  9  1  0  0  0  0
 10  9  1  6  0  0  0
 10 11  1  0  0  0  0
 10 12  1  0  0  0  0
 11 16  1  0  0  0  0
 12 13  1  1  0  0  0
 12 14  1  0  0  0  0
 14 15  1  1  0  0  0
 14 16  1  0  0  0  0
 16 27  1  6  0  0  0
 18 19  2  0  0  0  0
 18 23  1  0  0  0  0
 19 20  1  0  0  0  0
 20 21  2  0  0  0  0
 21 22  1  0  0  0  0
 21 27  1  0  0  0  0
 22 23  2  0  0  0  0
 22 25  1  0  0  0  0
 23 24  1  0  0  0  0
 25 26  2  0  0  0  0
 26 27  1  0  0  0  0
M  END
>  <CHROM.1>
-125.77526415,-169.42393242,168.06438615,178.09183236,164.75617146,59.62432403
47.31108599,-7.33702685,-2.14164871,15.53268747,0.48441796,1.50330678,-1.85471467

>  <Name>
ligand

>  <RI>
0

>  <Rbt.Current_Directory>
/home/itssahil/PROJECTS/Mol_Feturizer/New_Systems/rnas/3GX6

>  <Rbt.Executable>
rbdock ($Id: //depot/dev/client3/rdock/2013.1/src/exe/rbdock.cxx#4 $)

>  <Rbt.Library>
libRbt.so (2013.1, Build901 2013/11/27)

>  <Rbt.Parameter_File>
/export/apps/rDock/src/rDock_2013.1_src/data/scripts/dock_solv.prm

>  <Rbt.Receptor>
prm/blind_docking_80.prm

>  <SCORE>
-18.9513

>  <SCORE.INTER>
-9.06674

>  <SCORE.INTER.CONST>
1

>  <SCORE.INTER.POLAR>
0

>  <SCORE.INTER.ROT>
7

>  <SCORE.INTER.SOLV>
10.7928

>  <SCORE.INTER.VDW>
-17.9087

>  <SCORE.INTER.norm>
-0.335805

>  <SCORE.INTRA>
-9.88458

>  <SCORE.INTRA.DIHEDRAL>
-10.6516

>  <SCORE.INTRA.DIHEDRAL.0>
15.0182

>  <SCORE.INTRA.POLAR>
0

>  <SCORE.INTRA.POLAR.0>
0

>  <SCORE.INTRA.REPUL>
0

>  <SCORE.INTRA.REPUL.0>
0

>  <SCORE.INTRA.SOLV>
-1.77985

>  <SCORE.INTRA.SOLV.lig_0>
-47.9129

>  <SCORE.INTRA.VDW>
-3.66884

>  <SCORE.INTRA.VDW.0>
2.00851

>  <SCORE.INTRA.norm>
-0.366096

>  <SCORE.RESTR>
0

>  <SCORE.RESTR.CAVITY>
0

>  <SCORE.RESTR.norm>
0

>  <SCORE.SYSTEM>
0

>  <SCORE.SYSTEM.CONST>
0

>  <SCORE.SYSTEM.DIHEDRAL>
0

>  <SCORE.SYSTEM.SOLV>
0

>  <SCORE.SYSTEM.norm>
0

>  <SCORE.heavy>
27

>  <SCORE.norm>
-0.701901

>  <RMSD>
17.907

$$$$
ligand
 OpenBabel11021811483D
libRbt.so/2013.1/901 2013/11/27
 27 29  0  0  0  0  0  0  0  0999 V2000
   -7.1145   -4.8194   18.3762 N   0  0  0  0  0  0  0  0  0  0  0  0
   -8.4687   -4.2733   18.4031 C   0  0  2  0  0  0  0  0  0  0  0  0
   -9.4453   -5.1333   17.6052 C   0  0  0  0  0  0  0  0  0  0  0  0
  -10.5995   -5.3176   17.9980 O   0  0  0  0  0  0  0  0  0  0  0  0
   -8.4818   -2.8255   17.9218 C   0  0  0  0  0  0  0  0  0  0  0  0
   -7.6369   -1.8974   18.7808 C   0  0  0  0  0  0  0  0  0  0  0  0
   -7.3775   -0.2606   18.0530 S   0  0  2  0  0  0  0  0  0  0  0  0
   -6.2425    0.4610   19.2645 C   0  0  0  0  0  0  0  0  0  0  0  0
   -8.9333    0.5618   18.4904 C   0  0  0  0  0  0  0  0  0  0  0  0
   -8.8843    2.0117   18.0303 C   0  0  1  0  0  0  0  0  0  0  0  0
   -8.8927    2.0301   16.6228 O   0  0  0  0  0  0  0  0  0  0  0  0
  -10.0703    2.8694   18.4297 C   0  0  1  0  0  0  0  0  0  0  0  0
   -9.7921    3.5987   19.6041 O   0  0  0  0  0  0  0  0  0  0  0  0
  -10.2203    3.8139   17.2544 C   0  0  1  0  0  0  0  0  0  0  0  0
   -9.7475    5.0813   17.6391 O   0  0  0  0  0  0  0  0  0  0  0  0
   -9.3484    3.2653   16.1331 C   0  0  2  0  0  0  0  0  0  0  0  0
   -9.0949   -5.6657   16.5519 O   0  0  0  0  0  0  0  0  0  0  0  0
  -12.5778    5.3514   12.5284 N   0  0  0  0  0  0  0  0  0  0  0  0
  -11.9385    5.9916   13.5717 C   0  0  0  0  0  0  0  0  0  0  0  0
  -11.1203    5.2865   14.4340 N   0  0  0  0  0  0  0  0  0  0  0  0
  -10.9390    3.9547   14.2685 C   0  0  0  0  0  0  0  0  0  0  0  0
  -11.5673    3.2952   13.2193 C   0  0  0  0  0  0  0  0  0  0  0  0
  -12.3934    3.9975   12.3502 C   0  0  0  0  0  0  0  0  0  0  0  0
  -13.0026    3.3638   11.3510 N   0  0  0  0  0  0  0  0  0  0  0  0
  -11.2151    1.9929   13.2784 N   0  0  0  0  0  0  0  0  0  0  0  0
  -10.3712    1.8193   14.3226 C   0  0  0  0  0  0  0  0  0  0  0  0
  -10.1881    3.0245   14.9477 N   0  0  0  0  0  0  0  0  0  0  0  0
  2  1  1  6  0  0  0
  2  3  1  0  0  0  0
  2  5  1  0  0  0  0
  3  4  1  0  0  0  0
  3 17  1  0  0  0  0
  5  6  1  0  0  0  0
  7  6  1  1  0  0  0
  7  8  1  0  0  0  0
  7  9  1  0  0  0  0
 10  9  1  6  0  0  0
 10 11  1  0  0  0  0
 10 12  1  0  0  0  0
 11 16  1  0  0  0  0
 12 13  1  1  0  0  0
 12 14  1  0  0  0  0
 14 15  1  1  0  0  0
 14 16  1  0  0  0  0
 16 27  1  6  0  0  0
 18 19  2  0  0  0  0
 18 23  1  0  0  0  0
 19 20  1  0  0  0  0
 20 21  2  0  0  0  0
 21 22  1  0  0  0  0
 21 27  1  0  0  0  0
 22 23  2  0  0  0  0
 22 25  1  0  0  0  0
 23 24  1  0  0  0  0
 25 26  2  0  0  0  0
 26 27  1  0  0  0  0
M  END
>  <CHROM.1>
141.91460143,-60.84169390,168.71126214,-175.21144503,176.62899683,68.07612630
172.29932849,-9.67701564,1.02993777,16.44711374,0.92291374,1.00138605,-3.05526844

>  <Name>
ligand

>  <RI>
0

>  <Rbt.Current_Directory>
/home/itssahil/PROJECTS/Mol_Feturizer/New_Systems/rnas/3GX6

>  <Rbt.Executable>
rbdock ($Id: //depot/dev/client3/rdock/2013.1/src/exe/rbdock.cxx#4 $)

>  <Rbt.Library>
libRbt.so (2013.1, Build901 2013/11/27)

>  <Rbt.Parameter_File>
/export/apps/rDock/src/rDock_2013.1_src/data/scripts/dock_solv.prm

>  <Rbt.Receptor>
prm/blind_docking_100.prm

>  <SCORE>
-19.2329

>  <SCORE.INTER>
-9.08413

>  <SCORE.INTER.CONST>
1

>  <SCORE.INTER.POLAR>
0

>  <SCORE.INTER.ROT>
7

>  <SCORE.INTER.SOLV>
9.61487

>  <SCORE.INTER.VDW>
-17.5277

>  <SCORE.INTER.norm>
-0.336449

>  <SCORE.INTRA>
-10.1488

>  <SCORE.INTRA.DIHEDRAL>
-10.5482

>  <SCORE.INTRA.DIHEDRAL.0>
15.0182

>  <SCORE.INTRA.POLAR>
0

>  <SCORE.INTRA.POLAR.0>
0

>  <SCORE.INTRA.REPUL>
0

>  <SCORE.INTRA.REPUL.0>
0

>  <SCORE.INTRA.SOLV>
-1.11794

>  <SCORE.INTRA.SOLV.lig_0>
-47.9129

>  <SCORE.INTRA.VDW>
-4.31574

>  <SCORE.INTRA.VDW.0>
2.00851

>  <SCORE.INTRA.norm>
-0.375881

>  <SCORE.RESTR>
0

>  <SCORE.RESTR.CAVITY>
0

>  <SCORE.RESTR.norm>
0

>  <SCORE.SYSTEM>
0

>  <SCORE.SYSTEM.CONST>
0

>  <SCORE.SYSTEM.DIHEDRAL>
0

>  <SCORE.SYSTEM.SOLV>
0

>  <SCORE.SYSTEM.norm>
0

>  <SCORE.heavy>
27

>  <SCORE.norm>
-0.712331

>  <RMSD>
17.909

$$$$
ligand
 OpenBabel11021811483D
libRbt.so/2013.1/901 2013/11/27
 27 29  0  0  0  0  0  0  0  0999 V2000
  -10.9442    4.7197   18.9316 N   0  0  0  0  0  0  0  0  0  0  0  0
   -9.7648    4.2997   18.1795 C   0  0  2  0  0  0  0  0  0  0  0  0
   -9.5631    5.1400   16.9213 C   0  0  0  0  0  0  0  0  0  0  0  0
  -10.4183    5.9470   16.5505 O   0  0  0  0  0  0  0  0  0  0  0  0
   -9.8311    2.8116   17.8493 C   0  0  0  0  0  0  0  0  0  0  0  0
   -9.7543    1.9179   19.0775 C   0  0  0  0  0  0  0  0  0  0  0  0
   -9.6799    0.1507   18.6932 S   0  0  2  0  0  0  0  0  0  0  0  0
   -9.3890   -0.5321   20.3442 C   0  0  0  0  0  0  0  0  0  0  0  0
   -8.0255    0.0264   17.9612 C   0  0  0  0  0  0  0  0  0  0  0  0
   -7.6016   -1.4347   17.9177 C   0  0  1  0  0  0  0  0  0  0  0  0
   -8.4972   -2.1310   17.0842 O   0  0  0  0  0  0  0  0  0  0  0  0
   -6.2344   -1.7058   17.3184 C   0  0  1  0  0  0  0  0  0  0  0  0
   -5.2547   -1.8148   18.3270 O   0  0  0  0  0  0  0  0  0  0  0  0
   -6.4220   -3.0420   16.6292 C   0  0  1  0  0  0  0  0  0  0  0  0
   -5.7843   -4.0324   17.3976 O   0  0  0  0  0  0  0  0  0  0  0  0
   -7.9199   -3.3134   16.5928 C   0  0  2  0  0  0  0  0  0  0  0  0
   -8.5395    5.0229   16.2473 O   0  0  0  0  0  0  0  0  0  0  0  0
   -9.1070   -1.0012   12.0081 N   0  0  0  0  0  0  0  0  0  0  0  0
   -8.7223   -0.4007   13.1906 C   0  0  0  0  0  0  0  0  0  0  0  0
   -8.4481   -1.1635   14.3101 N   0  0  0  0  0  0  0  0  0  0  0  0
   -8.5583   -2.5123   14.2619 C   0  0  0  0  0  0  0  0  0  0  0  0
   -8.9359   -3.1347   13.0784 C   0  0  0  0  0  0  0  0  0  0  0  0
   -9.2156   -2.3738   11.9499 C   0  0  0  0  0  0  0  0  0  0  0  0
   -9.5864   -2.9695   10.8190 N   0  0  0  0  0  0  0  0  0  0  0  0
   -8.9600   -4.4665   13.3002 N   0  0  0  0  0  0  0  0  0  0  0  0
   -8.5922   -4.6990   14.5821 C   0  0  0  0  0  0  0  0  0  0  0  0
   -8.3389   -3.4995   15.1934 N   0  0  0  0  0  0  0  0  0  0  0  0
  2  1  1  6  0  0  0
  2  3  1  0  0  0  0
  2  5  1  0  0  0  0
  3  4  1  0  0  0  0
  3 17  1  0  0  0  0
  5  6  1  0  0  0  0
  7  6  1  1  0  0  0
  7  8  1  0  0  0  0
  7  9  1  0  0  0  0
 10  9  1  6  0  0  0
 10 11  1  0  0  0  0
 10 12  1  0  0  0  0
 11 16  1  0  0  0  0
 12 13  1  1  0  0  0
 12 14  1  0  0  0  0
 14 15  1  1  0  0  0
 14 16  1  0  0  0  0
 16 27  1  6  0  0  0
 18 19  2  0  0  0  0
 18 23  1  0  0  0  0
 19 20  1  0  0  0  0
 20 21  2  0  0  0  0
 21 22  1  0  0  0  0
 21 27  1  0  0  0  0
 22 23  2  0  0  0  0
 22 25  1  0  0  0  0
 23 24  1  0  0  0  0
 25 26  2  0  0  0  0
 26 27  1  0  0  0  0
M  END
>  <CHROM.1>
-8.32944023,-66.09896183,-174.73883028,173.14972573,164.31801156,62.62757154
34.42455701,-8.62773739,-0.43415319,16.30704758,2.08077198,-1.15426583,0.95213188

>  <Name>
ligand

>  <RI>
0

>  <Rbt.Current_Directory>
/home/itssahil/PROJECTS/Mol_Feturizer/New_Systems/rnas/3GX6

>  <Rbt.Executable>
rbdock ($Id: //depot/dev/client3/rdock/2013.1/src/exe/rbdock.cxx#4 $)

>  <Rbt.Library>
libRbt.so (2013.1, Build901 2013/11/27)

>  <Rbt.Parameter_File>
/export/apps/rDock/src/rDock_2013.1_src/data/scripts/dock_solv.prm

>  <Rbt.Receptor>
prm/blind_docking_40.prm

>  <SCORE>
-18.6441

>  <SCORE.INTER>
-8.00689

>  <SCORE.INTER.CONST>
1

>  <SCORE.INTER.POLAR>
0

>  <SCORE.INTER.ROT>
7

>  <SCORE.INTER.SOLV>
15.1625

>  <SCORE.INTER.VDW>
-18.6588

>  <SCORE.INTER.norm>
-0.296552

>  <SCORE.INTRA>
-10.6372

>  <SCORE.INTRA.DIHEDRAL>
-11.3704

>  <SCORE.INTRA.DIHEDRAL.0>
15.0182

>  <SCORE.INTRA.POLAR>
0

>  <SCORE.INTRA.POLAR.0>
0

>  <SCORE.INTRA.REPUL>
0

>  <SCORE.INTRA.REPUL.0>
0

>  <SCORE.INTRA.SOLV>
-1.13943

>  <SCORE.INTRA.SOLV.lig_0>
-47.9129

>  <SCORE.INTRA.VDW>
-4.38224

>  <SCORE.INTRA.VDW.0>
2.00851

>  <SCORE.INTRA.norm>
-0.393969

>  <SCORE.RESTR>
0

>  <SCORE.RESTR.CAVITY>
0

>  <SCORE.RESTR.norm>
0

>  <SCORE.SYSTEM>
0

>  <SCORE.SYSTEM.CONST>
0

>  <SCORE.SYSTEM.DIHEDRAL>
0

>  <SCORE.SYSTEM.SOLV>
0

>  <SCORE.SYSTEM.norm>
0

>  <SCORE.heavy>
27

>  <SCORE.norm>
-0.690521

>  <RMSD>
17.928

$$$$
ligand
 OpenBabel11021811483D
libRbt.so/2013.1/901 2013/11/27
 27 29  0  0  0  0  0  0  0  0999 V2000
  -11.7935    5.3211   10.9604 N   0  0  0  0  0  0  0  0  0  0  0  0
  -12.2972    4.3501   11.9280 C   0  0  2  0  0  0  0  0  0  0  0  0
  -13.8014    4.1328   11.7862 C   0  0  0  0  0  0  0  0  0  0  0  0
  -14.6001    5.0469   12.0027 O   0  0  0  0  0  0  0  0  0  0  0  0
  -11.9261    4.7565   13.3510 C   0  0  0  0  0  0  0  0  0  0  0  0
  -10.4262    4.8777   13.5712 C   0  0  0  0  0  0  0  0  0  0  0  0
   -9.9644    5.2323   15.2851 S   0  0  2  0  0  0  0  0  0  0  0  0
   -8.1948    5.5581   15.0873 C   0  0  0  0  0  0  0  0  0  0  0  0
   -9.9410    3.5611   15.9886 C   0  0  0  0  0  0  0  0  0  0  0  0
   -9.8069    3.6526   17.5019 C   0  0  1  0  0  0  0  0  0  0  0  0
   -9.7291    2.3458   18.0194 O   0  0  0  0  0  0  0  0  0  0  0  0
   -8.5536    4.3394   18.0112 C   0  0  1  0  0  0  0  0  0  0  0  0
   -8.8052    5.6961   18.3021 O   0  0  0  0  0  0  0  0  0  0  0  0
   -8.2436    3.5829   19.2870 C   0  0  1  0  0  0  0  0  0  0  0  0
   -8.5909    4.3951   20.3813 O   0  0  0  0  0  0  0  0  0  0  0  0
   -9.1163    2.3351   19.2833 C   0  0  2  0  0  0  0  0  0  0  0  0
  -14.2472    3.0337   11.4562 O   0  0  0  0  0  0  0  0  0  0  0  0
   -8.7659   -2.9027   18.8163 N   0  0  0  0  0  0  0  0  0  0  0  0
   -9.8716   -2.1012   18.6117 C   0  0  0  0  0  0  0  0  0  0  0  0
   -9.7893   -0.7321   18.7821 N   0  0  0  0  0  0  0  0  0  0  0  0
   -8.6211   -0.1591   19.1573 C   0  0  0  0  0  0  0  0  0  0  0  0
   -7.4957   -0.9486   19.3594 C   0  0  0  0  0  0  0  0  0  0  0  0
   -7.5721   -2.3260   19.1925 C   0  0  0  0  0  0  0  0  0  0  0  0
   -6.4966   -3.0830   19.3953 N   0  0  0  0  0  0  0  0  0  0  0  0
   -6.4777   -0.1356   19.7148 N   0  0  0  0  0  0  0  0  0  0  0  0
   -6.9265    1.1416   19.7246 C   0  0  0  0  0  0  0  0  0  0  0  0
   -8.2526    1.1464   19.3812 N   0  0  0  0  0  0  0  0  0  0  0  0
  2  1  1  6  0  0  0
  2  3  1  0  0  0  0
  2  5  1  0  0  0  0
  3  4  1  0  0  0  0
  3 17  1  0  0  0  0
  5  6  1  0  0  0  0
  7  6  1  6  0  0  0
  7  8  1  0  0  0  0
  7  9  1  0  0  0  0
 10  9  1  6  0  0  0
 10 11  1  0  0  0  0
 10 12  1  0  0  0  0
 11 16  1  0  0  0  0
 12 13  1  1  0  0  0
 12 14  1  0  0  0  0
 14 15  1  1  0  0  0
 14 16  1  0  0  0  0
 16 27  1  6  0  0  0
 18 19  2  0  0  0  0
 18 23  1  0  0  0  0
 19 20  1  0  0  0  0
 20 21  2  0  0  0  0
 21 22  1  0  0  0  0
 21 27  1  0  0  0  0
 22 23  2  0  0  0  0
 22 25  1  0  0  0  0
 23 24  1  0  0  0  0
 25 26  2  0  0  0  0
 26 27  1  0  0  0  0
M  END
>  <CHROM.1>
-64.20026699,-59.24492581,-175.47744436,-171.41474090,-170.18227845,-177.33142810
-53.72412266,-9.71062859,2.54592701,16.69089676,2.44858068,-0.92883072,-0.14601945

>  <Name>
ligand

>  <RI>
0

>  <Rbt.Current_Directory>
/home/itssahil/PROJECTS/Mol_Feturizer/New_Systems/rnas/3GX6

>  <Rbt.Executable>
rbdock ($Id: //depot/dev/client3/rdock/2013.1/src/exe/rbdock.cxx#4 $)

>  <Rbt.Library>
libRbt.so (2013.1, Build901 2013/11/27)

>  <Rbt.Parameter_File>
/export/apps/rDock/src/rDock_2013.1_src/data/scripts/dock_solv.prm

>  <Rbt.Receptor>
prm/blind_docking_60.prm

>  <SCORE>
-18.881

>  <SCORE.INTER>
-9.91216

>  <SCORE.INTER.CONST>
1

>  <SCORE.INTER.POLAR>
0

>  <SCORE.INTER.ROT>
7

>  <SCORE.INTER.SOLV>
9.08668

>  <SCORE.INTER.VDW>
-17.9037

>  <SCORE.INTER.norm>
-0.367117

>  <SCORE.INTRA>
-8.96884

>  <SCORE.INTRA.DIHEDRAL>
-10.0262

>  <SCORE.INTRA.DIHEDRAL.0>
15.0182

>  <SCORE.INTRA.POLAR>
0

>  <SCORE.INTRA.POLAR.0>
0

>  <SCORE.INTRA.REPUL>
0

>  <SCORE.INTRA.REPUL.0>
0

>  <SCORE.INTRA.SOLV>
-0.830499

>  <SCORE.INTRA.SOLV.lig_0>
-47.9129

>  <SCORE.INTRA.VDW>
-3.54048

>  <SCORE.INTRA.VDW.0>
2.00851

>  <SCORE.INTRA.norm>
-0.332179

>  <SCORE.RESTR>
0

>  <SCORE.RESTR.CAVITY>
0

>  <SCORE.RESTR.norm>
0

>  <SCORE.SYSTEM>
0

>  <SCORE.SYSTEM.CONST>
0

>  <SCORE.SYSTEM.DIHEDRAL>
0

>  <SCORE.SYSTEM.SOLV>
0

>  <SCORE.SYSTEM.norm>
0

>  <SCORE.heavy>
27

>  <SCORE.norm>
-0.699297

>  <RMSD>
17.946

$$$$
ligand
 OpenBabel11021811483D
libRbt.so/2013.1/901 2013/11/27
 27 29  0  0  0  0  0  0  0  0999 V2000
  -10.8839    6.3211   11.7773 N   0  0  0  0  0  0  0  0  0  0  0  0
  -11.4831    5.3420   12.6802 C   0  0  2  0  0  0  0  0  0  0  0  0
  -12.9931    5.2357   12.4835 C   0  0  0  0  0  0  0  0  0  0  0  0
  -13.7631    6.0352   13.0204 O   0  0  0  0  0  0  0  0  0  0  0  0
  -11.1324    5.6537   14.1320 C   0  0  0  0  0  0  0  0  0  0  0  0
   -9.6428    5.5616   14.4250 C   0  0  0  0  0  0  0  0  0  0  0  0
   -9.2583    5.2085   16.1581 S   0  0  2  0  0  0  0  0  0  0  0  0
   -7.4759    4.9140   16.0453 C   0  0  0  0  0  0  0  0  0  0  0  0
   -9.8887    3.5152   16.3129 C   0  0  0  0  0  0  0  0  0  0  0  0
   -9.9570    3.1350   17.7850 C   0  0  1  0  0  0  0  0  0  0  0  0
  -10.3804    1.7957   17.8772 O   0  0  0  0  0  0  0  0  0  0  0  0
   -8.6390    3.1704   18.5358 C   0  0  1  0  0  0  0  0  0  0  0  0
   -8.4813    4.3936   19.2196 O   0  0  0  0  0  0  0  0  0  0  0  0
   -8.7804    2.0344   19.5284 C   0  0  1  0  0  0  0  0  0  0  0  0
   -9.0056    2.5831   20.8035 O   0  0  0  0  0  0  0  0  0  0  0  0
   -9.9971    1.2243   19.1018 C   0  0  2  0  0  0  0  0  0  0  0  0
  -13.4725    4.3420   11.7857 O   0  0  0  0  0  0  0  0  0  0  0  0
   -6.3784   -2.0107   17.0489 N   0  0  0  0  0  0  0  0  0  0  0  0
   -6.3807   -0.6298   17.0558 C   0  0  0  0  0  0  0  0  0  0  0  0
   -7.4196    0.0689   17.6413 N   0  0  0  0  0  0  0  0  0  0  0  0
   -8.4529   -0.5942   18.2126 C   0  0  0  0  0  0  0  0  0  0  0  0
   -8.4635   -1.9835   18.2228 C   0  0  0  0  0  0  0  0  0  0  0  0
   -7.4236   -2.6923   17.6337 C   0  0  0  0  0  0  0  0  0  0  0  0
   -7.4387   -4.0231   17.6352 N   0  0  0  0  0  0  0  0  0  0  0  0
   -9.5882   -2.3846   18.8535 N   0  0  0  0  0  0  0  0  0  0  0  0
  -10.2744   -1.2886   19.2543 C   0  0  0  0  0  0  0  0  0  0  0  0
   -9.5856   -0.1698   18.8662 N   0  0  0  0  0  0  0  0  0  0  0  0
  2  1  1  6  0  0  0
  2  3  1  0  0  0  0
  2  5  1  0  0  0  0
  3  4  1  0  0  0  0
  3 17  1  0  0  0  0
  5  6  1  0  0  0  0
  7  6  1  6  0  0  0
  7  8  1  0  0  0  0
  7  9  1  0  0  0  0
 10  9  1  6  0  0  0
 10 11  1  0  0  0  0
 10 12  1  0  0  0  0
 11 16  1  0  0  0  0
 12 13  1  1  0  0  0
 12 14  1  0  0  0  0
 14 15  1  1  0  0  0
 14 16  1  0  0  0  0
 16 27  1  6  0  0  0
 18 19  2  0  0  0  0
 18 23  1  0  0  0  0
 19 20  1  0  0  0  0
 20 21  2  0  0  0  0
 21 22  1  0  0  0  0
 21 27  1  0  0  0  0
 22 23  2  0  0  0  0
 22 25  1  0  0  0  0
 23 24  1  0  0  0  0
 25 26  2  0  0  0  0
 26 27  1  0  0  0  0
M  END
>  <CHROM.1>
-82.63265074,-63.43590367,-154.80334866,171.24233456,-166.94882107,-176.92485732
70.21783834,-9.53941627,2.28932004,16.68775278,2.49571791,-1.08401950,0.22361285

>  <Name>
ligand

>  <RI>
0

>  <Rbt.Current_Directory>
/home/itssahil/PROJECTS/Mol_Feturizer/New_Systems/rnas/3GX6

>  <Rbt.Executable>
rbdock ($Id: //depot/dev/client3/rdock/2013.1/src/exe/rbdock.cxx#4 $)

>  <Rbt.Library>
libRbt.so (2013.1, Build901 2013/11/27)

>  <Rbt.Parameter_File>
/export/apps/rDock/src/rDock_2013.1_src/data/scripts/dock_solv.prm

>  <Rbt.Receptor>
prm/blind_docking_100.prm

>  <SCORE>
-22.6507

>  <SCORE.INTER>
-13.699

>  <SCORE.INTER.CONST>
1

>  <SCORE.INTER.POLAR>
0

>  <SCORE.INTER.ROT>
7

>  <SCORE.INTER.SOLV>
8.97043

>  <SCORE.INTER.VDW>
-20.3895

>  <SCORE.INTER.norm>
-0.507369

>  <SCORE.INTRA>
-8.95171

>  <SCORE.INTRA.DIHEDRAL>
-8.42782

>  <SCORE.INTRA.DIHEDRAL.0>
15.0182

>  <SCORE.INTRA.POLAR>
0

>  <SCORE.INTRA.POLAR.0>
0

>  <SCORE.INTRA.REPUL>
0

>  <SCORE.INTRA.REPUL.0>
0

>  <SCORE.INTRA.SOLV>
-0.87105

>  <SCORE.INTRA.SOLV.lig_0>
-47.9129

>  <SCORE.INTRA.VDW>
-4.30227

>  <SCORE.INTRA.VDW.0>
2.00851

>  <SCORE.INTRA.norm>
-0.331545

>  <SCORE.RESTR>
0

>  <SCORE.RESTR.CAVITY>
0

>  <SCORE.RESTR.norm>
0

>  <SCORE.SYSTEM>
0

>  <SCORE.SYSTEM.CONST>
0

>  <SCORE.SYSTEM.DIHEDRAL>
0

>  <SCORE.SYSTEM.SOLV>
0

>  <SCORE.SYSTEM.norm>
0

>  <SCORE.heavy>
27

>  <SCORE.norm>
-0.838914

>  <RMSD>
17.956

$$$$
ligand
 OpenBabel11021811483D
libRbt.so/2013.1/901 2013/11/27
 27 29  0  0  0  0  0  0  0  0999 V2000
   -6.9676   -0.8756   20.8275 N   0  0  0  0  0  0  0  0  0  0  0  0
   -8.1180   -0.2112   21.4342 C   0  0  2  0  0  0  0  0  0  0  0  0
   -8.4140   -0.7485   22.8319 C   0  0  0  0  0  0  0  0  0  0  0  0
   -9.5195   -0.5898   23.3544 O   0  0  0  0  0  0  0  0  0  0  0  0
   -9.3430   -0.3096   20.5300 C   0  0  0  0  0  0  0  0  0  0  0  0
   -9.1263    0.2996   19.1535 C   0  0  0  0  0  0  0  0  0  0  0  0
  -10.6594    0.6292   18.2494 S   0  0  2  0  0  0  0  0  0  0  0  0
  -10.0536    0.5722   16.5446 C   0  0  0  0  0  0  0  0  0  0  0  0
  -10.8329    2.4161   18.5048 C   0  0  0  0  0  0  0  0  0  0  0  0
   -9.4520    3.0514   18.5800 C   0  0  1  0  0  0  0  0  0  0  0  0
   -8.8524    2.9592   17.3097 O   0  0  0  0  0  0  0  0  0  0  0  0
   -9.4260    4.5327   18.9070 C   0  0  1  0  0  0  0  0  0  0  0  0
   -9.2124    4.7408   20.2853 O   0  0  0  0  0  0  0  0  0  0  0  0
   -8.2368    5.0369   18.1147 C   0  0  1  0  0  0  0  0  0  0  0  0
   -7.1780    5.2800   19.0078 O   0  0  0  0  0  0  0  0  0  0  0  0
   -7.8441    3.9243   17.1521 C   0  0  2  0  0  0  0  0  0  0  0  0
   -7.5480   -1.3489   23.4686 O   0  0  0  0  0  0  0  0  0  0  0  0
  -10.6326    6.5644   13.5425 N   0  0  0  0  0  0  0  0  0  0  0  0
  -10.9860    6.2710   14.8448 C   0  0  0  0  0  0  0  0  0  0  0  0
  -10.1286    5.5602   15.6632 N   0  0  0  0  0  0  0  0  0  0  0  0
   -8.9302    5.1377   15.1950 C   0  0  0  0  0  0  0  0  0  0  0  0
   -8.5539    5.4310   13.8900 C   0  0  0  0  0  0  0  0  0  0  0  0
   -9.4122    6.1429   13.0609 C   0  0  0  0  0  0  0  0  0  0  0  0
   -9.0555    6.4154   11.8080 N   0  0  0  0  0  0  0  0  0  0  0  0
   -7.3262    4.9071   13.6853 N   0  0  0  0  0  0  0  0  0  0  0  0
   -6.9142    4.3093   14.8279 C   0  0  0  0  0  0  0  0  0  0  0  0
   -7.8952    4.4427   15.7747 N   0  0  0  0  0  0  0  0  0  0  0  0
  2  1  1  6  0  0  0
  2  3  1  0  0  0  0
  2  5  1  0  0  0  0
  3  4  1  0  0  0  0
  3 17  1  0  0  0  0
  5  6  1  0  0  0  0
  7  6  1  1  0  0  0
  7  8  1  0  0  0  0
  7  9  1  0  0  0  0
 10  9  1  6  0  0  0
 10 11  1  0  0  0  0
 10 12  1  0  0  0  0
 11 16  1  0  0  0  0
 12 13  1  1  0  0  0
 12 14  1  0  0  0  0
 14 15  1  1  0  0  0
 14 16  1  0  0  0  0
 16 27  1  6  0  0  0
 18 19  2  0  0  0  0
 18 23  1  0  0  0  0
 19 20  1  0  0  0  0
 20 21  2  0  0  0  0
 21 22  1  0  0  0  0
 21 27  1  0  0  0  0
 22 23  2  0  0  0  0
 22 25  1  0  0  0  0
 23 24  1  0  0  0  0
 25 26  2  0  0  0  0
 26 27  1  0  0  0  0
M  END
>  <CHROM.1>
-160.34156243,-58.56247012,-163.24265962,-154.85780114,32.61397348,67.92202056
63.50571283,-8.98935763,2.94339831,17.79495834,-1.49620953,-0.99924337,-0.83110529

>  <Name>
ligand

>  <RI>
0

>  <Rbt.Current_Directory>
/home/itssahil/PROJECTS/Mol_Feturizer/New_Systems/rnas/3GX6

>  <Rbt.Executable>
rbdock ($Id: //depot/dev/client3/rdock/2013.1/src/exe/rbdock.cxx#4 $)

>  <Rbt.Library>
libRbt.so (2013.1, Build901 2013/11/27)

>  <Rbt.Parameter_File>
/export/apps/rDock/src/rDock_2013.1_src/data/scripts/dock_solv.prm

>  <Rbt.Receptor>
prm/blind_docking_60.prm

>  <SCORE>
-21.7063

>  <SCORE.INTER>
-15.6143

>  <SCORE.INTER.CONST>
1

>  <SCORE.INTER.POLAR>
0

>  <SCORE.INTER.ROT>
7

>  <SCORE.INTER.SOLV>
9.69301

>  <SCORE.INTER.VDW>
-21.9072

>  <SCORE.INTER.norm>
-0.578307

>  <SCORE.INTRA>
-6.09196

>  <SCORE.INTRA.DIHEDRAL>
-7.07301

>  <SCORE.INTRA.DIHEDRAL.0>
15.0182

>  <SCORE.INTRA.POLAR>
0

>  <SCORE.INTRA.POLAR.0>
0

>  <SCORE.INTRA.REPUL>
0

>  <SCORE.INTRA.REPUL.0>
0

>  <SCORE.INTRA.SOLV>
-0.891673

>  <SCORE.INTRA.SOLV.lig_0>
-47.9129

>  <SCORE.INTRA.VDW>
-2.10962

>  <SCORE.INTRA.VDW.0>
2.00851

>  <SCORE.INTRA.norm>
-0.225628

>  <SCORE.RESTR>
0

>  <SCORE.RESTR.CAVITY>
0

>  <SCORE.RESTR.norm>
0

>  <SCORE.SYSTEM>
0

>  <SCORE.SYSTEM.CONST>
0

>  <SCORE.SYSTEM.DIHEDRAL>
0

>  <SCORE.SYSTEM.SOLV>
0

>  <SCORE.SYSTEM.norm>
0

>  <SCORE.heavy>
27

>  <SCORE.norm>
-0.803935

>  <RMSD>
17.969

$$$$
ligand
 OpenBabel11021811483D
libRbt.so/2013.1/901 2013/11/27
 27 29  0  0  0  0  0  0  0  0999 V2000
   -6.9463   -1.6275   22.1535 N   0  0  0  0  0  0  0  0  0  0  0  0
   -7.7874   -0.4520   21.9448 C   0  0  2  0  0  0  0  0  0  0  0  0
   -8.7655   -0.2401   23.0974 C   0  0  0  0  0  0  0  0  0  0  0  0
   -9.7179   -1.0033   23.2729 O   0  0  0  0  0  0  0  0  0  0  0  0
   -8.5151   -0.5336   20.6063 C   0  0  0  0  0  0  0  0  0  0  0  0
   -9.1590    0.7796   20.1895 C   0  0  0  0  0  0  0  0  0  0  0  0
  -10.3194    0.6203   18.8095 S   0  0  2  0  0  0  0  0  0  0  0  0
   -9.1791    0.1956   17.4694 C   0  0  0  0  0  0  0  0  0  0  0  0
  -10.6625    2.3631   18.4446 C   0  0  0  0  0  0  0  0  0  0  0  0
   -9.3719    3.1634   18.5462 C   0  0  1  0  0  0  0  0  0  0  0  0
   -8.7105    3.0963   17.3054 O   0  0  0  0  0  0  0  0  0  0  0  0
   -9.5373    4.6483   18.8100 C   0  0  1  0  0  0  0  0  0  0  0  0
   -9.4108    4.9330   20.1854 O   0  0  0  0  0  0  0  0  0  0  0  0
   -8.3833    5.2623   18.0438 C   0  0  1  0  0  0  0  0  0  0  0  0
   -7.4013    5.6656   18.9662 O   0  0  0  0  0  0  0  0  0  0  0  0
   -7.8186    4.1697   17.1459 C   0  0  2  0  0  0  0  0  0  0  0  0
   -8.6235    0.7048   23.8738 O   0  0  0  0  0  0  0  0  0  0  0  0
  -10.6488    6.5583   13.3963 N   0  0  0  0  0  0  0  0  0  0  0  0
  -11.0073    6.3111   14.7068 C   0  0  0  0  0  0  0  0  0  0  0  0
  -10.1370    5.6647   15.5641 N   0  0  0  0  0  0  0  0  0  0  0  0
   -8.9207    5.2607   15.1267 C   0  0  0  0  0  0  0  0  0  0  0  0
   -8.5393    5.5084   13.8138 C   0  0  0  0  0  0  0  0  0  0  0  0
   -9.4104    6.1555   12.9457 C   0  0  0  0  0  0  0  0  0  0  0  0
   -9.0486    6.3841   11.6856 N   0  0  0  0  0  0  0  0  0  0  0  0
   -7.2934    5.0158   13.6443 N   0  0  0  0  0  0  0  0  0  0  0  0
   -6.8755    4.4822   14.8162 C   0  0  0  0  0  0  0  0  0  0  0  0
   -7.8708    4.6253   15.7466 N   0  0  0  0  0  0  0  0  0  0  0  0
  2  1  1  1  0  0  0
  2  3  1  0  0  0  0
  2  5  1  0  0  0  0
  3  4  1  0  0  0  0
  3 17  1  0  0  0  0
  5  6  1  0  0  0  0
  7  6  1  1  0  0  0
  7  8  1  0  0  0  0
  7  9  1  0  0  0  0
 10  9  1  6  0  0  0
 10 11  1  0  0  0  0
 10 12  1  0  0  0  0
 11 16  1  0  0  0  0
 12 13  1  1  0  0  0
 12 14  1  0  0  0  0
 14 15  1  1  0  0  0
 14 16  1  0  0  0  0
 16 27  1  6  0  0  0
 18 19  2  0  0  0  0
 18 23  1  0  0  0  0
 19 20  1  0  0  0  0
 20 21  2  0  0  0  0
 21 22  1  0  0  0  0
 21 27  1  0  0  0  0
 22 23  2  0  0  0  0
 22 25  1  0  0  0  0
 23 24  1  0  0  0  0
 25 26  2  0  0  0  0
 26 27  1  0  0  0  0
M  END
>  <CHROM.1>
-70.41549099,-167.27855317,-167.27401870,-67.80963143,40.54857397,86.05575374
68.89576171,-8.95808715,3.06186787,17.95925476,1.34038100,1.45470577,2.44973734

>  <Name>
ligand

>  <RI>
0

>  <Rbt.Current_Directory>
/home/itssahil/PROJECTS/Mol_Feturizer/New_Systems/rnas/3GX6

>  <Rbt.Executable>
rbdock ($Id: //depot/dev/client3/rdock/2013.1/src/exe/rbdock.cxx#4 $)

>  <Rbt.Library>
libRbt.so (2013.1, Build901 2013/11/27)

>  <Rbt.Parameter_File>
/export/apps/rDock/src/rDock_2013.1_src/data/scripts/dock_solv.prm

>  <Rbt.Receptor>
prm/blind_docking_100.prm

>  <SCORE>
-23.2185

>  <SCORE.INTER>
-15.2336

>  <SCORE.INTER.CONST>
1

>  <SCORE.INTER.POLAR>
0

>  <SCORE.INTER.ROT>
7

>  <SCORE.INTER.SOLV>
10.3813

>  <SCORE.INTER.VDW>
-21.8828

>  <SCORE.INTER.norm>
-0.564207

>  <SCORE.INTRA>
-7.98985

>  <SCORE.INTRA.DIHEDRAL>
-8.21126

>  <SCORE.INTRA.DIHEDRAL.0>
15.0182

>  <SCORE.INTRA.POLAR>
0

>  <SCORE.INTRA.POLAR.0>
0

>  <SCORE.INTRA.REPUL>
0

>  <SCORE.INTRA.REPUL.0>
0

>  <SCORE.INTRA.SOLV>
-1.64461

>  <SCORE.INTRA.SOLV.lig_0>
-47.9129

>  <SCORE.INTRA.VDW>
-3.06192

>  <SCORE.INTRA.VDW.0>
2.00851

>  <SCORE.INTRA.norm>
-0.295921

>  <SCORE.RESTR>
0.00488176

>  <SCORE.RESTR.CAVITY>
0.00488176

>  <SCORE.RESTR.norm>
0.000180806

>  <SCORE.SYSTEM>
0

>  <SCORE.SYSTEM.CONST>
0

>  <SCORE.SYSTEM.DIHEDRAL>
0

>  <SCORE.SYSTEM.SOLV>
0

>  <SCORE.SYSTEM.norm>
0

>  <SCORE.heavy>
27

>  <SCORE.norm>
-0.859946

>  <RMSD>
17.977

$$$$
ligand
 OpenBabel11021811483D
libRbt.so/2013.1/901 2013/11/27
 27 29  0  0  0  0  0  0  0  0999 V2000
  -10.0722    3.7739   13.2595 N   0  0  0  0  0  0  0  0  0  0  0  0
  -10.2133    4.6937   14.3850 C   0  0  2  0  0  0  0  0  0  0  0  0
  -10.9198    5.9847   13.9800 C   0  0  0  0  0  0  0  0  0  0  0  0
  -10.2912    7.0350   13.8308 O   0  0  0  0  0  0  0  0  0  0  0  0
   -8.8594    4.9793   15.0279 C   0  0  0  0  0  0  0  0  0  0  0  0
   -8.2102    3.7466   15.6380 C   0  0  0  0  0  0  0  0  0  0  0  0
   -6.5070    4.0135   16.1893 S   0  0  2  0  0  0  0  0  0  0  0  0
   -5.6617    4.1404   14.5937 C   0  0  0  0  0  0  0  0  0  0  0  0
   -6.0444    2.3373   16.7037 C   0  0  0  0  0  0  0  0  0  0  0  0
   -6.3813    2.1504   18.1761 C   0  0  1  0  0  0  0  0  0  0  0  0
   -5.6765    3.1173   18.9177 O   0  0  0  0  0  0  0  0  0  0  0  0
   -7.8352    2.3676   18.5513 C   0  0  1  0  0  0  0  0  0  0  0  0
   -8.5323    1.1427   18.5968 O   0  0  0  0  0  0  0  0  0  0  0  0
   -7.7440    2.9659   19.9404 C   0  0  1  0  0  0  0  0  0  0  0  0
   -8.1177    1.9825   20.8737 O   0  0  0  0  0  0  0  0  0  0  0  0
   -6.2869    3.3484   20.1615 C   0  0  2  0  0  0  0  0  0  0  0  0
  -12.1374    6.0022   13.7990 O   0  0  0  0  0  0  0  0  0  0  0  0
   -8.7391    7.5588   22.1701 N   0  0  0  0  0  0  0  0  0  0  0  0
   -9.2127    6.2658   22.0670 C   0  0  0  0  0  0  0  0  0  0  0  0
   -8.4317    5.2733   21.5056 N   0  0  0  0  0  0  0  0  0  0  0  0
   -7.1909    5.5588   21.0444 C   0  0  0  0  0  0  0  0  0  0  0  0
   -6.6941    6.8523   21.1475 C   0  0  0  0  0  0  0  0  0  0  0  0
   -7.4750    7.8556   21.7084 C   0  0  0  0  0  0  0  0  0  0  0  0
   -7.0027    9.0965   21.7984 N   0  0  0  0  0  0  0  0  0  0  0  0
   -5.4485    6.8604   20.6262 N   0  0  0  0  0  0  0  0  0  0  0  0
   -5.1426    5.6074   20.2152 C   0  0  0  0  0  0  0  0  0  0  0  0
   -6.2105    4.7870   20.4669 N   0  0  0  0  0  0  0  0  0  0  0  0
  2  1  1  6  0  0  0
  2  3  1  0  0  0  0
  2  5  1  0  0  0  0
  3  4  1  0  0  0  0
  3 17  1  0  0  0  0
  5  6  1  0  0  0  0
  7  6  1  6  0  0  0
  7  8  1  0  0  0  0
  7  9  1  0  0  0  0
 10  9  1  6  0  0  0
 10 11  1  0  0  0  0
 10 12  1  0  0  0  0
 11 16  1  0  0  0  0
 12 13  1  1  0  0  0
 12 14  1  0  0  0  0
 14 15  1  1  0  0  0
 14 16  1  0  0  0  0
 16 27  1  6  0  0  0
 18 19  2  0  0  0  0
 18 23  1  0  0  0  0
 19 20  1  0  0  0  0
 20 21  2  0  0  0  0
 21 22  1  0  0  0  0
 21 27  1  0  0  0  0
 22 23  2  0  0  0  0
 22 25  1  0  0  0  0
 23 24  1  0  0  0  0
 25 26  2  0  0  0  0
 26 27  1  0  0  0  0
M  END
>  <CHROM.1>
-104.67918947,-63.40880455,171.59937075,-71.56974431,-90.32443929,-58.94151811
140.06020054,-7.78187822,4.70770853,18.15770848,2.16850898,0.95422016,-2.23844495

>  <Name>
ligand

>  <RI>
0

>  <Rbt.Current_Directory>
/home/itssahil/PROJECTS/Mol_Feturizer/New_Systems/rnas/3GX6

>  <Rbt.Executable>
rbdock ($Id: //depot/dev/client3/rdock/2013.1/src/exe/rbdock.cxx#4 $)

>  <Rbt.Library>
libRbt.so (2013.1, Build901 2013/11/27)

>  <Rbt.Parameter_File>
/export/apps/rDock/src/rDock_2013.1_src/data/scripts/dock_solv.prm

>  <Rbt.Receptor>
prm/blind_docking_60.prm

>  <SCORE>
-18.3109

>  <SCORE.INTER>
-9.33987

>  <SCORE.INTER.CONST>
1

>  <SCORE.INTER.POLAR>
0

>  <SCORE.INTER.ROT>
7

>  <SCORE.INTER.SOLV>
15.5612

>  <SCORE.INTER.VDW>
-19.6803

>  <SCORE.INTER.norm>
-0.345921

>  <SCORE.INTRA>
-8.97103

>  <SCORE.INTRA.DIHEDRAL>
-10.1774

>  <SCORE.INTRA.DIHEDRAL.0>
15.0182

>  <SCORE.INTRA.POLAR>
0

>  <SCORE.INTRA.POLAR.0>
0

>  <SCORE.INTRA.REPUL>
0

>  <SCORE.INTRA.REPUL.0>
0

>  <SCORE.INTRA.SOLV>
-0.725905

>  <SCORE.INTRA.SOLV.lig_0>
-47.9129

>  <SCORE.INTRA.VDW>
-3.51936

>  <SCORE.INTRA.VDW.0>
2.00851

>  <SCORE.INTRA.norm>
-0.33226

>  <SCORE.RESTR>
0

>  <SCORE.RESTR.CAVITY>
0

>  <SCORE.RESTR.norm>
0

>  <SCORE.SYSTEM>
0

>  <SCORE.SYSTEM.CONST>
0

>  <SCORE.SYSTEM.DIHEDRAL>
0

>  <SCORE.SYSTEM.SOLV>
0

>  <SCORE.SYSTEM.norm>
0

>  <SCORE.heavy>
27

>  <SCORE.norm>
-0.678182

>  <RMSD>
18.014

$$$$
ligand
 OpenBabel11021811483D
libRbt.so/2013.1/901 2013/11/27
 27 29  0  0  0  0  0  0  0  0999 V2000
   -7.5502    0.9998   24.5561 N   0  0  0  0  0  0  0  0  0  0  0  0
   -8.4054    0.8071   23.3880 C   0  0  2  0  0  0  0  0  0  0  0  0
   -8.8837   -0.6372   23.2646 C   0  0  0  0  0  0  0  0  0  0  0  0
   -8.1021   -1.5809   23.4022 O   0  0  0  0  0  0  0  0  0  0  0  0
   -7.7019    1.2701   22.1157 C   0  0  0  0  0  0  0  0  0  0  0  0
   -8.6484    1.4678   20.9418 C   0  0  0  0  0  0  0  0  0  0  0  0
   -7.8261    2.0035   19.4209 S   0  0  2  0  0  0  0  0  0  0  0  0
   -7.1842    3.6129   19.9444 C   0  0  0  0  0  0  0  0  0  0  0  0
   -9.2511    2.4998   18.4151 C   0  0  0  0  0  0  0  0  0  0  0  0
   -8.7607    3.2085   17.1606 C   0  0  1  0  0  0  0  0  0  0  0  0
   -8.1155    2.2627   16.3414 O   0  0  0  0  0  0  0  0  0  0  0  0
   -9.8403    3.8045   16.2768 C   0  0  1  0  0  0  0  0  0  0  0  0
  -10.0213    5.1747   16.5569 O   0  0  0  0  0  0  0  0  0  0  0  0
   -9.2755    3.6293   14.8817 C   0  0  1  0  0  0  0  0  0  0  0  0
   -8.8350    4.8823   14.4194 O   0  0  0  0  0  0  0  0  0  0  0  0
   -8.0866    2.6856   15.0023 C   0  0  2  0  0  0  0  0  0  0  0  0
  -10.0639   -0.8874   23.0191 O   0  0  0  0  0  0  0  0  0  0  0  0
   -8.6343   -2.5479   14.7091 N   0  0  0  0  0  0  0  0  0  0  0  0
   -8.4185   -1.7756   15.8333 C   0  0  0  0  0  0  0  0  0  0  0  0
   -8.2946   -0.4029   15.7304 N   0  0  0  0  0  0  0  0  0  0  0  0
   -8.3791    0.2024   14.5220 C   0  0  0  0  0  0  0  0  0  0  0  0
   -8.6045   -0.5575   13.3808 C   0  0  0  0  0  0  0  0  0  0  0  0
   -8.7273   -1.9384   13.4766 C   0  0  0  0  0  0  0  0  0  0  0  0
   -8.9337   -2.6670   12.3823 N   0  0  0  0  0  0  0  0  0  0  0  0
   -8.6527    0.2838   12.3257 N   0  0  0  0  0  0  0  0  0  0  0  0
   -8.4816    1.5500   12.7731 C   0  0  0  0  0  0  0  0  0  0  0  0
   -8.3110    1.5191   14.1320 N   0  0  0  0  0  0  0  0  0  0  0  0
  2  1  1  1  0  0  0
  2  3  1  0  0  0  0
  2  5  1  0  0  0  0
  3  4  1  0  0  0  0
  3 17  1  0  0  0  0
  5  6  1  0  0  0  0
  7  6  1  1  0  0  0
  7  8  1  0  0  0  0
  7  9  1  0  0  0  0
 10  9  1  1  0  0  0
 10 11  1  0  0  0  0
 10 12  1  0  0  0  0
 11 16  1  0  0  0  0
 12 13  1  1  0  0  0
 12 14  1  0  0  0  0
 14 15  1  1  0  0  0
 14 16  1  0  0  0  0
 16 27  1  6  0  0  0
 18 19  2  0  0  0  0
 18 23  1  0  0  0  0
 19 20  1  0  0  0  0
 20 21  2  0  0  0  0
 21 22  1  0  0  0  0
 21 27  1  0  0  0  0
 22 23  2  0  0  0  0
 22 25  1  0  0  0  0
 23 24  1  0  0  0  0
 25 26  2  0  0  0  0
 26 27  1  0  0  0  0
M  END
>  <CHROM.1>
-45.98363798,-163.70456761,-179.50128503,-63.47431059,170.57064984,68.68614069
-7.28875759,-8.56089497,1.16893202,17.54154430,-0.64354272,1.52133980,-2.47926912

>  <Name>
ligand

>  <RI>
0

>  <Rbt.Current_Directory>
/home/itssahil/PROJECTS/Mol_Feturizer/New_Systems/rnas/3GX6

>  <Rbt.Executable>
rbdock ($Id: //depot/dev/client3/rdock/2013.1/src/exe/rbdock.cxx#4 $)

>  <Rbt.Library>
libRbt.so (2013.1, Build901 2013/11/27)

>  <Rbt.Parameter_File>
/export/apps/rDock/src/rDock_2013.1_src/data/scripts/dock_solv.prm

>  <Rbt.Receptor>
prm/blind_docking_40.prm

>  <SCORE>
-19.5477

>  <SCORE.INTER>
-9.28717

>  <SCORE.INTER.CONST>
1

>  <SCORE.INTER.POLAR>
0

>  <SCORE.INTER.ROT>
7

>  <SCORE.INTER.SOLV>
7.71601

>  <SCORE.INTER.VDW>
-17.0301

>  <SCORE.INTER.norm>
-0.343969

>  <SCORE.INTRA>
-10.2606

>  <SCORE.INTRA.DIHEDRAL>
-10.559

>  <SCORE.INTRA.DIHEDRAL.0>
15.0182

>  <SCORE.INTRA.POLAR>
0

>  <SCORE.INTRA.POLAR.0>
0

>  <SCORE.INTRA.REPUL>
0

>  <SCORE.INTRA.REPUL.0>
0

>  <SCORE.INTRA.SOLV>
-1.79094

>  <SCORE.INTRA.SOLV.lig_0>
-47.9129

>  <SCORE.INTRA.VDW>
-4.0856

>  <SCORE.INTRA.VDW.0>
2.00851

>  <SCORE.INTRA.norm>
-0.380021

>  <SCORE.RESTR>
0

>  <SCORE.RESTR.CAVITY>
0

>  <SCORE.RESTR.norm>
0

>  <SCORE.SYSTEM>
0

>  <SCORE.SYSTEM.CONST>
0

>  <SCORE.SYSTEM.DIHEDRAL>
0

>  <SCORE.SYSTEM.SOLV>
0

>  <SCORE.SYSTEM.norm>
0

>  <SCORE.heavy>
27

>  <SCORE.norm>
-0.723991

>  <RMSD>
18.018

$$$$
ligand
 OpenBabel11021811483D
libRbt.so/2013.1/901 2013/11/27
 27 29  0  0  0  0  0  0  0  0999 V2000
   -9.7073   -0.2128   15.7820 N   0  0  0  0  0  0  0  0  0  0  0  0
   -8.9023    0.1924   16.9312 C   0  0  2  0  0  0  0  0  0  0  0  0
   -7.5017    0.6361   16.5171 C   0  0  0  0  0  0  0  0  0  0  0  0
   -7.2257    0.8525   15.3350 O   0  0  0  0  0  0  0  0  0  0  0  0
   -8.8472   -0.9179   17.9762 C   0  0  0  0  0  0  0  0  0  0  0  0
   -8.2182   -2.2020   17.4583 C   0  0  0  0  0  0  0  0  0  0  0  0
   -7.9800   -3.4658   18.7320 S   0  0  2  0  0  0  0  0  0  0  0  0
   -6.5618   -2.7744   19.6191 C   0  0  0  0  0  0  0  0  0  0  0  0
   -7.1883   -4.7820   17.7680 C   0  0  0  0  0  0  0  0  0  0  0  0
   -8.2577   -5.6032   17.0620 C   0  0  1  0  0  0  0  0  0  0  0  0
   -8.9875   -4.7465   16.2164 O   0  0  0  0  0  0  0  0  0  0  0  0
   -7.7475   -6.6993   16.1455 C   0  0  1  0  0  0  0  0  0  0  0  0
   -7.7273   -7.9430   16.8098 O   0  0  0  0  0  0  0  0  0  0  0  0
   -8.7759   -6.7209   15.0329 C   0  0  1  0  0  0  0  0  0  0  0  0
   -9.5872   -7.8575   15.1989 O   0  0  0  0  0  0  0  0  0  0  0  0
   -9.6226   -5.4651   15.1901 C   0  0  2  0  0  0  0  0  0  0  0  0
   -6.6160    0.7817   17.3597 O   0  0  0  0  0  0  0  0  0  0  0  0
   -6.5614   -3.6459   11.3048 N   0  0  0  0  0  0  0  0  0  0  0  0
   -6.1951   -4.4263   12.3836 C   0  0  0  0  0  0  0  0  0  0  0  0
   -7.1335   -4.8164   13.3204 N   0  0  0  0  0  0  0  0  0  0  0  0
   -8.4261   -4.4331   13.1936 C   0  0  0  0  0  0  0  0  0  0  0  0
   -8.8149   -3.6550   12.1101 C   0  0  0  0  0  0  0  0  0  0  0  0
   -7.8761   -3.2570   11.1660 C   0  0  0  0  0  0  0  0  0  0  0  0
   -8.2469   -2.5037   10.1334 N   0  0  0  0  0  0  0  0  0  0  0  0
  -10.1409   -3.4244   12.2202 N   0  0  0  0  0  0  0  0  0  0  0  0
  -10.5984   -4.0489   13.3308 C   0  0  0  0  0  0  0  0  0  0  0  0
   -9.5498   -4.6797   13.9466 N   0  0  0  0  0  0  0  0  0  0  0  0
  2  1  1  6  0  0  0
  2  3  1  0  0  0  0
  2  5  1  0  0  0  0
  3  4  1  0  0  0  0
  3 17  1  0  0  0  0
  5  6  1  0  0  0  0
  7  6  1  6  0  0  0
  7  8  1  0  0  0  0
  7  9  1  0  0  0  0
 10  9  1  6  0  0  0
 10 11  1  0  0  0  0
 10 12  1  0  0  0  0
 11 16  1  0  0  0  0
 12 13  1  1  0  0  0
 12 14  1  0  0  0  0
 14 15  1  1  0  0  0
 14 16  1  0  0  0  0
 16 27  1  6  0  0  0
 18 19  2  0  0  0  0
 18 23  1  0  0  0  0
 19 20  1  0  0  0  0
 20 21  2  0  0  0  0
 21 22  1  0  0  0  0
 21 27  1  0  0  0  0
 22 23  2  0  0  0  0
 22 25  1  0  0  0  0
 23 24  1  0  0  0  0
 25 26  2  0  0  0  0
 26 27  1  0  0  0  0
M  END
>  <CHROM.1>
12.75332900,61.01209714,173.66247366,-74.61188931,-83.48262437,59.61741513
70.45244710,-8.23151488,-3.54296947,15.37597915,-0.16230394,-1.45242864,-0.88401944

>  <Name>
ligand

>  <RI>
0

>  <Rbt.Current_Directory>
/home/itssahil/PROJECTS/Mol_Feturizer/New_Systems/rnas/3GX6

>  <Rbt.Executable>
rbdock ($Id: //depot/dev/client3/rdock/2013.1/src/exe/rbdock.cxx#4 $)

>  <Rbt.Library>
libRbt.so (2013.1, Build901 2013/11/27)

>  <Rbt.Parameter_File>
/export/apps/rDock/src/rDock_2013.1_src/data/scripts/dock_solv.prm

>  <Rbt.Receptor>
prm/blind_docking_80.prm

>  <SCORE>
-17.0939

>  <SCORE.INTER>
-6.92157

>  <SCORE.INTER.CONST>
1

>  <SCORE.INTER.POLAR>
0

>  <SCORE.INTER.ROT>
7

>  <SCORE.INTER.SOLV>
14.0685

>  <SCORE.INTER.VDW>
-17.5705

>  <SCORE.INTER.norm>
-0.256354

>  <SCORE.INTRA>
-10.1723

>  <SCORE.INTRA.DIHEDRAL>
-10.9163

>  <SCORE.INTRA.DIHEDRAL.0>
15.0182

>  <SCORE.INTRA.POLAR>
0

>  <SCORE.INTRA.POLAR.0>
0

>  <SCORE.INTRA.REPUL>
0

>  <SCORE.INTRA.REPUL.0>
0

>  <SCORE.INTRA.SOLV>
-1.03547

>  <SCORE.INTRA.SOLV.lig_0>
-47.9129

>  <SCORE.INTRA.VDW>
-4.19642

>  <SCORE.INTRA.VDW.0>
2.00851

>  <SCORE.INTRA.norm>
-0.376752

>  <SCORE.RESTR>
0

>  <SCORE.RESTR.CAVITY>
0

>  <SCORE.RESTR.norm>
0

>  <SCORE.SYSTEM>
0

>  <SCORE.SYSTEM.CONST>
0

>  <SCORE.SYSTEM.DIHEDRAL>
0

>  <SCORE.SYSTEM.SOLV>
0

>  <SCORE.SYSTEM.norm>
0

>  <SCORE.heavy>
27

>  <SCORE.norm>
-0.633106

>  <RMSD>
18.066

$$$$
ligand
 OpenBabel11021811483D
libRbt.so/2013.1/901 2013/11/27
 27 29  0  0  0  0  0  0  0  0999 V2000
   -5.8803    5.5610   22.9821 N   0  0  0  0  0  0  0  0  0  0  0  0
   -6.1496    4.9288   21.6934 C   0  0  2  0  0  0  0  0  0  0  0  0
   -5.2886    5.5182   20.5792 C   0  0  0  0  0  0  0  0  0  0  0  0
   -4.9711    4.8452   19.5960 O   0  0  0  0  0  0  0  0  0  0  0  0
   -7.6338    5.0058   21.3485 C   0  0  0  0  0  0  0  0  0  0  0  0
   -8.3060    3.6437   21.2720 C   0  0  0  0  0  0  0  0  0  0  0  0
   -7.7537    2.6324   19.8761 S   0  0  2  0  0  0  0  0  0  0  0  0
   -8.7208    3.3686   18.5347 C   0  0  0  0  0  0  0  0  0  0  0  0
   -8.6735    1.0987   20.1763 C   0  0  0  0  0  0  0  0  0  0  0  0
   -8.2382    0.0440   19.1691 C   0  0  1  0  0  0  0  0  0  0  0  0
   -8.6809    0.4408   17.8931 O   0  0  0  0  0  0  0  0  0  0  0  0
   -6.7401   -0.1382   19.0130 C   0  0  1  0  0  0  0  0  0  0  0  0
   -6.2771   -1.2081   19.8065 O   0  0  0  0  0  0  0  0  0  0  0  0
   -6.5881   -0.4767   17.5439 C   0  0  1  0  0  0  0  0  0  0  0  0
   -6.3133   -1.8513   17.4302 O   0  0  0  0  0  0  0  0  0  0  0  0
   -7.9233   -0.1690   16.8796 C   0  0  2  0  0  0  0  0  0  0  0  0
   -4.8891    6.6808   20.6448 O   0  0  0  0  0  0  0  0  0  0  0  0
   -5.2465    4.0646   15.2406 N   0  0  0  0  0  0  0  0  0  0  0  0
   -5.1298    3.3959   16.4432 C   0  0  0  0  0  0  0  0  0  0  0  0
   -5.9188    2.2941   16.7147 N   0  0  0  0  0  0  0  0  0  0  0  0
   -6.8215    1.8587   15.8040 C   0  0  0  0  0  0  0  0  0  0  0  0
   -6.9469    2.5137   14.5851 C   0  0  0  0  0  0  0  0  0  0  0  0
   -6.1587    3.6237   14.3066 C   0  0  0  0  0  0  0  0  0  0  0  0
   -6.2857    4.2566   13.1428 N   0  0  0  0  0  0  0  0  0  0  0  0
   -7.9000    1.8785   13.8697 N   0  0  0  0  0  0  0  0  0  0  0  0
   -8.3637    0.8347   14.5963 C   0  0  0  0  0  0  0  0  0  0  0  0
   -7.7064    0.8064   15.7980 N   0  0  0  0  0  0  0  0  0  0  0  0
  2  1  1  1  0  0  0
  2  3  1  0  0  0  0
  2  5  1  0  0  0  0
  3  4  1  0  0  0  0
  3 17  1  0  0  0  0
  5  6  1  0  0  0  0
  7  6  1  1  0  0  0
  7  8  1  0  0  0  0
  7  9  1  0  0  0  0
 10  9  1  1  0  0  0
 10 11  1  0  0  0  0
 10 12  1  0  0  0  0
 11 16  1  0  0  0  0
 12 13  1  1  0  0  0
 12 14  1  0  0  0  0
 14 15  1  1  0  0  0
 14 16  1  0  0  0  0
 16 27  1  6  0  0  0
 18 19  2  0  0  0  0
 18 23  1  0  0  0  0
 19 20  1  0  0  0  0
 20 21  2  0  0  0  0
 21 22  1  0  0  0  0
 21 27  1  0  0  0  0
 22 23  2  0  0  0  0
 22 25  1  0  0  0  0
 23 24  1  0  0  0  0
 25 26  2  0  0  0  0
 26 27  1  0  0  0  0
M  END
>  <CHROM.1>
151.73567906,-115.71746829,-68.27365682,-79.48262005,-174.37352184,-68.15914327
76.20063002,-6.90964996,2.42368323,18.12685377,-1.21463546,-1.23826135,-1.81294357

>  <Name>
ligand

>  <RI>
0

>  <Rbt.Current_Directory>
/home/itssahil/PROJECTS/Mol_Feturizer/New_Systems/rnas/3GX6

>  <Rbt.Executable>
rbdock ($Id: //depot/dev/client3/rdock/2013.1/src/exe/rbdock.cxx#4 $)

>  <Rbt.Library>
libRbt.so (2013.1, Build901 2013/11/27)

>  <Rbt.Parameter_File>
/export/apps/rDock/src/rDock_2013.1_src/data/scripts/dock_solv.prm

>  <Rbt.Receptor>
prm/blind_docking_60.prm

>  <SCORE>
-17.2745

>  <SCORE.INTER>
-8.38464

>  <SCORE.INTER.CONST>
1

>  <SCORE.INTER.POLAR>
0

>  <SCORE.INTER.ROT>
7

>  <SCORE.INTER.SOLV>
7.81108

>  <SCORE.INTER.VDW>
-16.4601

>  <SCORE.INTER.norm>
-0.310542

>  <SCORE.INTRA>
-8.88988

>  <SCORE.INTRA.DIHEDRAL>
-4.7528

>  <SCORE.INTRA.DIHEDRAL.0>
15.0182

>  <SCORE.INTRA.POLAR>
0

>  <SCORE.INTRA.POLAR.0>
0

>  <SCORE.INTRA.REPUL>
0

>  <SCORE.INTRA.REPUL.0>
0

>  <SCORE.INTRA.SOLV>
-1.22478

>  <SCORE.INTRA.SOLV.lig_0>
-47.9129

>  <SCORE.INTRA.VDW>
-5.90109

>  <SCORE.INTRA.VDW.0>
2.00851

>  <SCORE.INTRA.norm>
-0.329255

>  <SCORE.RESTR>
0

>  <SCORE.RESTR.CAVITY>
0

>  <SCORE.RESTR.norm>
0

>  <SCORE.SYSTEM>
0

>  <SCORE.SYSTEM.CONST>
0

>  <SCORE.SYSTEM.DIHEDRAL>
0

>  <SCORE.SYSTEM.SOLV>
0

>  <SCORE.SYSTEM.norm>
0

>  <SCORE.heavy>
27

>  <SCORE.norm>
-0.639797

>  <RMSD>
18.072

$$$$
ligand
 OpenBabel11021811483D
libRbt.so/2013.1/901 2013/11/27
 27 29  0  0  0  0  0  0  0  0999 V2000
   -6.1453   -5.0012   10.8843 N   0  0  0  0  0  0  0  0  0  0  0  0
   -6.4051   -5.7344   12.1203 C   0  0  2  0  0  0  0  0  0  0  0  0
   -7.0272   -7.1020   11.8508 C   0  0  0  0  0  0  0  0  0  0  0  0
   -6.7606   -8.0741   12.5610 O   0  0  0  0  0  0  0  0  0  0  0  0
   -7.2666   -4.9097   13.0720 C   0  0  0  0  0  0  0  0  0  0  0  0
   -8.6292   -4.5552   12.4970 C   0  0  0  0  0  0  0  0  0  0  0  0
   -9.5638   -3.3761   13.5033 S   0  0  2  0  0  0  0  0  0  0  0  0
  -10.9813   -3.0713   12.4196 C   0  0  0  0  0  0  0  0  0  0  0  0
   -8.5940   -1.8645   13.2528 C   0  0  0  0  0  0  0  0  0  0  0  0
   -9.3937   -0.6653   13.7416 C   0  0  1  0  0  0  0  0  0  0  0  0
   -9.9175   -0.9706   15.0121 O   0  0  0  0  0  0  0  0  0  0  0  0
   -8.6022    0.6118   13.9526 C   0  0  1  0  0  0  0  0  0  0  0  0
   -8.6934    1.4533   12.8247 O   0  0  0  0  0  0  0  0  0  0  0  0
   -9.2967    1.2527   15.1370 C   0  0  1  0  0  0  0  0  0  0  0  0
  -10.0622    2.3364   14.6709 O   0  0  0  0  0  0  0  0  0  0  0  0
  -10.2195    0.1974   15.7315 C   0  0  2  0  0  0  0  0  0  0  0  0
   -7.8068   -7.2614   10.9114 O   0  0  0  0  0  0  0  0  0  0  0  0
   -6.4142   -0.9842   19.1810 N   0  0  0  0  0  0  0  0  0  0  0  0
   -6.3171   -0.8820   17.8073 C   0  0  0  0  0  0  0  0  0  0  0  0
   -7.4253   -0.5626   17.0456 N   0  0  0  0  0  0  0  0  0  0  0  0
   -8.6240   -0.3499   17.6387 C   0  0  0  0  0  0  0  0  0  0  0  0
   -8.7390   -0.4399   19.0205 C   0  0  0  0  0  0  0  0  0  0  0  0
   -7.6295   -0.7633   19.7920 C   0  0  0  0  0  0  0  0  0  0  0  0
   -7.7419   -0.8588   21.1146 N   0  0  0  0  0  0  0  0  0  0  0  0
  -10.0227   -0.1777   19.3473 N   0  0  0  0  0  0  0  0  0  0  0  0
  -10.7122    0.0910   18.2136 C   0  0  0  0  0  0  0  0  0  0  0  0
   -9.8614   -0.0105   17.1447 N   0  0  0  0  0  0  0  0  0  0  0  0
  2  1  1  6  0  0  0
  2  3  1  0  0  0  0
  2  5  1  0  0  0  0
  3  4  1  0  0  0  0
  3 17  1  0  0  0  0
  5  6  1  0  0  0  0
  7  6  1  6  0  0  0
  7  8  1  0  0  0  0
  7  9  1  0  0  0  0
 10  9  1  1  0  0  0
 10 11  1  0  0  0  0
 10 12  1  0  0  0  0
 11 16  1  0  0  0  0
 12 13  1  6  0  0  0
 12 14  1  0  0  0  0
 14 15  1  6  0  0  0
 14 16  1  0  0  0  0
 16 27  1  1  0  0  0
 18 19  2  0  0  0  0
 18 23  1  0  0  0  0
 19 20  1  0  0  0  0
 20 21  2  0  0  0  0
 21 22  1  0  0  0  0
 21 27  1  0  0  0  0
 22 23  2  0  0  0  0
 22 25  1  0  0  0  0
 23 24  1  0  0  0  0
 25 26  2  0  0  0  0
 26 27  1  0  0  0  0
M  END
>  <CHROM.1>
145.16874943,60.76198468,-171.33935095,173.62730349,166.34528039,47.18549862
57.51269115,-8.54261662,-2.02344589,15.01080532,-1.26793741,-1.06686811,1.05625976

>  <Name>
ligand

>  <RI>
0

>  <Rbt.Current_Directory>
/home/itssahil/PROJECTS/Mol_Feturizer/New_Systems/rnas/3GX6

>  <Rbt.Executable>
rbdock ($Id: //depot/dev/client3/rdock/2013.1/src/exe/rbdock.cxx#4 $)

>  <Rbt.Library>
libRbt.so (2013.1, Build901 2013/11/27)

>  <Rbt.Parameter_File>
/export/apps/rDock/src/rDock_2013.1_src/data/scripts/dock_solv.prm

>  <Rbt.Receptor>
prm/blind_docking_40.prm

>  <SCORE>
-22.9467

>  <SCORE.INTER>
-12.7129

>  <SCORE.INTER.CONST>
1

>  <SCORE.INTER.POLAR>
0

>  <SCORE.INTER.ROT>
7

>  <SCORE.INTER.SOLV>
13.3379

>  <SCORE.INTER.VDW>
-21.1879

>  <SCORE.INTER.norm>
-0.470847

>  <SCORE.INTRA>
-10.2338

>  <SCORE.INTRA.DIHEDRAL>
-10.895

>  <SCORE.INTRA.DIHEDRAL.0>
15.0182

>  <SCORE.INTRA.POLAR>
0

>  <SCORE.INTRA.POLAR.0>
0

>  <SCORE.INTRA.REPUL>
0

>  <SCORE.INTRA.REPUL.0>
0

>  <SCORE.INTRA.SOLV>
-1.01806

>  <SCORE.INTRA.SOLV.lig_0>
-47.9129

>  <SCORE.INTRA.VDW>
-4.27727

>  <SCORE.INTRA.VDW.0>
2.00851

>  <SCORE.INTRA.norm>
-0.379029

>  <SCORE.RESTR>
0

>  <SCORE.RESTR.CAVITY>
0

>  <SCORE.RESTR.norm>
0

>  <SCORE.SYSTEM>
0

>  <SCORE.SYSTEM.CONST>
0

>  <SCORE.SYSTEM.DIHEDRAL>
0

>  <SCORE.SYSTEM.SOLV>
0

>  <SCORE.SYSTEM.norm>
0

>  <SCORE.heavy>
27

>  <SCORE.norm>
-0.849876

>  <RMSD>
18.082

$$$$
ligand
 OpenBabel11021811483D
libRbt.so/2013.1/901 2013/11/27
 27 29  0  0  0  0  0  0  0  0999 V2000
  -13.8649    4.9845   12.0810 N   0  0  0  0  0  0  0  0  0  0  0  0
  -12.4187    4.8409   12.2244 C   0  0  2  0  0  0  0  0  0  0  0  0
  -11.9730    3.3887   12.0743 C   0  0  0  0  0  0  0  0  0  0  0  0
  -10.9569    3.0967   11.4399 O   0  0  0  0  0  0  0  0  0  0  0  0
  -11.9409    5.4351   13.5460 C   0  0  0  0  0  0  0  0  0  0  0  0
  -10.4261    5.5040   13.6629 C   0  0  0  0  0  0  0  0  0  0  0  0
   -9.8205    5.4522   15.3678 S   0  0  2  0  0  0  0  0  0  0  0  0
   -8.0335    5.4954   15.0827 C   0  0  0  0  0  0  0  0  0  0  0  0
  -10.0734    3.7022   15.7705 C   0  0  0  0  0  0  0  0  0  0  0  0
  -10.1005    3.5313   17.2825 C   0  0  1  0  0  0  0  0  0  0  0  0
  -10.5173    2.2183   17.5723 O   0  0  0  0  0  0  0  0  0  0  0  0
   -8.7627    3.6701   17.9846 C   0  0  1  0  0  0  0  0  0  0  0  0
   -8.5900    4.9766   18.4864 O   0  0  0  0  0  0  0  0  0  0  0  0
   -8.8736    2.6838   19.1296 C   0  0  1  0  0  0  0  0  0  0  0  0
   -9.0656    3.4054   20.3213 O   0  0  0  0  0  0  0  0  0  0  0  0
  -10.0991    1.8232   18.8537 C   0  0  2  0  0  0  0  0  0  0  0  0
  -12.6265    2.4773   12.5822 O   0  0  0  0  0  0  0  0  0  0  0  0
   -8.0755   -2.0741   15.9397 N   0  0  0  0  0  0  0  0  0  0  0  0
   -8.3156   -0.7668   15.5653 C   0  0  0  0  0  0  0  0  0  0  0  0
   -8.8585    0.1335   16.4625 N   0  0  0  0  0  0  0  0  0  0  0  0
   -9.1668   -0.2581   17.7217 C   0  0  0  0  0  0  0  0  0  0  0  0
   -8.9244   -1.5673   18.1190 C   0  0  0  0  0  0  0  0  0  0  0  0
   -8.3812   -2.4783   17.2212 C   0  0  0  0  0  0  0  0  0  0  0  0
   -8.1579   -3.7346   17.5990 N   0  0  0  0  0  0  0  0  0  0  0  0
   -9.3108   -1.6875   19.4073 N   0  0  0  0  0  0  0  0  0  0  0  0
   -9.7721   -0.4888   19.8349 C   0  0  0  0  0  0  0  0  0  0  0  0
   -9.6900    0.4095   18.8038 N   0  0  0  0  0  0  0  0  0  0  0  0
  2  1  1  1  0  0  0
  2  3  1  0  0  0  0
  2  5  1  0  0  0  0
  3  4  1  0  0  0  0
  3 17  1  0  0  0  0
  5  6  1  0  0  0  0
  7  6  1  6  0  0  0
  7  8  1  0  0  0  0
  7  9  1  0  0  0  0
 10  9  1  6  0  0  0
 10 11  1  0  0  0  0
 10 12  1  0  0  0  0
 11 16  1  0  0  0  0
 12 13  1  1  0  0  0
 12 14  1  0  0  0  0
 14 15  1  1  0  0  0
 14 16  1  0  0  0  0
 16 27  1  6  0  0  0
 18 19  2  0  0  0  0
 18 23  1  0  0  0  0
 19 20  1  0  0  0  0
 20 21  2  0  0  0  0
 21 22  1  0  0  0  0
 21 27  1  0  0  0  0
 22 23  2  0  0  0  0
 22 25  1  0  0  0  0
 23 24  1  0  0  0  0
 25 26  2  0  0  0  0
 26 27  1  0  0  0  0
M  END
>  <CHROM.1>
138.63277790,-171.39257690,-153.16417721,178.12473352,-159.93988920,170.31848342
29.40405406,-9.89772918,2.26290735,16.22504650,2.57925782,-1.17669896,0.23566790

>  <Name>
ligand

>  <RI>
0

>  <Rbt.Current_Directory>
/home/itssahil/PROJECTS/Mol_Feturizer/New_Systems/rnas/3GX6

>  <Rbt.Executable>
rbdock ($Id: //depot/dev/client3/rdock/2013.1/src/exe/rbdock.cxx#4 $)

>  <Rbt.Library>
libRbt.so (2013.1, Build901 2013/11/27)

>  <Rbt.Parameter_File>
/export/apps/rDock/src/rDock_2013.1_src/data/scripts/dock_solv.prm

>  <Rbt.Receptor>
prm/blind_docking_100.prm

>  <SCORE>
-18.7777

>  <SCORE.INTER>
-9.17396

>  <SCORE.INTER.CONST>
1

>  <SCORE.INTER.POLAR>
0

>  <SCORE.INTER.ROT>
7

>  <SCORE.INTER.SOLV>
16.4538

>  <SCORE.INTER.VDW>
-19.8672

>  <SCORE.INTER.norm>
-0.339776

>  <SCORE.INTRA>
-9.60375

>  <SCORE.INTRA.DIHEDRAL>
-6.80361

>  <SCORE.INTRA.DIHEDRAL.0>
15.0182

>  <SCORE.INTRA.POLAR>
0

>  <SCORE.INTRA.POLAR.0>
0

>  <SCORE.INTRA.REPUL>
0

>  <SCORE.INTRA.REPUL.0>
0

>  <SCORE.INTRA.SOLV>
-1.54774

>  <SCORE.INTRA.SOLV.lig_0>
-47.9129

>  <SCORE.INTRA.VDW>
-5.42808

>  <SCORE.INTRA.VDW.0>
2.00851

>  <SCORE.INTRA.norm>
-0.355695

>  <SCORE.RESTR>
0

>  <SCORE.RESTR.CAVITY>
0

>  <SCORE.RESTR.norm>
0

>  <SCORE.SYSTEM>
0

>  <SCORE.SYSTEM.CONST>
0

>  <SCORE.SYSTEM.DIHEDRAL>
0

>  <SCORE.SYSTEM.SOLV>
0

>  <SCORE.SYSTEM.norm>
0

>  <SCORE.heavy>
27

>  <SCORE.norm>
-0.695471

>  <RMSD>
18.138

$$$$
ligand
 OpenBabel11021811483D
libRbt.so/2013.1/901 2013/11/27
 27 29  0  0  0  0  0  0  0  0999 V2000
   -7.1626   -0.0231   18.3330 N   0  0  0  0  0  0  0  0  0  0  0  0
   -7.9303   -1.1089   17.7292 C   0  0  2  0  0  0  0  0  0  0  0  0
   -9.3680   -1.1426   18.2411 C   0  0  0  0  0  0  0  0  0  0  0  0
  -10.2922   -0.6701   17.5756 O   0  0  0  0  0  0  0  0  0  0  0  0
   -7.2341   -2.4502   17.9388 C   0  0  0  0  0  0  0  0  0  0  0  0
   -5.8257   -2.4939   17.3666 C   0  0  0  0  0  0  0  0  0  0  0  0
   -4.9954   -4.0871   17.5866 S   0  0  2  0  0  0  0  0  0  0  0  0
   -3.2801   -3.6114   17.2577 C   0  0  0  0  0  0  0  0  0  0  0  0
   -5.4354   -4.9219   16.0380 C   0  0  0  0  0  0  0  0  0  0  0  0
   -6.9481   -5.0673   15.9555 C   0  0  1  0  0  0  0  0  0  0  0  0
   -7.4703   -3.9169   15.3345 O   0  0  0  0  0  0  0  0  0  0  0  0
   -7.4532   -6.2201   15.1083 C   0  0  1  0  0  0  0  0  0  0  0  0
   -7.7395   -7.3457   15.9082 O   0  0  0  0  0  0  0  0  0  0  0  0
   -8.7313   -5.6696   14.5089 C   0  0  1  0  0  0  0  0  0  0  0  0
   -9.8231   -6.2641   15.1664 O   0  0  0  0  0  0  0  0  0  0  0  0
   -8.7334   -4.1703   14.7746 C   0  0  2  0  0  0  0  0  0  0  0  0
   -9.6316   -1.6403   19.3358 O   0  0  0  0  0  0  0  0  0  0  0  0
  -11.8751   -2.6045   10.8436 N   0  0  0  0  0  0  0  0  0  0  0  0
  -12.2164   -3.3231   11.9723 C   0  0  0  0  0  0  0  0  0  0  0  0
  -11.2581   -3.6552   12.9112 N   0  0  0  0  0  0  0  0  0  0  0  0
   -9.9684   -3.2827   12.7328 C   0  0  0  0  0  0  0  0  0  0  0  0
   -9.6078   -2.5518   11.6075 C   0  0  0  0  0  0  0  0  0  0  0  0
  -10.5657   -2.2169   10.6582 C   0  0  0  0  0  0  0  0  0  0  0  0
  -10.2184   -1.5250    9.5757 N   0  0  0  0  0  0  0  0  0  0  0  0
   -8.2817   -2.3077   11.6795 N   0  0  0  0  0  0  0  0  0  0  0  0
   -7.8032   -2.8485   12.8246 C   0  0  0  0  0  0  0  0  0  0  0  0
   -8.8344   -3.4565   13.4906 N   0  0  0  0  0  0  0  0  0  0  0  0
  2  1  1  1  0  0  0
  2  3  1  0  0  0  0
  2  5  1  0  0  0  0
  3  4  1  0  0  0  0
  3 17  1  0  0  0  0
  5  6  1  0  0  0  0
  7  6  1  6  0  0  0
  7  8  1  0  0  0  0
  7  9  1  0  0  0  0
 10  9  1  6  0  0  0
 10 11  1  0  0  0  0
 10 12  1  0  0  0  0
 11 16  1  0  0  0  0
 12 13  1  1  0  0  0
 12 14  1  0  0  0  0
 14 15  1  1  0  0  0
 14 16  1  0  0  0  0
 16 27  1  6  0  0  0
 18 19  2  0  0  0  0
 18 23  1  0  0  0  0
 19 20  1  0  0  0  0
 20 21  2  0  0  0  0
 21 22  1  0  0  0  0
 21 27  1  0  0  0  0
 22 23  2  0  0  0  0
 22 25  1  0  0  0  0
 23 24  1  0  0  0  0
 25 26  2  0  0  0  0
 26 27  1  0  0  0  0
M  END
>  <CHROM.1>
100.12443073,-58.24762336,-179.16624515,-164.10880829,-61.53954694,89.12471570
-169.54237702,-8.27030109,-3.34359149,15.13041844,0.65136170,-0.77172735
0.87660843

>  <Name>
ligand

>  <RI>
0

>  <Rbt.Current_Directory>
/home/itssahil/PROJECTS/Mol_Feturizer/New_Systems/rnas/3GX6

>  <Rbt.Executable>
rbdock ($Id: //depot/dev/client3/rdock/2013.1/src/exe/rbdock.cxx#4 $)

>  <Rbt.Library>
libRbt.so (2013.1, Build901 2013/11/27)

>  <Rbt.Parameter_File>
/export/apps/rDock/src/rDock_2013.1_src/data/scripts/dock_solv.prm

>  <Rbt.Receptor>
prm/blind_docking_80.prm

>  <SCORE>
-19.1562

>  <SCORE.INTER>
-10.4741

>  <SCORE.INTER.CONST>
1

>  <SCORE.INTER.POLAR>
0

>  <SCORE.INTER.ROT>
7

>  <SCORE.INTER.SOLV>
8.19233

>  <SCORE.INTER.VDW>
-17.9802

>  <SCORE.INTER.norm>
-0.387931

>  <SCORE.INTRA>
-8.68203

>  <SCORE.INTRA.DIHEDRAL>
-7.67083

>  <SCORE.INTRA.DIHEDRAL.0>
15.0182

>  <SCORE.INTRA.POLAR>
0

>  <SCORE.INTRA.POLAR.0>
0

>  <SCORE.INTRA.REPUL>
0

>  <SCORE.INTRA.REPUL.0>
0

>  <SCORE.INTRA.SOLV>
-0.883313

>  <SCORE.INTRA.SOLV.lig_0>
-47.9129

>  <SCORE.INTRA.VDW>
-4.40496

>  <SCORE.INTRA.VDW.0>
2.00851

>  <SCORE.INTRA.norm>
-0.321557

>  <SCORE.RESTR>
0

>  <SCORE.RESTR.CAVITY>
0

>  <SCORE.RESTR.norm>
0

>  <SCORE.SYSTEM>
0

>  <SCORE.SYSTEM.CONST>
0

>  <SCORE.SYSTEM.DIHEDRAL>
0

>  <SCORE.SYSTEM.SOLV>
0

>  <SCORE.SYSTEM.norm>
0

>  <SCORE.heavy>
27

>  <SCORE.norm>
-0.709488

>  <RMSD>
18.168

$$$$
ligand
 OpenBabel11021811483D
libRbt.so/2013.1/901 2013/11/27
 27 29  0  0  0  0  0  0  0  0999 V2000
   -7.7816   -3.6222   17.4329 N   0  0  0  0  0  0  0  0  0  0  0  0
   -7.4635   -2.2938   16.9162 C   0  0  2  0  0  0  0  0  0  0  0  0
   -6.1682   -1.7469   17.5105 C   0  0  0  0  0  0  0  0  0  0  0  0
   -6.1172   -1.3613   18.6805 O   0  0  0  0  0  0  0  0  0  0  0  0
   -8.6262   -1.3308   17.1370 C   0  0  0  0  0  0  0  0  0  0  0  0
   -9.1076   -1.2881   18.5791 C   0  0  0  0  0  0  0  0  0  0  0  0
   -8.6223    0.2117   19.4686 S   0  0  2  0  0  0  0  0  0  0  0  0
   -8.9820   -0.2858   21.1714 C   0  0  0  0  0  0  0  0  0  0  0  0
  -10.0310    1.2960   19.1105 C   0  0  0  0  0  0  0  0  0  0  0  0
   -9.5312    2.5678   18.4405 C   0  0  1  0  0  0  0  0  0  0  0  0
   -9.3388    2.3010   17.0718 O   0  0  0  0  0  0  0  0  0  0  0  0
  -10.4871    3.7457   18.4684 C   0  0  1  0  0  0  0  0  0  0  0  0
  -10.1893    4.6111   19.5412 O   0  0  0  0  0  0  0  0  0  0  0  0
  -10.2134    4.4394   17.1494 C   0  0  1  0  0  0  0  0  0  0  0  0
   -9.4759    5.6090   17.4065 O   0  0  0  0  0  0  0  0  0  0  0  0
   -9.3737    3.4829   16.3135 C   0  0  2  0  0  0  0  0  0  0  0  0
   -5.1465   -1.6758   16.8272 O   0  0  0  0  0  0  0  0  0  0  0  0
  -12.3353    5.4374   12.4169 N   0  0  0  0  0  0  0  0  0  0  0  0
  -11.8423    6.0971   13.5253 C   0  0  0  0  0  0  0  0  0  0  0  0
  -11.0768    5.4264   14.4604 N   0  0  0  0  0  0  0  0  0  0  0  0
  -10.8042    4.1093   14.3026 C   0  0  0  0  0  0  0  0  0  0  0  0
  -11.2845    3.4309   13.1893 C   0  0  0  0  0  0  0  0  0  0  0  0
  -12.0570    4.0985   12.2467 C   0  0  0  0  0  0  0  0  0  0  0  0
  -12.5250    3.4463   11.1852 N   0  0  0  0  0  0  0  0  0  0  0  0
  -10.8665    2.1496   13.2727 N   0  0  0  0  0  0  0  0  0  0  0  0
  -10.1241    2.0083   14.3959 C   0  0  0  0  0  0  0  0  0  0  0  0
  -10.0741    3.2128   15.0467 N   0  0  0  0  0  0  0  0  0  0  0  0
  2  1  1  1  0  0  0
  2  3  1  0  0  0  0
  2  5  1  0  0  0  0
  3  4  1  0  0  0  0
  3 17  1  0  0  0  0
  5  6  1  0  0  0  0
  7  6  1  6  0  0  0
  7  8  1  0  0  0  0
  7  9  1  0  0  0  0
 10  9  1  1  0  0  0
 10 11  1  0  0  0  0
 10 12  1  0  0  0  0
 11 16  1  0  0  0  0
 12 13  1  1  0  0  0
 12 14  1  0  0  0  0
 14 15  1  1  0  0  0
 14 16  1  0  0  0  0
 16 27  1  6  0  0  0
 18 19  2  0  0  0  0
 18 23  1  0  0  0  0
 19 20  1  0  0  0  0
 20 21  2  0  0  0  0
 21 22  1  0  0  0  0
 21 27  1  0  0  0  0
 22 23  2  0  0  0  0
 22 25  1  0  0  0  0
 23 24  1  0  0  0  0
 25 26  2  0  0  0  0
 26 27  1  0  0  0  0
M  END
>  <CHROM.1>
-72.80584780,52.65774123,105.86794943,-166.30061316,-122.75646852,81.53887923
150.68239463,-9.50802480,1.87544019,16.59242652,-0.25961647,1.07982091,-1.97055551

>  <Name>
ligand

>  <RI>
0

>  <Rbt.Current_Directory>
/home/itssahil/PROJECTS/Mol_Feturizer/New_Systems/rnas/3GX6

>  <Rbt.Executable>
rbdock ($Id: //depot/dev/client3/rdock/2013.1/src/exe/rbdock.cxx#4 $)

>  <Rbt.Library>
libRbt.so (2013.1, Build901 2013/11/27)

>  <Rbt.Parameter_File>
/export/apps/rDock/src/rDock_2013.1_src/data/scripts/dock_solv.prm

>  <Rbt.Receptor>
prm/blind_docking_40.prm

>  <SCORE>
-16.6733

>  <SCORE.INTER>
-11.7419

>  <SCORE.INTER.CONST>
1

>  <SCORE.INTER.POLAR>
0

>  <SCORE.INTER.ROT>
7

>  <SCORE.INTER.SOLV>
9.67011

>  <SCORE.INTER.VDW>
-19.3179

>  <SCORE.INTER.norm>
-0.434884

>  <SCORE.INTRA>
-4.93144

>  <SCORE.INTRA.DIHEDRAL>
0.249567

>  <SCORE.INTRA.DIHEDRAL.0>
15.0182

>  <SCORE.INTRA.POLAR>
0

>  <SCORE.INTRA.POLAR.0>
0

>  <SCORE.INTRA.REPUL>
0

>  <SCORE.INTRA.REPUL.0>
0

>  <SCORE.INTRA.SOLV>
-0.830405

>  <SCORE.INTRA.SOLV.lig_0>
-47.9129

>  <SCORE.INTRA.VDW>
-4.64102

>  <SCORE.INTRA.VDW.0>
2.00851

>  <SCORE.INTRA.norm>
-0.182646

>  <SCORE.RESTR>
0

>  <SCORE.RESTR.CAVITY>
0

>  <SCORE.RESTR.norm>
0

>  <SCORE.SYSTEM>
0

>  <SCORE.SYSTEM.CONST>
0

>  <SCORE.SYSTEM.DIHEDRAL>
0

>  <SCORE.SYSTEM.SOLV>
0

>  <SCORE.SYSTEM.norm>
0

>  <SCORE.heavy>
27

>  <SCORE.norm>
-0.61753

>  <RMSD>
18.184

$$$$
ligand
 OpenBabel11021811483D
libRbt.so/2013.1/901 2013/11/27
 27 29  0  0  0  0  0  0  0  0999 V2000
   -7.4493    0.3061   18.1527 N   0  0  0  0  0  0  0  0  0  0  0  0
   -8.3541   -0.7976   18.4629 C   0  0  2  0  0  0  0  0  0  0  0  0
   -9.4869   -0.3620   19.3886 C   0  0  0  0  0  0  0  0  0  0  0  0
  -10.5468   -0.9902   19.4372 O   0  0  0  0  0  0  0  0  0  0  0  0
   -7.5881   -1.9833   19.0418 C   0  0  0  0  0  0  0  0  0  0  0  0
   -6.7874   -2.7498   18.0003 C   0  0  0  0  0  0  0  0  0  0  0  0
   -7.8065   -3.5443   16.7329 S   0  0  2  0  0  0  0  0  0  0  0  0
   -8.2446   -5.0824   17.5808 C   0  0  0  0  0  0  0  0  0  0  0  0
   -6.5327   -4.1249   15.5802 C   0  0  0  0  0  0  0  0  0  0  0  0
   -7.1953   -4.8639   14.4265 C   0  0  1  0  0  0  0  0  0  0  0  0
   -8.5590   -4.5154   14.4024 O   0  0  0  0  0  0  0  0  0  0  0  0
   -6.6875   -4.5116   13.0409 C   0  0  1  0  0  0  0  0  0  0  0  0
   -5.7117   -5.4349   12.6119 O   0  0  0  0  0  0  0  0  0  0  0  0
   -7.9295   -4.6305   12.1811 C   0  0  1  0  0  0  0  0  0  0  0  0
   -7.8353   -5.8122   11.4245 O   0  0  0  0  0  0  0  0  0  0  0  0
   -9.1158   -4.7285   13.1306 C   0  0  2  0  0  0  0  0  0  0  0  0
   -9.3643    0.6327   20.1036 O   0  0  0  0  0  0  0  0  0  0  0  0
  -10.3121    0.3568   13.8260 N   0  0  0  0  0  0  0  0  0  0  0  0
   -9.2292   -0.3396   14.3253 C   0  0  0  0  0  0  0  0  0  0  0  0
   -9.0672   -1.6833   14.0451 N   0  0  0  0  0  0  0  0  0  0  0  0
   -9.9735   -2.3359   13.2792 C   0  0  0  0  0  0  0  0  0  0  0  0
  -11.0648   -1.6496   12.7610 C   0  0  0  0  0  0  0  0  0  0  0  0
  -11.2353   -0.2992   13.0410 C   0  0  0  0  0  0  0  0  0  0  0  0
  -12.2857    0.3557   12.5524 N   0  0  0  0  0  0  0  0  0  0  0  0
  -11.7973   -2.5227   12.0366 N   0  0  0  0  0  0  0  0  0  0  0  0
  -11.1889   -3.7315   12.0707 C   0  0  0  0  0  0  0  0  0  0  0  0
  -10.0567   -3.6347   12.8358 N   0  0  0  0  0  0  0  0  0  0  0  0
  2  1  1  1  0  0  0
  2  3  1  0  0  0  0
  2  5  1  0  0  0  0
  3  4  1  0  0  0  0
  3 17  1  0  0  0  0
  5  6  1  0  0  0  0
  7  6  1  1  0  0  0
  7  8  1  0  0  0  0
  7  9  1  0  0  0  0
 10  9  1  1  0  0  0
 10 11  1  0  0  0  0
 10 12  1  0  0  0  0
 11 16  1  0  0  0  0
 12 13  1  6  0  0  0
 12 14  1  0  0  0  0
 14 15  1  1  0  0  0
 14 16  1  0  0  0  0
 16 27  1  6  0  0  0
 18 19  2  0  0  0  0
 18 23  1  0  0  0  0
 19 20  1  0  0  0  0
 20 21  2  0  0  0  0
 21 22  1  0  0  0  0
 21 27  1  0  0  0  0
 22 23  2  0  0  0  0
 22 25  1  0  0  0  0
 23 24  1  0  0  0  0
 25 26  2  0  0  0  0
 26 27  1  0  0  0  0
M  END
>  <CHROM.1>
157.35533215,-74.30062991,-64.06203411,-84.05019664,178.86478430,17.71229483
30.74784777,-8.84271810,-2.63018337,15.11935481,-1.54377898,0.79421188,-2.05431548

>  <Name>
ligand

>  <RI>
0

>  <Rbt.Current_Directory>
/home/itssahil/PROJECTS/Mol_Feturizer/New_Systems/rnas/3GX6

>  <Rbt.Executable>
rbdock ($Id: //depot/dev/client3/rdock/2013.1/src/exe/rbdock.cxx#4 $)

>  <Rbt.Library>
libRbt.so (2013.1, Build901 2013/11/27)

>  <Rbt.Parameter_File>
/export/apps/rDock/src/rDock_2013.1_src/data/scripts/dock_solv.prm

>  <Rbt.Receptor>
prm/blind_docking_80.prm

>  <SCORE>
-17.3231

>  <SCORE.INTER>
-9.9076

>  <SCORE.INTER.CONST>
1

>  <SCORE.INTER.POLAR>
0

>  <SCORE.INTER.ROT>
7

>  <SCORE.INTER.SOLV>
7.3752

>  <SCORE.INTER.VDW>
-17.3301

>  <SCORE.INTER.norm>
-0.366948

>  <SCORE.INTRA>
-7.41551

>  <SCORE.INTRA.DIHEDRAL>
-5.89736

>  <SCORE.INTRA.DIHEDRAL.0>
15.0182

>  <SCORE.INTRA.POLAR>
0

>  <SCORE.INTRA.POLAR.0>
0

>  <SCORE.INTRA.REPUL>
0

>  <SCORE.INTRA.REPUL.0>
0

>  <SCORE.INTRA.SOLV>
-0.652572

>  <SCORE.INTRA.SOLV.lig_0>
-47.9129

>  <SCORE.INTRA.VDW>
-4.14054

>  <SCORE.INTRA.VDW.0>
2.00851

>  <SCORE.INTRA.norm>
-0.274648

>  <SCORE.RESTR>
0

>  <SCORE.RESTR.CAVITY>
0

>  <SCORE.RESTR.norm>
0

>  <SCORE.SYSTEM>
0

>  <SCORE.SYSTEM.CONST>
0

>  <SCORE.SYSTEM.DIHEDRAL>
0

>  <SCORE.SYSTEM.SOLV>
0

>  <SCORE.SYSTEM.norm>
0

>  <SCORE.heavy>
27

>  <SCORE.norm>
-0.641597

>  <RMSD>
18.212

$$$$
ligand
 OpenBabel11021811483D
libRbt.so/2013.1/901 2013/11/27
 27 29  0  0  0  0  0  0  0  0999 V2000
   -9.9365    3.3737   16.5577 N   0  0  0  0  0  0  0  0  0  0  0  0
  -10.3864    3.1670   17.9317 C   0  0  2  0  0  0  0  0  0  0  0  0
  -10.0126    4.3390   18.8354 C   0  0  0  0  0  0  0  0  0  0  0  0
  -10.8133    4.7899   19.6576 O   0  0  0  0  0  0  0  0  0  0  0  0
   -9.8571    1.8475   18.4853 C   0  0  0  0  0  0  0  0  0  0  0  0
  -10.5860    0.6295   17.9392 C   0  0  0  0  0  0  0  0  0  0  0  0
   -9.8254   -0.9467   18.4012 S   0  0  2  0  0  0  0  0  0  0  0  0
   -9.5487   -0.6718   20.1688 C   0  0  0  0  0  0  0  0  0  0  0  0
   -8.1505   -0.7277   17.7415 C   0  0  0  0  0  0  0  0  0  0  0  0
   -7.4760   -2.0862   17.6161 C   0  0  1  0  0  0  0  0  0  0  0  0
   -8.0906   -2.7901   16.5632 O   0  0  0  0  0  0  0  0  0  0  0  0
   -6.0044   -2.0590   17.2482 C   0  0  1  0  0  0  0  0  0  0  0  0
   -5.1953   -2.1544   18.3993 O   0  0  0  0  0  0  0  0  0  0  0  0
   -5.8423   -3.3003   16.3945 C   0  0  1  0  0  0  0  0  0  0  0  0
   -5.1727   -4.2774   17.1527 O   0  0  0  0  0  0  0  0  0  0  0  0
   -7.2441   -3.7907   16.0582 C   0  0  2  0  0  0  0  0  0  0  0  0
   -8.9007    4.8615   18.7560 O   0  0  0  0  0  0  0  0  0  0  0  0
   -6.3030   -6.4922   11.6319 N   0  0  0  0  0  0  0  0  0  0  0  0
   -5.9607   -6.8314   12.9261 C   0  0  0  0  0  0  0  0  0  0  0  0
   -6.2852   -5.9990   13.9806 N   0  0  0  0  0  0  0  0  0  0  0  0
   -6.9404   -4.8353   13.7562 C   0  0  0  0  0  0  0  0  0  0  0  0
   -7.3006   -4.4815   12.4617 C   0  0  0  0  0  0  0  0  0  0  0  0
   -6.9751   -5.3125   11.3965 C   0  0  0  0  0  0  0  0  0  0  0  0
   -7.3118   -4.9689   10.1557 N   0  0  0  0  0  0  0  0  0  0  0  0
   -7.9412   -3.2942   12.5198 N   0  0  0  0  0  0  0  0  0  0  0  0
   -8.0089   -2.9013   13.8135 C   0  0  0  0  0  0  0  0  0  0  0  0
   -7.3942   -3.8443   14.5943 N   0  0  0  0  0  0  0  0  0  0  0  0
  2  1  1  6  0  0  0
  2  3  1  0  0  0  0
  2  5  1  0  0  0  0
  3  4  1  0  0  0  0
  3 17  1  0  0  0  0
  5  6  1  0  0  0  0
  7  6  1  6  0  0  0
  7  8  1  0  0  0  0
  7  9  1  0  0  0  0
 10  9  1  6  0  0  0
 10 11  1  0  0  0  0
 10 12  1  0  0  0  0
 11 16  1  0  0  0  0
 12 13  1  1  0  0  0
 12 14  1  0  0  0  0
 14 15  1  1  0  0  0
 14 16  1  0  0  0  0
 16 27  1  6  0  0  0
 18 19  2  0  0  0  0
 18 23  1  0  0  0  0
 19 20  1  0  0  0  0
 20 21  2  0  0  0  0
 21 22  1  0  0  0  0
 21 27  1  0  0  0  0
 22 23  2  0  0  0  0
 22 25  1  0  0  0  0
 23 24  1  0  0  0  0
 25 26  2  0  0  0  0
 26 27  1  0  0  0  0
M  END
>  <CHROM.1>
137.19825231,-75.26065032,171.86053748,46.53220746,-161.71012005,70.71301289
-166.95488682,-8.01043570,-1.66987934,16.19753672,2.17955553,-0.99180753
1.15106048

>  <Name>
ligand

>  <RI>
0

>  <Rbt.Current_Directory>
/home/itssahil/PROJECTS/Mol_Feturizer/New_Systems/rnas/3GX6

>  <Rbt.Executable>
rbdock ($Id: //depot/dev/client3/rdock/2013.1/src/exe/rbdock.cxx#4 $)

>  <Rbt.Library>
libRbt.so (2013.1, Build901 2013/11/27)

>  <Rbt.Parameter_File>
/export/apps/rDock/src/rDock_2013.1_src/data/scripts/dock_solv.prm

>  <Rbt.Receptor>
prm/blind_docking_40.prm

>  <SCORE>
-20.2888

>  <SCORE.INTER>
-12.3591

>  <SCORE.INTER.CONST>
1

>  <SCORE.INTER.POLAR>
0

>  <SCORE.INTER.ROT>
7

>  <SCORE.INTER.SOLV>
17.0209

>  <SCORE.INTER.VDW>
-22.1797

>  <SCORE.INTER.norm>
-0.457743

>  <SCORE.INTRA>
-7.92974

>  <SCORE.INTRA.DIHEDRAL>
-8.38824

>  <SCORE.INTRA.DIHEDRAL.0>
15.0182

>  <SCORE.INTRA.POLAR>
0

>  <SCORE.INTRA.POLAR.0>
0

>  <SCORE.INTRA.REPUL>
0

>  <SCORE.INTRA.REPUL.0>
0

>  <SCORE.INTRA.SOLV>
-1.26744

>  <SCORE.INTRA.SOLV.lig_0>
-47.9129

>  <SCORE.INTRA.VDW>
-3.1019

>  <SCORE.INTRA.VDW.0>
2.00851

>  <SCORE.INTRA.norm>
-0.293694

>  <SCORE.RESTR>
0

>  <SCORE.RESTR.CAVITY>
0

>  <SCORE.RESTR.norm>
0

>  <SCORE.SYSTEM>
0

>  <SCORE.SYSTEM.CONST>
0

>  <SCORE.SYSTEM.DIHEDRAL>
0

>  <SCORE.SYSTEM.SOLV>
0

>  <SCORE.SYSTEM.norm>
0

>  <SCORE.heavy>
27

>  <SCORE.norm>
-0.751437

>  <RMSD>
18.245

$$$$
ligand
 OpenBabel11021811483D
libRbt.so/2013.1/901 2013/11/27
 27 29  0  0  0  0  0  0  0  0999 V2000
   -8.8647    5.9573   10.8671 N   0  0  0  0  0  0  0  0  0  0  0  0
   -8.0651    5.7336   12.0686 C   0  0  2  0  0  0  0  0  0  0  0  0
   -6.8219    4.8972   11.7775 C   0  0  0  0  0  0  0  0  0  0  0  0
   -5.7212    5.4281   11.6135 O   0  0  0  0  0  0  0  0  0  0  0  0
   -8.9088    5.1085   13.1756 C   0  0  0  0  0  0  0  0  0  0  0  0
   -8.1424    4.9009   14.4728 C   0  0  0  0  0  0  0  0  0  0  0  0
   -9.1464    4.2169   15.8146 S   0  0  2  0  0  0  0  0  0  0  0  0
   -9.9784    5.7148   16.3981 C   0  0  0  0  0  0  0  0  0  0  0  0
   -7.8899    3.9846   17.1013 C   0  0  0  0  0  0  0  0  0  0  0  0
   -8.5619    3.5152   18.3837 C   0  0  1  0  0  0  0  0  0  0  0  0
   -9.3032    2.3537   18.0955 O   0  0  0  0  0  0  0  0  0  0  0  0
   -7.6260    3.1017   19.5039 C   0  0  1  0  0  0  0  0  0  0  0  0
   -7.4260    4.1627   20.4110 O   0  0  0  0  0  0  0  0  0  0  0  0
   -8.3794    1.9744   20.1803 C   0  0  1  0  0  0  0  0  0  0  0  0
   -8.8978    2.4529   21.3969 O   0  0  0  0  0  0  0  0  0  0  0  0
   -9.5265    1.5924   19.2546 C   0  0  2  0  0  0  0  0  0  0  0  0
   -6.8969    3.6711   11.6955 O   0  0  0  0  0  0  0  0  0  0  0  0
   -6.6055   -2.1750   17.0074 N   0  0  0  0  0  0  0  0  0  0  0  0
   -6.3161   -0.8300   17.1268 C   0  0  0  0  0  0  0  0  0  0  0  0
   -7.2031    0.0278   17.7493 N   0  0  0  0  0  0  0  0  0  0  0  0
   -8.3721   -0.4409   18.2469 C   0  0  0  0  0  0  0  0  0  0  0  0
   -8.6766   -1.7927   18.1437 C   0  0  0  0  0  0  0  0  0  0  0  0
   -7.7905   -2.6602   17.5167 C   0  0  0  0  0  0  0  0  0  0  0  0
   -8.0866   -3.9532   17.4095 N   0  0  0  0  0  0  0  0  0  0  0  0
   -9.8815   -1.9911   18.7202 N   0  0  0  0  0  0  0  0  0  0  0  0
  -10.3337   -0.8076   19.1971 C   0  0  0  0  0  0  0  0  0  0  0  0
   -9.4112    0.1646   18.9133 N   0  0  0  0  0  0  0  0  0  0  0  0
  2  1  1  6  0  0  0
  2  3  1  0  0  0  0
  2  5  1  0  0  0  0
  3  4  1  0  0  0  0
  3 17  1  0  0  0  0
  5  6  1  0  0  0  0
  7  6  1  6  0  0  0
  7  8  1  0  0  0  0
  7  9  1  0  0  0  0
 10  9  1  6  0  0  0
 10 11  1  0  0  0  0
 10 12  1  0  0  0  0
 11 16  1  0  0  0  0
 12 13  1  1  0  0  0
 12 14  1  0  0  0  0
 14 15  1  1  0  0  0
 14 16  1  0  0  0  0
 16 27  1  6  0  0  0
 18 19  2  0  0  0  0
 18 23  1  0  0  0  0
 19 20  1  0  0  0  0
 20 21  2  0  0  0  0
 21 22  1  0  0  0  0
 21 27  1  0  0  0  0
 22 23  2  0  0  0  0
 22 25  1  0  0  0  0
 23 24  1  0  0  0  0
 25 26  2  0  0  0  0
 26 27  1  0  0  0  0
M  END
>  <CHROM.1>
98.74494238,-177.77108080,177.84898641,-80.85826845,175.22438426,55.38853808
51.31715517,-8.28744004,2.21968082,16.68048389,-1.25231842,-1.31522716,2.63972896

>  <Name>
ligand

>  <RI>
0

>  <Rbt.Current_Directory>
/home/itssahil/PROJECTS/Mol_Feturizer/New_Systems/rnas/3GX6

>  <Rbt.Executable>
rbdock ($Id: //depot/dev/client3/rdock/2013.1/src/exe/rbdock.cxx#4 $)

>  <Rbt.Library>
libRbt.so (2013.1, Build901 2013/11/27)

>  <Rbt.Parameter_File>
/export/apps/rDock/src/rDock_2013.1_src/data/scripts/dock_solv.prm

>  <Rbt.Receptor>
prm/blind_docking_60.prm

>  <SCORE>
-19.7094

>  <SCORE.INTER>
-8.8888

>  <SCORE.INTER.CONST>
1

>  <SCORE.INTER.POLAR>
0

>  <SCORE.INTER.ROT>
7

>  <SCORE.INTER.SOLV>
7.93428

>  <SCORE.INTER.VDW>
-16.8373

>  <SCORE.INTER.norm>
-0.329215

>  <SCORE.INTRA>
-10.8206

>  <SCORE.INTRA.DIHEDRAL>
-11.2216

>  <SCORE.INTRA.DIHEDRAL.0>
15.0182

>  <SCORE.INTRA.POLAR>
0

>  <SCORE.INTRA.POLAR.0>
0

>  <SCORE.INTRA.REPUL>
0

>  <SCORE.INTRA.REPUL.0>
0

>  <SCORE.INTRA.SOLV>
-1.79937

>  <SCORE.INTRA.SOLV.lig_0>
-47.9129

>  <SCORE.INTRA.VDW>
-4.31017

>  <SCORE.INTRA.VDW.0>
2.00851

>  <SCORE.INTRA.norm>
-0.400764

>  <SCORE.RESTR>
0

>  <SCORE.RESTR.CAVITY>
0

>  <SCORE.RESTR.norm>
0

>  <SCORE.SYSTEM>
0

>  <SCORE.SYSTEM.CONST>
0

>  <SCORE.SYSTEM.DIHEDRAL>
0

>  <SCORE.SYSTEM.SOLV>
0

>  <SCORE.SYSTEM.norm>
0

>  <SCORE.heavy>
27

>  <SCORE.norm>
-0.729979

>  <RMSD>
18.253

$$$$
ligand
 OpenBabel11021811483D
libRbt.so/2013.1/901 2013/11/27
 27 29  0  0  0  0  0  0  0  0999 V2000
   -8.8334   -6.7471   16.9612 N   0  0  0  0  0  0  0  0  0  0  0  0
   -9.6132   -7.1641   15.7989 C   0  0  2  0  0  0  0  0  0  0  0  0
  -10.4083   -8.4377   16.0741 C   0  0  0  0  0  0  0  0  0  0  0  0
  -11.6102   -8.5082   15.8078 O   0  0  0  0  0  0  0  0  0  0  0  0
   -8.7202   -7.3207   14.5717 C   0  0  0  0  0  0  0  0  0  0  0  0
   -8.1945   -5.9977   14.0365 C   0  0  0  0  0  0  0  0  0  0  0  0
   -7.6854   -6.0609   12.3007 S   0  0  2  0  0  0  0  0  0  0  0  0
   -6.0994   -6.9196   12.4550 C   0  0  0  0  0  0  0  0  0  0  0  0
   -7.1395   -4.3515   12.0391 C   0  0  0  0  0  0  0  0  0  0  0  0
   -8.3548   -3.4371   11.9814 C   0  0  1  0  0  0  0  0  0  0  0  0
   -8.8313   -3.2508   13.2929 O   0  0  0  0  0  0  0  0  0  0  0  0
   -8.0983   -2.0333   11.4662 C   0  0  1  0  0  0  0  0  0  0  0  0
   -8.3984   -1.9383   10.0916 O   0  0  0  0  0  0  0  0  0  0  0  0
   -9.0689   -1.1916   12.2696 C   0  0  1  0  0  0  0  0  0  0  0  0
  -10.1352   -0.8201   11.4313 O   0  0  0  0  0  0  0  0  0  0  0  0
   -9.5913   -2.0739   13.3953 C   0  0  2  0  0  0  0  0  0  0  0  0
   -9.8624   -9.4213   16.5743 O   0  0  0  0  0  0  0  0  0  0  0  0
   -6.7623   -2.2139   17.8397 N   0  0  0  0  0  0  0  0  0  0  0  0
   -6.7291   -3.0992   16.7805 C   0  0  0  0  0  0  0  0  0  0  0  0
   -7.5479   -2.9136   15.6826 N   0  0  0  0  0  0  0  0  0  0  0  0
   -8.3983   -1.8608   15.6345 C   0  0  0  0  0  0  0  0  0  0  0  0
   -8.4394   -0.9548   16.6871 C   0  0  0  0  0  0  0  0  0  0  0  0
   -7.6209   -1.1369   17.7951 C   0  0  0  0  0  0  0  0  0  0  0  0
   -7.6673   -0.2743   18.8075 N   0  0  0  0  0  0  0  0  0  0  0  0
   -9.3548   -0.0093   16.3843 N   0  0  0  0  0  0  0  0  0  0  0  0
   -9.8763   -0.2856   15.1660 C   0  0  0  0  0  0  0  0  0  0  0  0
   -9.2951   -1.4293   14.6857 N   0  0  0  0  0  0  0  0  0  0  0  0
  2  1  1  1  0  0  0
  2  3  1  0  0  0  0
  2  5  1  0  0  0  0
  3  4  1  0  0  0  0
  3 17  1  0  0  0  0
  5  6  1  0  0  0  0
  7  6  1  1  0  0  0
  7  8  1  0  0  0  0
  7  9  1  0  0  0  0
 10  9  1  1  0  0  0
 10 11  1  0  0  0  0
 10 12  1  0  0  0  0
 11 16  1  0  0  0  0
 12 13  1  6  0  0  0
 12 14  1  0  0  0  0
 14 15  1  6  0  0  0
 14 16  1  0  0  0  0
 16 27  1  1  0  0  0
 18 19  2  0  0  0  0
 18 23  1  0  0  0  0
 19 20  1  0  0  0  0
 20 21  2  0  0  0  0
 21 22  1  0  0  0  0
 21 27  1  0  0  0  0
 22 23  2  0  0  0  0
 22 25  1  0  0  0  0
 23 24  1  0  0  0  0
 25 26  2  0  0  0  0
 26 27  1  0  0  0  0
M  END
>  <CHROM.1>
130.50069792,-69.93486300,-158.13197049,-76.29857368,-72.90757880,76.05718270
1.88185643,-8.58201071,-3.88345003,14.48980670,2.75700134,-1.47105577,-2.01031485

>  <Name>
ligand

>  <RI>
0

>  <Rbt.Current_Directory>
/home/itssahil/PROJECTS/Mol_Feturizer/New_Systems/rnas/3GX6

>  <Rbt.Executable>
rbdock ($Id: //depot/dev/client3/rdock/2013.1/src/exe/rbdock.cxx#4 $)

>  <Rbt.Library>
libRbt.so (2013.1, Build901 2013/11/27)

>  <Rbt.Parameter_File>
/export/apps/rDock/src/rDock_2013.1_src/data/scripts/dock_solv.prm

>  <Rbt.Receptor>
prm/blind_docking_100.prm

>  <SCORE>
-20.9774

>  <SCORE.INTER>
-11.2418

>  <SCORE.INTER.CONST>
1

>  <SCORE.INTER.POLAR>
0

>  <SCORE.INTER.ROT>
7

>  <SCORE.INTER.SOLV>
7.03471

>  <SCORE.INTER.VDW>
-18.1061

>  <SCORE.INTER.norm>
-0.416363

>  <SCORE.INTRA>
-9.73561

>  <SCORE.INTRA.DIHEDRAL>
-8.65788

>  <SCORE.INTRA.DIHEDRAL.0>
15.0182

>  <SCORE.INTRA.POLAR>
0

>  <SCORE.INTRA.POLAR.0>
0

>  <SCORE.INTRA.REPUL>
0

>  <SCORE.INTRA.REPUL.0>
0

>  <SCORE.INTRA.SOLV>
-1.12899

>  <SCORE.INTRA.SOLV.lig_0>
-47.9129

>  <SCORE.INTRA.VDW>
-4.84218

>  <SCORE.INTRA.VDW.0>
2.00851

>  <SCORE.INTRA.norm>
-0.360578

>  <SCORE.RESTR>
0

>  <SCORE.RESTR.CAVITY>
0

>  <SCORE.RESTR.norm>
0

>  <SCORE.SYSTEM>
0

>  <SCORE.SYSTEM.CONST>
0

>  <SCORE.SYSTEM.DIHEDRAL>
0

>  <SCORE.SYSTEM.SOLV>
0

>  <SCORE.SYSTEM.norm>
0

>  <SCORE.heavy>
27

>  <SCORE.norm>
-0.776941

>  <RMSD>
18.308

$$$$
ligand
 OpenBabel11021811483D
libRbt.so/2013.1/901 2013/11/27
 27 29  0  0  0  0  0  0  0  0999 V2000
   -8.4429   -6.2935   14.7503 N   0  0  0  0  0  0  0  0  0  0  0  0
   -7.8516   -6.4449   13.4234 C   0  0  2  0  0  0  0  0  0  0  0  0
   -7.5328   -7.9034   13.1054 C   0  0  0  0  0  0  0  0  0  0  0  0
   -6.7260   -8.2009   12.2216 O   0  0  0  0  0  0  0  0  0  0  0  0
   -6.6174   -5.5607   13.2731 C   0  0  0  0  0  0  0  0  0  0  0  0
   -6.9489   -4.0841   13.1219 C   0  0  0  0  0  0  0  0  0  0  0  0
   -8.0164   -3.7148   11.7075 S   0  0  2  0  0  0  0  0  0  0  0  0
   -6.8889   -4.0839   10.3404 C   0  0  0  0  0  0  0  0  0  0  0  0
   -7.9836   -1.9017   11.7150 C   0  0  0  0  0  0  0  0  0  0  0  0
   -9.1546   -1.3794   12.5349 C   0  0  1  0  0  0  0  0  0  0  0  0
   -8.9005   -1.6505   13.8926 O   0  0  0  0  0  0  0  0  0  0  0  0
   -9.3786    0.1202   12.4813 C   0  0  1  0  0  0  0  0  0  0  0  0
  -10.3574    0.4495   11.5209 O   0  0  0  0  0  0  0  0  0  0  0  0
   -9.8870    0.4399   13.8724 C   0  0  1  0  0  0  0  0  0  0  0  0
  -11.2699    0.6839   13.7955 O   0  0  0  0  0  0  0  0  0  0  0  0
   -9.6358   -0.7940   14.7285 C   0  0  2  0  0  0  0  0  0  0  0  0
   -8.0821   -8.8143   13.7253 O   0  0  0  0  0  0  0  0  0  0  0  0
   -9.2552   -0.4269   19.9721 N   0  0  0  0  0  0  0  0  0  0  0  0
  -10.3247   -0.8800   19.2252 C   0  0  0  0  0  0  0  0  0  0  0  0
  -10.2573   -0.9077   17.8450 N   0  0  0  0  0  0  0  0  0  0  0  0
   -9.1402   -0.4852   17.2067 C   0  0  0  0  0  0  0  0  0  0  0  0
   -8.0509   -0.0340   17.9419 C   0  0  0  0  0  0  0  0  0  0  0  0
   -8.1129   -0.0010   19.3297 C   0  0  0  0  0  0  0  0  0  0  0  0
   -7.0730    0.4402   20.0333 N   0  0  0  0  0  0  0  0  0  0  0  0
   -7.0795    0.3151   17.0712 N   0  0  0  0  0  0  0  0  0  0  0  0
   -7.5204    0.0799   15.8131 C   0  0  0  0  0  0  0  0  0  0  0  0
   -8.7955   -0.4167   15.8774 N   0  0  0  0  0  0  0  0  0  0  0  0
  2  1  1  1  0  0  0
  2  3  1  0  0  0  0
  2  5  1  0  0  0  0
  3  4  1  0  0  0  0
  3 17  1  0  0  0  0
  5  6  1  0  0  0  0
  7  6  1  1  0  0  0
  7  8  1  0  0  0  0
  7  9  1  0  0  0  0
 10  9  1  6  0  0  0
 10 11  1  0  0  0  0
 10 12  1  0  0  0  0
 11 16  1  0  0  0  0
 12 13  1  6  0  0  0
 12 14  1  0  0  0  0
 14 15  1  6  0  0  0
 14 16  1  0  0  0  0
 16 27  1  1  0  0  0
 18 19  2  0  0  0  0
 18 23  1  0  0  0  0
 19 20  1  0  0  0  0
 20 21  2  0  0  0  0
 21 22  1  0  0  0  0
 21 27  1  0  0  0  0
 22 23  2  0  0  0  0
 22 25  1  0  0  0  0
 23 24  1  0  0  0  0
 25 26  2  0  0  0  0
 26 27  1  0  0  0  0
M  END
>  <CHROM.1>
-160.38971770,-73.75241034,-58.24288713,-68.34442393,-92.46548118,71.13359614
-129.60528584,-8.47292633,-2.40990236,14.57992810,-0.94638809,-1.27236690
1.29073833

>  <Name>
ligand

>  <RI>
0

>  <Rbt.Current_Directory>
/home/itssahil/PROJECTS/Mol_Feturizer/New_Systems/rnas/3GX6

>  <Rbt.Executable>
rbdock ($Id: //depot/dev/client3/rdock/2013.1/src/exe/rbdock.cxx#4 $)

>  <Rbt.Library>
libRbt.so (2013.1, Build901 2013/11/27)

>  <Rbt.Parameter_File>
/export/apps/rDock/src/rDock_2013.1_src/data/scripts/dock_solv.prm

>  <Rbt.Receptor>
prm/blind_docking_100.prm

>  <SCORE>
-23.6264

>  <SCORE.INTER>
-14.4169

>  <SCORE.INTER.CONST>
1

>  <SCORE.INTER.POLAR>
0

>  <SCORE.INTER.ROT>
7

>  <SCORE.INTER.SOLV>
9.02808

>  <SCORE.INTER.VDW>
-20.8873

>  <SCORE.INTER.norm>
-0.533959

>  <SCORE.INTRA>
-9.20949

>  <SCORE.INTRA.DIHEDRAL>
-9.14837

>  <SCORE.INTRA.DIHEDRAL.0>
15.0182

>  <SCORE.INTRA.POLAR>
0

>  <SCORE.INTRA.POLAR.0>
0

>  <SCORE.INTRA.REPUL>
0

>  <SCORE.INTRA.REPUL.0>
0

>  <SCORE.INTRA.SOLV>
-0.750995

>  <SCORE.INTRA.SOLV.lig_0>
-47.9129

>  <SCORE.INTRA.VDW>
-4.25981

>  <SCORE.INTRA.VDW.0>
2.00851

>  <SCORE.INTRA.norm>
-0.341092

>  <SCORE.RESTR>
0

>  <SCORE.RESTR.CAVITY>
0

>  <SCORE.RESTR.norm>
0

>  <SCORE.SYSTEM>
0

>  <SCORE.SYSTEM.CONST>
0

>  <SCORE.SYSTEM.DIHEDRAL>
0

>  <SCORE.SYSTEM.SOLV>
0

>  <SCORE.SYSTEM.norm>
0

>  <SCORE.heavy>
27

>  <SCORE.norm>
-0.875052

>  <RMSD>
18.316

$$$$
ligand
 OpenBabel11021811483D
libRbt.so/2013.1/901 2013/11/27
 27 29  0  0  0  0  0  0  0  0999 V2000
   -7.1202   -1.4109   21.8280 N   0  0  0  0  0  0  0  0  0  0  0  0
   -7.7513   -0.0941   21.8569 C   0  0  2  0  0  0  0  0  0  0  0  0
   -8.8166    0.0028   22.9458 C   0  0  0  0  0  0  0  0  0  0  0  0
   -9.4773   -0.9832   23.2799 O   0  0  0  0  0  0  0  0  0  0  0  0
   -8.3209    0.2669   20.4883 C   0  0  0  0  0  0  0  0  0  0  0  0
   -8.7944    1.7091   20.3943 C   0  0  0  0  0  0  0  0  0  0  0  0
   -9.5039    2.1431   18.7866 S   0  0  2  0  0  0  0  0  0  0  0  0
  -10.6679    0.7753   18.5617 C   0  0  0  0  0  0  0  0  0  0  0  0
   -8.1598    1.6521   17.6727 C   0  0  0  0  0  0  0  0  0  0  0  0
   -8.2536    2.4560   16.3839 C   0  0  1  0  0  0  0  0  0  0  0  0
   -7.6454    1.7139   15.3538 O   0  0  0  0  0  0  0  0  0  0  0  0
   -9.6582    2.7285   15.8789 C   0  0  1  0  0  0  0  0  0  0  0  0
  -10.1047    4.0004   16.2930 O   0  0  0  0  0  0  0  0  0  0  0  0
   -9.4915    2.7008   14.3731 C   0  0  1  0  0  0  0  0  0  0  0  0
   -9.5473    4.0222   13.8949 O   0  0  0  0  0  0  0  0  0  0  0  0
   -8.1136    2.1167   14.0923 C   0  0  2  0  0  0  0  0  0  0  0  0
   -9.0404    1.0741   23.5096 O   0  0  0  0  0  0  0  0  0  0  0  0
   -8.7813   -3.1077   13.9057 N   0  0  0  0  0  0  0  0  0  0  0  0
   -8.6841   -2.3006   15.0220 C   0  0  0  0  0  0  0  0  0  0  0  0
   -8.5062   -0.9363   14.8902 N   0  0  0  0  0  0  0  0  0  0  0  0
   -8.4200   -0.3738   13.6614 C   0  0  0  0  0  0  0  0  0  0  0  0
   -8.5242   -1.1689   12.5267 C   0  0  0  0  0  0  0  0  0  0  0  0
   -8.7005   -2.5416   12.6519 C   0  0  0  0  0  0  0  0  0  0  0  0
   -8.7908   -3.3042   11.5650 N   0  0  0  0  0  0  0  0  0  0  0  0
   -8.4141   -0.3659   11.4466 N   0  0  0  0  0  0  0  0  0  0  0  0
   -8.2614    0.9109   11.8699 C   0  0  0  0  0  0  0  0  0  0  0  0
   -8.2632    0.9254   13.2397 N   0  0  0  0  0  0  0  0  0  0  0  0
  2  1  1  6  0  0  0
  2  3  1  0  0  0  0
  2  5  1  0  0  0  0
  3  4  1  0  0  0  0
  3 17  1  0  0  0  0
  5  6  1  0  0  0  0
  7  6  1  1  0  0  0
  7  8  1  0  0  0  0
  7  9  1  0  0  0  0
 10  9  1  1  0  0  0
 10 11  1  0  0  0  0
 10 12  1  0  0  0  0
 11 16  1  0  0  0  0
 12 13  1  1  0  0  0
 12 14  1  0  0  0  0
 14 15  1  1  0  0  0
 14 16  1  0  0  0  0
 16 27  1  6  0  0  0
 18 19  2  0  0  0  0
 18 23  1  0  0  0  0
 19 20  1  0  0  0  0
 20 21  2  0  0  0  0
 21 22  1  0  0  0  0
 21 27  1  0  0  0  0
 22 23  2  0  0  0  0
 22 25  1  0  0  0  0
 23 24  1  0  0  0  0
 25 26  2  0  0  0  0
 26 27  1  0  0  0  0
M  END
>  <CHROM.1>
-31.59501612,-170.89099079,-178.82482278,49.68194029,-155.07169771,-154.47777696
22.44451226,-8.79152825,0.60689659,16.74570264,-1.69066264,1.41659842,-1.53005931

>  <Name>
ligand

>  <RI>
0

>  <Rbt.Current_Directory>
/home/itssahil/PROJECTS/Mol_Feturizer/New_Systems/rnas/3GX6

>  <Rbt.Executable>
rbdock ($Id: //depot/dev/client3/rdock/2013.1/src/exe/rbdock.cxx#4 $)

>  <Rbt.Library>
libRbt.so (2013.1, Build901 2013/11/27)

>  <Rbt.Parameter_File>
/export/apps/rDock/src/rDock_2013.1_src/data/scripts/dock_solv.prm

>  <Rbt.Receptor>
prm/blind_docking_40.prm

>  <SCORE>
-19.594

>  <SCORE.INTER>
-12.2992

>  <SCORE.INTER.CONST>
1

>  <SCORE.INTER.POLAR>
0

>  <SCORE.INTER.ROT>
7

>  <SCORE.INTER.SOLV>
6.80996

>  <SCORE.INTER.VDW>
-18.7361

>  <SCORE.INTER.norm>
-0.455527

>  <SCORE.INTRA>
-7.29478

>  <SCORE.INTRA.DIHEDRAL>
-6.9328

>  <SCORE.INTRA.DIHEDRAL.0>
15.0182

>  <SCORE.INTRA.POLAR>
0

>  <SCORE.INTRA.POLAR.0>
0

>  <SCORE.INTRA.REPUL>
0

>  <SCORE.INTRA.REPUL.0>
0

>  <SCORE.INTRA.SOLV>
-1.52641

>  <SCORE.INTRA.SOLV.lig_0>
-47.9129

>  <SCORE.INTRA.VDW>
-3.06517

>  <SCORE.INTRA.VDW.0>
2.00851

>  <SCORE.INTRA.norm>
-0.270177

>  <SCORE.RESTR>
0

>  <SCORE.RESTR.CAVITY>
0

>  <SCORE.RESTR.norm>
0

>  <SCORE.SYSTEM>
0

>  <SCORE.SYSTEM.CONST>
0

>  <SCORE.SYSTEM.DIHEDRAL>
0

>  <SCORE.SYSTEM.SOLV>
0

>  <SCORE.SYSTEM.norm>
0

>  <SCORE.heavy>
27

>  <SCORE.norm>
-0.725704

>  <RMSD>
18.337

$$$$
ligand
 OpenBabel11021811483D
libRbt.so/2013.1/901 2013/11/27
 27 29  0  0  0  0  0  0  0  0999 V2000
  -11.3189    5.0473   11.8201 N   0  0  0  0  0  0  0  0  0  0  0  0
  -11.3991    6.3248   12.5233 C   0  0  2  0  0  0  0  0  0  0  0  0
  -10.5620    7.4037   11.8411 C   0  0  0  0  0  0  0  0  0  0  0  0
   -9.3661    7.2245   11.6002 O   0  0  0  0  0  0  0  0  0  0  0  0
  -11.0106    6.1645   13.9900 C   0  0  0  0  0  0  0  0  0  0  0  0
   -9.5908    5.6552   14.1849 C   0  0  0  0  0  0  0  0  0  0  0  0
   -9.1714    5.2990   15.9093 S   0  0  2  0  0  0  0  0  0  0  0  0
   -7.4345    4.8209   15.7324 C   0  0  0  0  0  0  0  0  0  0  0  0
   -9.9636    3.6828   16.1300 C   0  0  0  0  0  0  0  0  0  0  0  0
  -10.0363    3.3552   17.6145 C   0  0  1  0  0  0  0  0  0  0  0  0
  -10.4919    2.0306   17.7538 O   0  0  0  0  0  0  0  0  0  0  0  0
   -8.7154    3.3842   18.3603 C   0  0  1  0  0  0  0  0  0  0  0  0
   -8.5257    4.6259   19.0012 O   0  0  0  0  0  0  0  0  0  0  0  0
   -8.8810    2.2867   19.3919 C   0  0  1  0  0  0  0  0  0  0  0  0
   -9.0886    2.8843   20.6479 O   0  0  0  0  0  0  0  0  0  0  0  0
  -10.1186    1.4925   18.9964 C   0  0  2  0  0  0  0  0  0  0  0  0
  -11.0672    8.4800   11.5218 O   0  0  0  0  0  0  0  0  0  0  0  0
   -6.6617   -1.9021   16.9223 N   0  0  0  0  0  0  0  0  0  0  0  0
   -6.6417   -0.5226   16.8626 C   0  0  0  0  0  0  0  0  0  0  0  0
   -7.6379    0.2220   17.4653 N   0  0  0  0  0  0  0  0  0  0  0  0
   -8.6510   -0.3942   18.1193 C   0  0  0  0  0  0  0  0  0  0  0  0
   -8.6833   -1.7811   18.1971 C   0  0  0  0  0  0  0  0  0  0  0  0
   -7.6863   -2.5360   17.5912 C   0  0  0  0  0  0  0  0  0  0  0  0
   -7.7225   -3.8646   17.6577 N   0  0  0  0  0  0  0  0  0  0  0  0
   -9.7804   -2.1310   18.9023 N   0  0  0  0  0  0  0  0  0  0  0  0
  -10.4276   -1.0049   19.2838 C   0  0  0  0  0  0  0  0  0  0  0  0
   -9.7419    0.0814   18.8080 N   0  0  0  0  0  0  0  0  0  0  0  0
  2  1  1  6  0  0  0
  2  3  1  0  0  0  0
  2  5  1  0  0  0  0
  3  4  1  0  0  0  0
  3 17  1  0  0  0  0
  5  6  1  0  0  0  0
  7  6  1  6  0  0  0
  7  8  1  0  0  0  0
  7  9  1  0  0  0  0
 10  9  1  6  0  0  0
 10 11  1  0  0  0  0
 10 12  1  0  0  0  0
 11 16  1  0  0  0  0
 12 13  1  1  0  0  0
 12 14  1  0  0  0  0
 14 15  1  1  0  0  0
 14 16  1  0  0  0  0
 16 27  1  6  0  0  0
 18 19  2  0  0  0  0
 18 23  1  0  0  0  0
 19 20  1  0  0  0  0
 20 21  2  0  0  0  0
 21 22  1  0  0  0  0
 21 27  1  0  0  0  0
 22 23  2  0  0  0  0
 22 25  1  0  0  0  0
 23 24  1  0  0  0  0
 25 26  2  0  0  0  0
 26 27  1  0  0  0  0
M  END
>  <CHROM.1>
-53.99757253,60.37880636,-174.08860209,-177.16116494,-165.68228267,-172.45948728
67.33237783,-9.28309968,2.71875178,16.48208216,-2.58134566,-1.34874115,1.52622162

>  <Name>
ligand

>  <RI>
0

>  <Rbt.Current_Directory>
/home/itssahil/PROJECTS/Mol_Feturizer/New_Systems/rnas/3GX6

>  <Rbt.Executable>
rbdock ($Id: //depot/dev/client3/rdock/2013.1/src/exe/rbdock.cxx#4 $)

>  <Rbt.Library>
libRbt.so (2013.1, Build901 2013/11/27)

>  <Rbt.Parameter_File>
/export/apps/rDock/src/rDock_2013.1_src/data/scripts/dock_solv.prm

>  <Rbt.Receptor>
prm/blind_docking_80.prm

>  <SCORE>
-23.8124

>  <SCORE.INTER>
-14.025

>  <SCORE.INTER.CONST>
1

>  <SCORE.INTER.POLAR>
0

>  <SCORE.INTER.ROT>
7

>  <SCORE.INTER.SOLV>
8.74172

>  <SCORE.INTER.VDW>
-20.5306

>  <SCORE.INTER.norm>
-0.519443

>  <SCORE.INTRA>
-9.78743

>  <SCORE.INTRA.DIHEDRAL>
-9.78429

>  <SCORE.INTRA.DIHEDRAL.0>
15.0182

>  <SCORE.INTRA.POLAR>
0

>  <SCORE.INTRA.POLAR.0>
0

>  <SCORE.INTRA.REPUL>
0

>  <SCORE.INTRA.REPUL.0>
0

>  <SCORE.INTRA.SOLV>
-0.851545

>  <SCORE.INTRA.SOLV.lig_0>
-47.9129

>  <SCORE.INTRA.VDW>
-4.46951

>  <SCORE.INTRA.VDW.0>
2.00851

>  <SCORE.INTRA.norm>
-0.362497

>  <SCORE.RESTR>
0

>  <SCORE.RESTR.CAVITY>
0

>  <SCORE.RESTR.norm>
0

>  <SCORE.SYSTEM>
0

>  <SCORE.SYSTEM.CONST>
0

>  <SCORE.SYSTEM.DIHEDRAL>
0

>  <SCORE.SYSTEM.SOLV>
0

>  <SCORE.SYSTEM.norm>
0

>  <SCORE.heavy>
27

>  <SCORE.norm>
-0.881941

>  <RMSD>
18.381

$$$$
ligand
 OpenBabel11021811483D
libRbt.so/2013.1/901 2013/11/27
 27 29  0  0  0  0  0  0  0  0999 V2000
   -8.0766   -4.9969   12.4696 N   0  0  0  0  0  0  0  0  0  0  0  0
   -6.6563   -5.2849   12.6500 C   0  0  2  0  0  0  0  0  0  0  0  0
   -6.0207   -5.8352   11.3760 C   0  0  0  0  0  0  0  0  0  0  0  0
   -6.5741   -6.7197   10.7189 O   0  0  0  0  0  0  0  0  0  0  0  0
   -6.4371   -6.2253   13.8314 C   0  0  0  0  0  0  0  0  0  0  0  0
   -6.9867   -5.6842   15.1422 C   0  0  0  0  0  0  0  0  0  0  0  0
   -6.2851   -4.0875   15.6264 S   0  0  2  0  0  0  0  0  0  0  0  0
   -4.8054   -4.6349   16.5138 C   0  0  0  0  0  0  0  0  0  0  0  0
   -7.3764   -3.6342   17.0018 C   0  0  0  0  0  0  0  0  0  0  0  0
   -6.8420   -2.3795   17.6775 C   0  0  1  0  0  0  0  0  0  0  0  0
   -6.5790   -1.4188   16.6828 O   0  0  0  0  0  0  0  0  0  0  0  0
   -7.7975   -1.6881   18.6319 C   0  0  1  0  0  0  0  0  0  0  0  0
   -7.5553   -2.0852   19.9632 O   0  0  0  0  0  0  0  0  0  0  0  0
   -7.4554   -0.2225   18.4561 C   0  0  1  0  0  0  0  0  0  0  0  0
   -6.7318    0.2039   19.5841 O   0  0  0  0  0  0  0  0  0  0  0  0
   -6.5739   -0.1204   17.2186 C   0  0  2  0  0  0  0  0  0  0  0  0
   -4.9356   -5.4073   10.9820 O   0  0  0  0  0  0  0  0  0  0  0  0
   -5.8997    3.8442   13.8124 N   0  0  0  0  0  0  0  0  0  0  0  0
   -4.9459    3.2176   14.5900 C   0  0  0  0  0  0  0  0  0  0  0  0
   -5.2981    2.1861   15.4399 N   0  0  0  0  0  0  0  0  0  0  0  0
   -6.5871    1.7796   15.5239 C   0  0  0  0  0  0  0  0  0  0  0  0
   -7.5591    2.3925   14.7428 C   0  0  0  0  0  0  0  0  0  0  0  0
   -7.2125    3.4320   13.8882 C   0  0  0  0  0  0  0  0  0  0  0  0
   -8.1452    4.0253   13.1472 N   0  0  0  0  0  0  0  0  0  0  0  0
   -8.7417    1.7983   15.0113 N   0  0  0  0  0  0  0  0  0  0  0  0
   -8.5374    0.8198   15.9242 C   0  0  0  0  0  0  0  0  0  0  0  0
   -7.2079    0.7932   16.2533 N   0  0  0  0  0  0  0  0  0  0  0  0
  2  1  1  6  0  0  0
  2  3  1  0  0  0  0
  2  5  1  0  0  0  0
  3  4  1  0  0  0  0
  3 17  1  0  0  0  0
  5  6  1  0  0  0  0
  7  6  1  1  0  0  0
  7  8  1  0  0  0  0
  7  9  1  0  0  0  0
 10  9  1  6  0  0  0
 10 11  1  0  0  0  0
 10 12  1  0  0  0  0
 11 16  1  0  0  0  0
 12 13  1  1  0  0  0
 12 14  1  0  0  0  0
 14 15  1  1  0  0  0
 14 16  1  0  0  0  0
 16 27  1  6  0  0  0
 18 19  2  0  0  0  0
 18 23  1  0  0  0  0
 19 20  1  0  0  0  0
 20 21  2  0  0  0  0
 21 22  1  0  0  0  0
 21 27  1  0  0  0  0
 22 23  2  0  0  0  0
 22 25  1  0  0  0  0
 23 24  1  0  0  0  0
 25 26  2  0  0  0  0
 26 27  1  0  0  0  0
M  END
>  <CHROM.1>
-45.83733354,-57.84073739,-58.32133460,-86.57313489,172.86232055,49.46407902
-110.83668808,-6.76700417,-1.57519282,15.32580072,-0.66892175,1.46842318
-0.56779213

>  <Name>
ligand

>  <RI>
0

>  <Rbt.Current_Directory>
/home/itssahil/PROJECTS/Mol_Feturizer/New_Systems/rnas/3GX6

>  <Rbt.Executable>
rbdock ($Id: //depot/dev/client3/rdock/2013.1/src/exe/rbdock.cxx#4 $)

>  <Rbt.Library>
libRbt.so (2013.1, Build901 2013/11/27)

>  <Rbt.Parameter_File>
/export/apps/rDock/src/rDock_2013.1_src/data/scripts/dock_solv.prm

>  <Rbt.Receptor>
prm/blind_docking_60.prm

>  <SCORE>
-20.0235

>  <SCORE.INTER>
-10.5862

>  <SCORE.INTER.CONST>
1

>  <SCORE.INTER.POLAR>
0

>  <SCORE.INTER.ROT>
7

>  <SCORE.INTER.SOLV>
6.78438

>  <SCORE.INTER.VDW>
-17.5856

>  <SCORE.INTER.norm>
-0.392083

>  <SCORE.INTRA>
-9.43723

>  <SCORE.INTRA.DIHEDRAL>
-10.4783

>  <SCORE.INTRA.DIHEDRAL.0>
15.0182

>  <SCORE.INTRA.POLAR>
0

>  <SCORE.INTRA.POLAR.0>
0

>  <SCORE.INTRA.REPUL>
0

>  <SCORE.INTRA.REPUL.0>
0

>  <SCORE.INTRA.SOLV>
-0.428553

>  <SCORE.INTRA.SOLV.lig_0>
-47.9129

>  <SCORE.INTRA.VDW>
-3.98379

>  <SCORE.INTRA.VDW.0>
2.00851

>  <SCORE.INTRA.norm>
-0.349527

>  <SCORE.RESTR>
0

>  <SCORE.RESTR.CAVITY>
0

>  <SCORE.RESTR.norm>
0

>  <SCORE.SYSTEM>
0

>  <SCORE.SYSTEM.CONST>
0

>  <SCORE.SYSTEM.DIHEDRAL>
0

>  <SCORE.SYSTEM.SOLV>
0

>  <SCORE.SYSTEM.norm>
0

>  <SCORE.heavy>
27

>  <SCORE.norm>
-0.74161

>  <RMSD>
18.409

$$$$
ligand
 OpenBabel11021811483D
libRbt.so/2013.1/901 2013/11/27
 27 29  0  0  0  0  0  0  0  0999 V2000
  -12.2745    5.5173   11.9917 N   0  0  0  0  0  0  0  0  0  0  0  0
  -11.8791    4.5515   13.0134 C   0  0  2  0  0  0  0  0  0  0  0  0
  -10.6271    4.9974   13.7641 C   0  0  0  0  0  0  0  0  0  0  0  0
  -10.5746    4.9575   14.9953 O   0  0  0  0  0  0  0  0  0  0  0  0
  -11.6996    3.1621   12.4091 C   0  0  0  0  0  0  0  0  0  0  0  0
  -11.4241    2.0849   13.4467 C   0  0  0  0  0  0  0  0  0  0  0  0
   -9.6942    2.0009   13.9729 S   0  0  2  0  0  0  0  0  0  0  0  0
   -8.9726    1.0916   12.5840 C   0  0  0  0  0  0  0  0  0  0  0  0
   -9.7814    0.7050   15.2384 C   0  0  0  0  0  0  0  0  0  0  0  0
   -8.3747    0.2268   15.5685 C   0  0  1  0  0  0  0  0  0  0  0  0
   -7.6450    1.3168   16.0792 O   0  0  0  0  0  0  0  0  0  0  0  0
   -8.2770   -0.8360   16.6468 C   0  0  1  0  0  0  0  0  0  0  0  0
   -8.2045   -2.1248   16.0791 O   0  0  0  0  0  0  0  0  0  0  0  0
   -6.9728   -0.4996   17.3411 C   0  0  1  0  0  0  0  0  0  0  0  0
   -6.0057   -1.4441   16.9530 O   0  0  0  0  0  0  0  0  0  0  0  0
   -6.5573    0.8821   16.8544 C   0  0  2  0  0  0  0  0  0  0  0  0
   -9.6434    5.4121   13.1508 O   0  0  0  0  0  0  0  0  0  0  0  0
   -7.2895    5.7266   18.7961 N   0  0  0  0  0  0  0  0  0  0  0  0
   -7.5929    5.2605   17.5321 C   0  0  0  0  0  0  0  0  0  0  0  0
   -7.3302    3.9490   17.1841 N   0  0  0  0  0  0  0  0  0  0  0  0
   -6.7661    3.1042   18.0797 C   0  0  0  0  0  0  0  0  0  0  0  0
   -6.4617    3.5530   19.3589 C   0  0  0  0  0  0  0  0  0  0  0  0
   -6.7208    4.8710   19.7146 C   0  0  0  0  0  0  0  0  0  0  0  0
   -6.4204    5.3033   20.9369 N   0  0  0  0  0  0  0  0  0  0  0  0
   -5.9231    2.5206   20.0428 N   0  0  0  0  0  0  0  0  0  0  0  0
   -5.8966    1.4335   19.2365 C   0  0  0  0  0  0  0  0  0  0  0  0
   -6.4156    1.7762   18.0159 N   0  0  0  0  0  0  0  0  0  0  0  0
  2  1  1  6  0  0  0
  2  3  1  0  0  0  0
  2  5  1  0  0  0  0
  3  4  1  0  0  0  0
  3 17  1  0  0  0  0
  5  6  1  0  0  0  0
  7  6  1  6  0  0  0
  7  8  1  0  0  0  0
  7  9  1  0  0  0  0
 10  9  1  1  0  0  0
 10 11  1  0  0  0  0
 10 12  1  0  0  0  0
 11 16  1  0  0  0  0
 12 13  1  6  0  0  0
 12 14  1  0  0  0  0
 14 15  1  6  0  0  0
 14 16  1  0  0  0  0
 16 27  1  1  0  0  0
 18 19  2  0  0  0  0
 18 23  1  0  0  0  0
 19 20  1  0  0  0  0
 20 21  2  0  0  0  0
 21 22  1  0  0  0  0
 21 27  1  0  0  0  0
 22 23  2  0  0  0  0
 22 25  1  0  0  0  0
 23 24  1  0  0  0  0
 25 26  2  0  0  0  0
 26 27  1  0  0  0  0
M  END
>  <CHROM.1>
132.71295944,-174.21141562,-81.74624413,-79.18519750,165.78792905,61.35614235
-29.00217842,-8.44500130,2.50115928,16.07527172,3.07557572,0.91663396,-2.82368880

>  <Name>
ligand

>  <RI>
0

>  <Rbt.Current_Directory>
/home/itssahil/PROJECTS/Mol_Feturizer/New_Systems/rnas/3GX6

>  <Rbt.Executable>
rbdock ($Id: //depot/dev/client3/rdock/2013.1/src/exe/rbdock.cxx#4 $)

>  <Rbt.Library>
libRbt.so (2013.1, Build901 2013/11/27)

>  <Rbt.Parameter_File>
/export/apps/rDock/src/rDock_2013.1_src/data/scripts/dock_solv.prm

>  <Rbt.Receptor>
prm/blind_docking_40.prm

>  <SCORE>
-16.5179

>  <SCORE.INTER>
-6.24582

>  <SCORE.INTER.CONST>
1

>  <SCORE.INTER.POLAR>
0

>  <SCORE.INTER.ROT>
7

>  <SCORE.INTER.SOLV>
9.86748

>  <SCORE.INTER.VDW>
-15.7197

>  <SCORE.INTER.norm>
-0.231327

>  <SCORE.INTRA>
-10.2721

>  <SCORE.INTRA.DIHEDRAL>
-9.65627

>  <SCORE.INTRA.DIHEDRAL.0>
15.0182

>  <SCORE.INTRA.POLAR>
0

>  <SCORE.INTRA.POLAR.0>
0

>  <SCORE.INTRA.REPUL>
0

>  <SCORE.INTRA.REPUL.0>
0

>  <SCORE.INTRA.SOLV>
-1.65478

>  <SCORE.INTRA.SOLV.lig_0>
-47.9129

>  <SCORE.INTRA.VDW>
-4.61657

>  <SCORE.INTRA.VDW.0>
2.00851

>  <SCORE.INTRA.norm>
-0.380448

>  <SCORE.RESTR>
0

>  <SCORE.RESTR.CAVITY>
0

>  <SCORE.RESTR.norm>
0

>  <SCORE.SYSTEM>
0

>  <SCORE.SYSTEM.CONST>
0

>  <SCORE.SYSTEM.DIHEDRAL>
0

>  <SCORE.SYSTEM.SOLV>
0

>  <SCORE.SYSTEM.norm>
0

>  <SCORE.heavy>
27

>  <SCORE.norm>
-0.611775

>  <RMSD>
18.413

$$$$
ligand
 OpenBabel11021811483D
libRbt.so/2013.1/901 2013/11/27
 27 29  0  0  0  0  0  0  0  0999 V2000
   -8.9256   -0.5358   22.4922 N   0  0  0  0  0  0  0  0  0  0  0  0
   -8.8909   -0.0949   21.1004 C   0  0  2  0  0  0  0  0  0  0  0  0
   -7.9682   -0.9647   20.2506 C   0  0  0  0  0  0  0  0  0  0  0  0
   -6.7452   -0.9357   20.4049 O   0  0  0  0  0  0  0  0  0  0  0  0
   -8.5083    1.3790   21.0054 C   0  0  0  0  0  0  0  0  0  0  0  0
   -8.5035    1.9096   19.5801 C   0  0  0  0  0  0  0  0  0  0  0  0
  -10.1544    2.0861   18.8593 S   0  0  2  0  0  0  0  0  0  0  0  0
  -10.3887    0.4302   18.1666 C   0  0  0  0  0  0  0  0  0  0  0  0
   -9.7782    3.0451   17.3669 C   0  0  0  0  0  0  0  0  0  0  0  0
   -8.4329    2.6033   16.8091 C   0  0  1  0  0  0  0  0  0  0  0  0
   -8.6192    1.3980   16.1061 O   0  0  0  0  0  0  0  0  0  0  0  0
   -7.7999    3.5404   15.7977 C   0  0  1  0  0  0  0  0  0  0  0  0
   -6.8669    4.3963   16.4186 O   0  0  0  0  0  0  0  0  0  0  0  0
   -7.0882    2.5934   14.8528 C   0  0  1  0  0  0  0  0  0  0  0  0
   -5.7073    2.6633   15.1096 O   0  0  0  0  0  0  0  0  0  0  0  0
   -7.5934    1.1922   15.1689 C   0  0  2  0  0  0  0  0  0  0  0  0
   -8.4304   -1.7111   19.3875 O   0  0  0  0  0  0  0  0  0  0  0  0
   -9.6207   -3.1012   12.8815 N   0  0  0  0  0  0  0  0  0  0  0  0
   -9.1486   -2.9660   14.1721 C   0  0  0  0  0  0  0  0  0  0  0  0
   -8.6431   -1.7576   14.6132 N   0  0  0  0  0  0  0  0  0  0  0  0
   -8.6003   -0.6900   13.7812 C   0  0  0  0  0  0  0  0  0  0  0  0
   -9.0788   -0.8048   12.4818 C   0  0  0  0  0  0  0  0  0  0  0  0
   -9.5859   -2.0175   12.0309 C   0  0  0  0  0  0  0  0  0  0  0  0
  -10.0354   -2.1298   10.7834 N   0  0  0  0  0  0  0  0  0  0  0  0
   -8.9279    0.3933   11.8774 N   0  0  0  0  0  0  0  0  0  0  0  0
   -8.3853    1.2605   12.7641 C   0  0  0  0  0  0  0  0  0  0  0  0
   -8.1758    0.6068   13.9496 N   0  0  0  0  0  0  0  0  0  0  0  0
  2  1  1  1  0  0  0
  2  3  1  0  0  0  0
  2  5  1  0  0  0  0
  3  4  1  0  0  0  0
  3 17  1  0  0  0  0
  5  6  1  0  0  0  0
  7  6  1  1  0  0  0
  7  8  1  0  0  0  0
  7  9  1  0  0  0  0
 10  9  1  6  0  0  0
 10 11  1  0  0  0  0
 10 12  1  0  0  0  0
 11 16  1  0  0  0  0
 12 13  1  1  0  0  0
 12 14  1  0  0  0  0
 14 15  1  1  0  0  0
 14 16  1  0  0  0  0
 16 27  1  6  0  0  0
 18 19  2  0  0  0  0
 18 23  1  0  0  0  0
 19 20  1  0  0  0  0
 20 21  2  0  0  0  0
 21 22  1  0  0  0  0
 21 27  1  0  0  0  0
 22 23  2  0  0  0  0
 22 25  1  0  0  0  0
 23 24  1  0  0  0  0
 25 26  2  0  0  0  0
 26 27  1  0  0  0  0
M  END
>  <CHROM.1>
-69.26980063,-177.95728922,71.25603168,-87.82121874,35.75797038,78.83151226
-74.85638475,-8.58761363,0.55728190,16.44358710,1.42592851,1.30633304,1.50345421

>  <Name>
ligand

>  <RI>
0

>  <Rbt.Current_Directory>
/home/itssahil/PROJECTS/Mol_Feturizer/New_Systems/rnas/3GX6

>  <Rbt.Executable>
rbdock ($Id: //depot/dev/client3/rdock/2013.1/src/exe/rbdock.cxx#4 $)

>  <Rbt.Library>
libRbt.so (2013.1, Build901 2013/11/27)

>  <Rbt.Parameter_File>
/export/apps/rDock/src/rDock_2013.1_src/data/scripts/dock_solv.prm

>  <Rbt.Receptor>
prm/blind_docking_80.prm

>  <SCORE>
-16.8638

>  <SCORE.INTER>
-9.56151

>  <SCORE.INTER.CONST>
1

>  <SCORE.INTER.POLAR>
0

>  <SCORE.INTER.ROT>
7

>  <SCORE.INTER.SOLV>
10.1659

>  <SCORE.INTER.VDW>
-18.0297

>  <SCORE.INTER.norm>
-0.35413

>  <SCORE.INTRA>
-7.30227

>  <SCORE.INTRA.DIHEDRAL>
-8.38343

>  <SCORE.INTRA.DIHEDRAL.0>
15.0182

>  <SCORE.INTRA.POLAR>
0

>  <SCORE.INTRA.POLAR.0>
0

>  <SCORE.INTRA.REPUL>
0

>  <SCORE.INTRA.REPUL.0>
0

>  <SCORE.INTRA.SOLV>
-1.49647

>  <SCORE.INTRA.SOLV.lig_0>
-47.9129

>  <SCORE.INTRA.VDW>
-2.36232

>  <SCORE.INTRA.VDW.0>
2.00851

>  <SCORE.INTRA.norm>
-0.270454

>  <SCORE.RESTR>
0

>  <SCORE.RESTR.CAVITY>
0

>  <SCORE.RESTR.norm>
0

>  <SCORE.SYSTEM>
0

>  <SCORE.SYSTEM.CONST>
0

>  <SCORE.SYSTEM.DIHEDRAL>
0

>  <SCORE.SYSTEM.SOLV>
0

>  <SCORE.SYSTEM.norm>
0

>  <SCORE.heavy>
27

>  <SCORE.norm>
-0.624584

>  <RMSD>
18.425

$$$$
ligand
 OpenBabel11021811483D
libRbt.so/2013.1/901 2013/11/27
 27 29  0  0  0  0  0  0  0  0999 V2000
   -8.3896   -6.3319   14.6796 N   0  0  0  0  0  0  0  0  0  0  0  0
   -7.7958   -6.4756   13.3531 C   0  0  2  0  0  0  0  0  0  0  0  0
   -7.4700   -7.9314   13.0299 C   0  0  0  0  0  0  0  0  0  0  0  0
   -6.5446   -8.2231   12.2691 O   0  0  0  0  0  0  0  0  0  0  0  0
   -6.5653   -5.5852   13.2079 C   0  0  0  0  0  0  0  0  0  0  0  0
   -6.9048   -4.1169   13.0039 C   0  0  0  0  0  0  0  0  0  0  0  0
   -7.8956   -3.7935   11.5241 S   0  0  2  0  0  0  0  0  0  0  0  0
   -6.7091   -4.2378   10.2313 C   0  0  0  0  0  0  0  0  0  0  0  0
   -7.8330   -1.9825   11.4561 C   0  0  0  0  0  0  0  0  0  0  0  0
   -9.0511   -1.4086   12.1655 C   0  0  1  0  0  0  0  0  0  0  0  0
   -9.0988   -1.9439   13.4666 O   0  0  0  0  0  0  0  0  0  0  0  0
   -9.0451    0.0945   12.3718 C   0  0  1  0  0  0  0  0  0  0  0  0
   -9.7682    0.7461   11.3513 O   0  0  0  0  0  0  0  0  0  0  0  0
   -9.7560    0.2601   13.6996 C   0  0  1  0  0  0  0  0  0  0  0  0
  -11.0505    0.7514   13.4531 O   0  0  0  0  0  0  0  0  0  0  0  0
   -9.8490   -1.1246   14.3262 C   0  0  2  0  0  0  0  0  0  0  0  0
   -8.1321   -8.8455   13.5216 O   0  0  0  0  0  0  0  0  0  0  0  0
  -10.1316    0.4489   19.3481 N   0  0  0  0  0  0  0  0  0  0  0  0
  -11.0529    0.6498   18.3393 C   0  0  0  0  0  0  0  0  0  0  0  0
  -10.8177    0.1674   17.0656 N   0  0  0  0  0  0  0  0  0  0  0  0
   -9.6756   -0.5061   16.7899 C   0  0  0  0  0  0  0  0  0  0  0  0
   -8.7410   -0.7253   17.7944 C   0  0  0  0  0  0  0  0  0  0  0  0
   -8.9698   -0.2407   19.0764 C   0  0  0  0  0  0  0  0  0  0  0  0
   -8.0701   -0.4426   20.0361 N   0  0  0  0  0  0  0  0  0  0  0  0
   -7.7131   -1.4188   17.2595 N   0  0  0  0  0  0  0  0  0  0  0  0
   -7.9830   -1.6559   15.9543 C   0  0  0  0  0  0  0  0  0  0  0  0
   -9.1955   -1.0980   15.6456 N   0  0  0  0  0  0  0  0  0  0  0  0
  2  1  1  1  0  0  0
  2  3  1  0  0  0  0
  2  5  1  0  0  0  0
  3  4  1  0  0  0  0
  3 17  1  0  0  0  0
  5  6  1  0  0  0  0
  7  6  1  1  0  0  0
  7  8  1  0  0  0  0
  7  9  1  0  0  0  0
 10  9  1  1  0  0  0
 10 11  1  0  0  0  0
 10 12  1  0  0  0  0
 11 16  1  0  0  0  0
 12 13  1  6  0  0  0
 12 14  1  0  0  0  0
 14 15  1  6  0  0  0
 14 16  1  0  0  0  0
 16 27  1  1  0  0  0
 18 19  2  0  0  0  0
 18 23  1  0  0  0  0
 19 20  1  0  0  0  0
 20 21  2  0  0  0  0
 21 22  1  0  0  0  0
 21 27  1  0  0  0  0
 22 23  2  0  0  0  0
 22 25  1  0  0  0  0
 23 24  1  0  0  0  0
 25 26  2  0  0  0  0
 26 27  1  0  0  0  0
M  END
>  <CHROM.1>
-151.20222511,-76.15097749,-60.02234098,-66.35329777,-93.80115077,54.52395321
-174.01121354,-8.62439330,-2.53262774,14.35769941,-0.52752094,-1.24435600
1.67586608

>  <Name>
ligand

>  <RI>
0

>  <Rbt.Current_Directory>
/home/itssahil/PROJECTS/Mol_Feturizer/New_Systems/rnas/3GX6

>  <Rbt.Executable>
rbdock ($Id: //depot/dev/client3/rdock/2013.1/src/exe/rbdock.cxx#4 $)

>  <Rbt.Library>
libRbt.so (2013.1, Build901 2013/11/27)

>  <Rbt.Parameter_File>
/export/apps/rDock/src/rDock_2013.1_src/data/scripts/dock_solv.prm

>  <Rbt.Receptor>
prm/blind_docking_100.prm

>  <SCORE>
-25.3827

>  <SCORE.INTER>
-16.3765

>  <SCORE.INTER.CONST>
1

>  <SCORE.INTER.POLAR>
0

>  <SCORE.INTER.ROT>
7

>  <SCORE.INTER.SOLV>
10.4481

>  <SCORE.INTER.VDW>
-22.667

>  <SCORE.INTER.norm>
-0.606538

>  <SCORE.INTRA>
-9.00621

>  <SCORE.INTRA.DIHEDRAL>
-9.08836

>  <SCORE.INTRA.DIHEDRAL.0>
15.0182

>  <SCORE.INTRA.POLAR>
0

>  <SCORE.INTRA.POLAR.0>
0

>  <SCORE.INTRA.REPUL>
0

>  <SCORE.INTRA.REPUL.0>
0

>  <SCORE.INTRA.SOLV>
-0.731951

>  <SCORE.INTRA.SOLV.lig_0>
-47.9129

>  <SCORE.INTRA.VDW>
-4.09605

>  <SCORE.INTRA.VDW.0>
2.00851

>  <SCORE.INTRA.norm>
-0.333563

>  <SCORE.RESTR>
0

>  <SCORE.RESTR.CAVITY>
0

>  <SCORE.RESTR.norm>
0

>  <SCORE.SYSTEM>
0

>  <SCORE.SYSTEM.CONST>
0

>  <SCORE.SYSTEM.DIHEDRAL>
0

>  <SCORE.SYSTEM.SOLV>
0

>  <SCORE.SYSTEM.norm>
0

>  <SCORE.heavy>
27

>  <SCORE.norm>
-0.940101

>  <RMSD>
18.444

$$$$
ligand
 OpenBabel11021811483D
libRbt.so/2013.1/901 2013/11/27
 27 29  0  0  0  0  0  0  0  0999 V2000
  -10.8039    6.0070   11.2612 N   0  0  0  0  0  0  0  0  0  0  0  0
  -11.2021    4.9543   12.1919 C   0  0  2  0  0  0  0  0  0  0  0  0
  -12.6182    5.1673   12.7201 C   0  0  0  0  0  0  0  0  0  0  0  0
  -13.5286    4.3862   12.4346 O   0  0  0  0  0  0  0  0  0  0  0  0
  -10.1968    4.8269   13.3325 C   0  0  0  0  0  0  0  0  0  0  0  0
  -10.4599    3.6329   14.2370 C   0  0  0  0  0  0  0  0  0  0  0  0
  -10.2344    2.0330   13.4211 S   0  0  2  0  0  0  0  0  0  0  0  0
  -11.8880    1.7816   12.7291 C   0  0  0  0  0  0  0  0  0  0  0  0
  -10.2715    0.9114   14.8455 C   0  0  0  0  0  0  0  0  0  0  0  0
   -8.8467    0.6135   15.2902 C   0  0  1  0  0  0  0  0  0  0  0  0
   -8.2449    1.8225   15.6873 O   0  0  0  0  0  0  0  0  0  0  0  0
   -8.7106   -0.2946   16.4980 C   0  0  1  0  0  0  0  0  0  0  0  0
   -8.4938   -1.6306   16.1021 O   0  0  0  0  0  0  0  0  0  0  0  0
   -7.4795    0.2471   17.1959 C   0  0  1  0  0  0  0  0  0  0  0  0
   -6.4131   -0.6415   16.9705 O   0  0  0  0  0  0  0  0  0  0  0  0
   -7.1645    1.5918   16.5548 C   0  0  2  0  0  0  0  0  0  0  0  0
  -12.8798    6.1308   13.4404 O   0  0  0  0  0  0  0  0  0  0  0  0
   -5.6489    2.9490   21.4165 N   0  0  0  0  0  0  0  0  0  0  0  0
   -5.4177    1.7603   20.7527 C   0  0  0  0  0  0  0  0  0  0  0  0
   -5.8931    1.5674   19.4694 N   0  0  0  0  0  0  0  0  0  0  0  0
   -6.5971    2.5427   18.8474 C   0  0  0  0  0  0  0  0  0  0  0  0
   -6.8321    3.7487   19.4963 C   0  0  0  0  0  0  0  0  0  0  0  0
   -6.3595    3.9484   20.7877 C   0  0  0  0  0  0  0  0  0  0  0  0
   -6.5929    5.0999   21.4126 N   0  0  0  0  0  0  0  0  0  0  0  0
   -7.5408    4.5377   18.6603 N   0  0  0  0  0  0  0  0  0  0  0  0
   -7.7421    3.8693   17.5004 C   0  0  0  0  0  0  0  0  0  0  0  0
   -7.1639    2.6312   17.5979 N   0  0  0  0  0  0  0  0  0  0  0  0
  2  1  1  6  0  0  0
  2  3  1  0  0  0  0
  2  5  1  0  0  0  0
  3  4  1  0  0  0  0
  3 17  1  0  0  0  0
  5  6  1  0  0  0  0
  7  6  1  1  0  0  0
  7  8  1  0  0  0  0
  7  9  1  0  0  0  0
 10  9  1  1  0  0  0
 10 11  1  0  0  0  0
 10 12  1  0  0  0  0
 11 16  1  0  0  0  0
 12 13  1  6  0  0  0
 12 14  1  0  0  0  0
 14 15  1  6  0  0  0
 14 16  1  0  0  0  0
 16 27  1  1  0  0  0
 18 19  2  0  0  0  0
 18 23  1  0  0  0  0
 19 20  1  0  0  0  0
 20 21  2  0  0  0  0
 21 22  1  0  0  0  0
 21 27  1  0  0  0  0
 22 23  2  0  0  0  0
 22 25  1  0  0  0  0
 23 24  1  0  0  0  0
 25 26  2  0  0  0  0
 26 27  1  0  0  0  0
M  END
>  <CHROM.1>
113.57468266,-172.65602578,66.02530854,-87.86576136,-95.88307344,61.84067062
156.62720562,-8.85633534,2.68714598,16.09573785,3.05755618,0.92328881,-2.78293743

>  <Name>
ligand

>  <RI>
0

>  <Rbt.Current_Directory>
/home/itssahil/PROJECTS/Mol_Feturizer/New_Systems/rnas/3GX6

>  <Rbt.Executable>
rbdock ($Id: //depot/dev/client3/rdock/2013.1/src/exe/rbdock.cxx#4 $)

>  <Rbt.Library>
libRbt.so (2013.1, Build901 2013/11/27)

>  <Rbt.Parameter_File>
/export/apps/rDock/src/rDock_2013.1_src/data/scripts/dock_solv.prm

>  <Rbt.Receptor>
prm/blind_docking_80.prm

>  <SCORE>
-16.2711

>  <SCORE.INTER>
-6.61894

>  <SCORE.INTER.CONST>
1

>  <SCORE.INTER.POLAR>
0

>  <SCORE.INTER.ROT>
7

>  <SCORE.INTER.SOLV>
5.06502

>  <SCORE.INTER.VDW>
-14.3676

>  <SCORE.INTER.norm>
-0.245146

>  <SCORE.INTRA>
-9.65217

>  <SCORE.INTRA.DIHEDRAL>
-8.53035

>  <SCORE.INTRA.DIHEDRAL.0>
15.0182

>  <SCORE.INTRA.POLAR>
0

>  <SCORE.INTRA.POLAR.0>
0

>  <SCORE.INTRA.REPUL>
0

>  <SCORE.INTRA.REPUL.0>
0

>  <SCORE.INTRA.SOLV>
-1.45918

>  <SCORE.INTRA.SOLV.lig_0>
-47.9129

>  <SCORE.INTRA.VDW>
-4.6574

>  <SCORE.INTRA.VDW.0>
2.00851

>  <SCORE.INTRA.norm>
-0.357488

>  <SCORE.RESTR>
0

>  <SCORE.RESTR.CAVITY>
0

>  <SCORE.RESTR.norm>
0

>  <SCORE.SYSTEM>
0

>  <SCORE.SYSTEM.CONST>
0

>  <SCORE.SYSTEM.DIHEDRAL>
0

>  <SCORE.SYSTEM.SOLV>
0

>  <SCORE.SYSTEM.norm>
0

>  <SCORE.heavy>
27

>  <SCORE.norm>
-0.602634

>  <RMSD>
18.444

$$$$
ligand
 OpenBabel11021811483D
libRbt.so/2013.1/901 2013/11/27
 27 29  0  0  0  0  0  0  0  0999 V2000
   -7.4241   -4.2732   17.9400 N   0  0  0  0  0  0  0  0  0  0  0  0
   -7.9921   -3.1391   17.2160 C   0  0  2  0  0  0  0  0  0  0  0  0
   -7.7297   -3.2328   15.7152 C   0  0  0  0  0  0  0  0  0  0  0  0
   -8.4873   -2.6993   14.9017 O   0  0  0  0  0  0  0  0  0  0  0  0
   -7.4845   -1.8187   17.7875 C   0  0  0  0  0  0  0  0  0  0  0  0
   -8.0381   -1.5080   19.1696 C   0  0  0  0  0  0  0  0  0  0  0  0
   -7.4110    0.0345   19.8794 S   0  0  2  0  0  0  0  0  0  0  0  0
   -8.5662    0.2560   21.2552 C   0  0  0  0  0  0  0  0  0  0  0  0
   -8.0433    1.2451   18.6865 C   0  0  0  0  0  0  0  0  0  0  0  0
   -6.9827    1.5119   17.6282 C   0  0  1  0  0  0  0  0  0  0  0  0
   -7.5985    1.4675   16.3631 O   0  0  0  0  0  0  0  0  0  0  0  0
   -6.3260    2.8785   17.6845 C   0  0  1  0  0  0  0  0  0  0  0  0
   -5.1067    2.8230   18.3909 O   0  0  0  0  0  0  0  0  0  0  0  0
   -6.0674    3.1939   16.2251 C   0  0  1  0  0  0  0  0  0  0  0  0
   -4.6922    3.0409   15.9738 O   0  0  0  0  0  0  0  0  0  0  0  0
   -6.8497    2.1746   15.4080 C   0  0  2  0  0  0  0  0  0  0  0  0
   -6.7545   -3.8504   15.2871 O   0  0  0  0  0  0  0  0  0  0  0  0
  -10.6310    5.8213   14.9852 N   0  0  0  0  0  0  0  0  0  0  0  0
   -9.9592    5.4185   16.1225 C   0  0  0  0  0  0  0  0  0  0  0  0
   -8.9879    4.4375   16.0554 N   0  0  0  0  0  0  0  0  0  0  0  0
   -8.6858    3.8547   14.8709 C   0  0  0  0  0  0  0  0  0  0  0  0
   -9.3452    4.2531   13.7147 C   0  0  0  0  0  0  0  0  0  0  0  0
  -10.3247    5.2369   13.7753 C   0  0  0  0  0  0  0  0  0  0  0  0
  -10.9629    5.6116   12.6693 N   0  0  0  0  0  0  0  0  0  0  0  0
   -8.8541    3.5277   12.6869 N   0  0  0  0  0  0  0  0  0  0  0  0
   -7.8946    2.6989   13.1612 C   0  0  0  0  0  0  0  0  0  0  0  0
   -7.7761    2.8879   14.5128 N   0  0  0  0  0  0  0  0  0  0  0  0
  2  1  1  1  0  0  0
  2  3  1  0  0  0  0
  2  5  1  0  0  0  0
  3  4  1  0  0  0  0
  3 17  1  0  0  0  0
  5  6  1  0  0  0  0
  7  6  1  6  0  0  0
  7  8  1  0  0  0  0
  7  9  1  0  0  0  0
 10  9  1  1  0  0  0
 10 11  1  0  0  0  0
 10 12  1  0  0  0  0
 11 16  1  0  0  0  0
 12 13  1  1  0  0  0
 12 14  1  0  0  0  0
 14 15  1  1  0  0  0
 14 16  1  0  0  0  0
 16 27  1  6  0  0  0
 18 19  2  0  0  0  0
 18 23  1  0  0  0  0
 19 20  1  0  0  0  0
 20 21  2  0  0  0  0
 21 22  1  0  0  0  0
 21 27  1  0  0  0  0
 22 23  2  0  0  0  0
 22 25  1  0  0  0  0
 23 24  1  0  0  0  0
 25 26  2  0  0  0  0
 26 27  1  0  0  0  0
M  END
>  <CHROM.1>
153.23790541,-70.11889045,178.47530234,166.52961993,-93.41384226,133.66609019
60.93329092,-7.88416638,1.39788627,16.44959892,0.76914149,1.25936865,-2.86132257

>  <Name>
ligand

>  <RI>
0

>  <Rbt.Current_Directory>
/home/itssahil/PROJECTS/Mol_Feturizer/New_Systems/rnas/3GX6

>  <Rbt.Executable>
rbdock ($Id: //depot/dev/client3/rdock/2013.1/src/exe/rbdock.cxx#4 $)

>  <Rbt.Library>
libRbt.so (2013.1, Build901 2013/11/27)

>  <Rbt.Parameter_File>
/export/apps/rDock/src/rDock_2013.1_src/data/scripts/dock_solv.prm

>  <Rbt.Receptor>
prm/blind_docking_40.prm

>  <SCORE>
-13.8066

>  <SCORE.INTER>
-5.51533

>  <SCORE.INTER.CONST>
1

>  <SCORE.INTER.POLAR>
0

>  <SCORE.INTER.ROT>
7

>  <SCORE.INTER.SOLV>
5.50511

>  <SCORE.INTER.VDW>
-13.7786

>  <SCORE.INTER.norm>
-0.204272

>  <SCORE.INTRA>
-8.29125

>  <SCORE.INTRA.DIHEDRAL>
-5.12549

>  <SCORE.INTRA.DIHEDRAL.0>
15.0182

>  <SCORE.INTRA.POLAR>
0

>  <SCORE.INTRA.POLAR.0>
0

>  <SCORE.INTRA.REPUL>
0

>  <SCORE.INTRA.REPUL.0>
0

>  <SCORE.INTRA.SOLV>
-1.10799

>  <SCORE.INTRA.SOLV.lig_0>
-47.9129

>  <SCORE.INTRA.VDW>
-5.17451

>  <SCORE.INTRA.VDW.0>
2.00851

>  <SCORE.INTRA.norm>
-0.307083

>  <SCORE.RESTR>
0

>  <SCORE.RESTR.CAVITY>
0

>  <SCORE.RESTR.norm>
0

>  <SCORE.SYSTEM>
0

>  <SCORE.SYSTEM.CONST>
0

>  <SCORE.SYSTEM.DIHEDRAL>
0

>  <SCORE.SYSTEM.SOLV>
0

>  <SCORE.SYSTEM.norm>
0

>  <SCORE.heavy>
27

>  <SCORE.norm>
-0.511355

>  <RMSD>
18.460

$$$$
ligand
 OpenBabel11021811483D
libRbt.so/2013.1/901 2013/11/27
 27 29  0  0  0  0  0  0  0  0999 V2000
   -6.3590   -0.1990   21.3543 N   0  0  0  0  0  0  0  0  0  0  0  0
   -7.5956    0.1319   22.0573 C   0  0  2  0  0  0  0  0  0  0  0  0
   -7.7374   -0.6519   23.3594 C   0  0  0  0  0  0  0  0  0  0  0  0
   -7.2413   -1.7738   23.4847 O   0  0  0  0  0  0  0  0  0  0  0  0
   -8.8072   -0.0699   21.1524 C   0  0  0  0  0  0  0  0  0  0  0  0
   -8.7514    0.7574   19.8774 C   0  0  0  0  0  0  0  0  0  0  0  0
  -10.1722    0.5123   18.7831 S   0  0  2  0  0  0  0  0  0  0  0  0
   -9.9850   -1.2450   18.3911 C   0  0  0  0  0  0  0  0  0  0  0  0
   -9.5685    1.2827   17.2565 C   0  0  0  0  0  0  0  0  0  0  0  0
   -8.9920    2.6542   17.5774 C   0  0  1  0  0  0  0  0  0  0  0  0
   -8.6827    3.2992   16.3651 O   0  0  0  0  0  0  0  0  0  0  0  0
   -9.9287    3.6115   18.2901 C   0  0  1  0  0  0  0  0  0  0  0  0
   -9.7145    3.5824   19.6837 O   0  0  0  0  0  0  0  0  0  0  0  0
   -9.5283    4.9616   17.7307 C   0  0  1  0  0  0  0  0  0  0  0  0
   -8.7992    5.6525   18.7149 O   0  0  0  0  0  0  0  0  0  0  0  0
   -8.6322    4.6933   16.5292 C   0  0  2  0  0  0  0  0  0  0  0  0
   -8.3574   -0.1780   24.3116 O   0  0  0  0  0  0  0  0  0  0  0  0
   -7.9237    6.1753   11.5215 N   0  0  0  0  0  0  0  0  0  0  0  0
   -7.0262    5.5402   12.3572 C   0  0  0  0  0  0  0  0  0  0  0  0
   -7.3775    5.2229   13.6557 N   0  0  0  0  0  0  0  0  0  0  0  0
   -8.6079    5.5359   14.1268 C   0  0  0  0  0  0  0  0  0  0  0  0
   -9.5271    6.1672   13.2979 C   0  0  0  0  0  0  0  0  0  0  0  0
   -9.1796    6.4916   11.9922 C   0  0  0  0  0  0  0  0  0  0  0  0
  -10.0569    7.1049   11.2014 N   0  0  0  0  0  0  0  0  0  0  0  0
  -10.6622    6.3547   14.0050 N   0  0  0  0  0  0  0  0  0  0  0  0
  -10.4883    5.8444   15.2468 C   0  0  0  0  0  0  0  0  0  0  0  0
   -9.2212    5.3322   15.3404 N   0  0  0  0  0  0  0  0  0  0  0  0
  2  1  1  6  0  0  0
  2  3  1  0  0  0  0
  2  5  1  0  0  0  0
  3  4  1  0  0  0  0
  3 17  1  0  0  0  0
  5  6  1  0  0  0  0
  7  6  1  1  0  0  0
  7  8  1  0  0  0  0
  7  9  1  0  0  0  0
 10  9  1  6  0  0  0
 10 11  1  0  0  0  0
 10 12  1  0  0  0  0
 11 16  1  0  0  0  0
 12 13  1  1  0  0  0
 12 14  1  0  0  0  0
 14 15  1  1  0  0  0
 14 16  1  0  0  0  0
 16 27  1  6  0  0  0
 18 19  2  0  0  0  0
 18 23  1  0  0  0  0
 19 20  1  0  0  0  0
 20 21  2  0  0  0  0
 21 22  1  0  0  0  0
 21 27  1  0  0  0  0
 22 23  2  0  0  0  0
 22 25  1  0  0  0  0
 23 24  1  0  0  0  0
 25 26  2  0  0  0  0
 26 27  1  0  0  0  0
M  END
>  <CHROM.1>
-29.64109759,-58.14193620,179.24643614,-62.45026620,-48.81913033,-172.83883672
-79.92428979,-8.90741655,3.00010193,17.52823041,-0.13972783,1.50049072,-2.37133983

>  <Name>
ligand

>  <RI>
0

>  <Rbt.Current_Directory>
/home/itssahil/PROJECTS/Mol_Feturizer/New_Systems/rnas/3GX6

>  <Rbt.Executable>
rbdock ($Id: //depot/dev/client3/rdock/2013.1/src/exe/rbdock.cxx#4 $)

>  <Rbt.Library>
libRbt.so (2013.1, Build901 2013/11/27)

>  <Rbt.Parameter_File>
/export/apps/rDock/src/rDock_2013.1_src/data/scripts/dock_solv.prm

>  <Rbt.Receptor>
prm/blind_docking_80.prm

>  <SCORE>
-21.0214

>  <SCORE.INTER>
-12.5972

>  <SCORE.INTER.CONST>
1

>  <SCORE.INTER.POLAR>
0

>  <SCORE.INTER.ROT>
7

>  <SCORE.INTER.SOLV>
9.77442

>  <SCORE.INTER.VDW>
-19.9229

>  <SCORE.INTER.norm>
-0.466562

>  <SCORE.INTRA>
-8.42425

>  <SCORE.INTRA.DIHEDRAL>
-10.4854

>  <SCORE.INTRA.DIHEDRAL.0>
15.0182

>  <SCORE.INTRA.POLAR>
0

>  <SCORE.INTRA.POLAR.0>
0

>  <SCORE.INTRA.REPUL>
0

>  <SCORE.INTRA.REPUL.0>
0

>  <SCORE.INTRA.SOLV>
-0.718206

>  <SCORE.INTRA.SOLV.lig_0>
-47.9129

>  <SCORE.INTRA.VDW>
-2.82245

>  <SCORE.INTRA.VDW.0>
2.00851

>  <SCORE.INTRA.norm>
-0.312009

>  <SCORE.RESTR>
0

>  <SCORE.RESTR.CAVITY>
0

>  <SCORE.RESTR.norm>
0

>  <SCORE.SYSTEM>
0

>  <SCORE.SYSTEM.CONST>
0

>  <SCORE.SYSTEM.DIHEDRAL>
0

>  <SCORE.SYSTEM.SOLV>
0

>  <SCORE.SYSTEM.norm>
0

>  <SCORE.heavy>
27

>  <SCORE.norm>
-0.778571

>  <RMSD>
18.460

$$$$
ligand
 OpenBabel11021811483D
libRbt.so/2013.1/901 2013/11/27
 27 29  0  0  0  0  0  0  0  0999 V2000
  -11.5948    4.2451   10.7627 N   0  0  0  0  0  0  0  0  0  0  0  0
  -11.5475    4.4538   12.2074 C   0  0  2  0  0  0  0  0  0  0  0  0
  -12.1743    5.7858   12.6110 C   0  0  0  0  0  0  0  0  0  0  0  0
  -13.2698    5.8291   13.1751 O   0  0  0  0  0  0  0  0  0  0  0  0
  -10.1188    4.3312   12.7288 C   0  0  0  0  0  0  0  0  0  0  0  0
  -10.0394    4.1899   14.2410 C   0  0  0  0  0  0  0  0  0  0  0  0
   -8.3496    4.0584   14.8760 S   0  0  2  0  0  0  0  0  0  0  0  0
   -7.7988    2.5536   14.0341 C   0  0  0  0  0  0  0  0  0  0  0  0
   -8.6581    3.4353   16.5508 C   0  0  0  0  0  0  0  0  0  0  0  0
   -7.3326    3.0808   17.2094 C   0  0  1  0  0  0  0  0  0  0  0  0
   -6.7541    4.2645   17.7052 O   0  0  0  0  0  0  0  0  0  0  0  0
   -7.4213    2.1656   18.4162 C   0  0  1  0  0  0  0  0  0  0  0  0
   -7.1969    0.8229   18.0479 O   0  0  0  0  0  0  0  0  0  0  0  0
   -6.2942    2.6571   19.3016 C   0  0  1  0  0  0  0  0  0  0  0  0
   -5.2405    1.7279   19.2376 O   0  0  0  0  0  0  0  0  0  0  0  0
   -5.8317    3.9898   18.7283 C   0  0  2  0  0  0  0  0  0  0  0  0
  -11.5966    6.8470   12.3747 O   0  0  0  0  0  0  0  0  0  0  0  0
   -9.0663    6.6935   21.8911 N   0  0  0  0  0  0  0  0  0  0  0  0
   -9.3928    5.7106   20.9777 C   0  0  0  0  0  0  0  0  0  0  0  0
   -8.4111    5.1001   20.2203 N   0  0  0  0  0  0  0  0  0  0  0  0
   -7.1141    5.4627   20.3619 C   0  0  0  0  0  0  0  0  0  0  0  0
   -6.7656    6.4437   21.2820 C   0  0  0  0  0  0  0  0  0  0  0  0
   -7.7478    7.0635   22.0449 C   0  0  0  0  0  0  0  0  0  0  0  0
   -7.4148    8.0099   22.9194 N   0  0  0  0  0  0  0  0  0  0  0  0
   -5.4260    6.6053   21.2279 N   0  0  0  0  0  0  0  0  0  0  0  0
   -4.9222    5.7430   20.3139 C   0  0  0  0  0  0  0  0  0  0  0  0
   -5.9538    5.0262   19.7673 N   0  0  0  0  0  0  0  0  0  0  0  0
  2  1  1  6  0  0  0
  2  3  1  0  0  0  0
  2  5  1  0  0  0  0
  3  4  1  0  0  0  0
  3 17  1  0  0  0  0
  5  6  1  0  0  0  0
  7  6  1  6  0  0  0
  7  8  1  0  0  0  0
  7  9  1  0  0  0  0
 10  9  1  1  0  0  0
 10 11  1  0  0  0  0
 10 12  1  0  0  0  0
 11 16  1  0  0  0  0
 12 13  1  6  0  0  0
 12 14  1  0  0  0  0
 14 15  1  6  0  0  0
 14 16  1  0  0  0  0
 16 27  1  1  0  0  0
 18 19  2  0  0  0  0
 18 23  1  0  0  0  0
 19 20  1  0  0  0  0
 20 21  2  0  0  0  0
 21 22  1  0  0  0  0
 21 27  1  0  0  0  0
 22 23  2  0  0  0  0
 22 25  1  0  0  0  0
 23 24  1  0  0  0  0
 25 26  2  0  0  0  0
 26 27  1  0  0  0  0
M  END
>  <CHROM.1>
107.29152995,-165.55484998,-179.47790425,-60.52026381,172.73680000,81.14712501
49.36967230,-8.30670082,4.59958668,17.29892321,2.28996799,0.78483989,-2.20350760

>  <Name>
ligand

>  <RI>
0

>  <Rbt.Current_Directory>
/home/itssahil/PROJECTS/Mol_Feturizer/New_Systems/rnas/3GX6

>  <Rbt.Executable>
rbdock ($Id: //depot/dev/client3/rdock/2013.1/src/exe/rbdock.cxx#4 $)

>  <Rbt.Library>
libRbt.so (2013.1, Build901 2013/11/27)

>  <Rbt.Parameter_File>
/export/apps/rDock/src/rDock_2013.1_src/data/scripts/dock_solv.prm

>  <Rbt.Receptor>
prm/blind_docking_60.prm

>  <SCORE>
-18.4291

>  <SCORE.INTER>
-8.44216

>  <SCORE.INTER.CONST>
1

>  <SCORE.INTER.POLAR>
0

>  <SCORE.INTER.ROT>
7

>  <SCORE.INTER.SOLV>
7.02213

>  <SCORE.INTER.VDW>
-16.2355

>  <SCORE.INTER.norm>
-0.312672

>  <SCORE.INTRA>
-9.98691

>  <SCORE.INTRA.DIHEDRAL>
-9.4446

>  <SCORE.INTRA.DIHEDRAL.0>
15.0182

>  <SCORE.INTRA.POLAR>
0

>  <SCORE.INTRA.POLAR.0>
0

>  <SCORE.INTRA.REPUL>
0

>  <SCORE.INTRA.REPUL.0>
0

>  <SCORE.INTRA.SOLV>
-1.80913

>  <SCORE.INTRA.SOLV.lig_0>
-47.9129

>  <SCORE.INTRA.VDW>
-4.36005

>  <SCORE.INTRA.VDW.0>
2.00851

>  <SCORE.INTRA.norm>
-0.369886

>  <SCORE.RESTR>
0

>  <SCORE.RESTR.CAVITY>
0

>  <SCORE.RESTR.norm>
0

>  <SCORE.SYSTEM>
0

>  <SCORE.SYSTEM.CONST>
0

>  <SCORE.SYSTEM.DIHEDRAL>
0

>  <SCORE.SYSTEM.SOLV>
0

>  <SCORE.SYSTEM.norm>
0

>  <SCORE.heavy>
27

>  <SCORE.norm>
-0.682558

>  <RMSD>
18.494

$$$$
ligand
 OpenBabel11021811483D
libRbt.so/2013.1/901 2013/11/27
 27 29  0  0  0  0  0  0  0  0999 V2000
  -11.4123   -8.7867   17.4007 N   0  0  0  0  0  0  0  0  0  0  0  0
  -10.8089   -7.4571   17.3694 C   0  0  2  0  0  0  0  0  0  0  0  0
  -11.7388   -6.3962   17.9522 C   0  0  0  0  0  0  0  0  0  0  0  0
  -11.3510   -5.2400   18.1345 O   0  0  0  0  0  0  0  0  0  0  0  0
  -10.3672   -7.0926   15.9552 C   0  0  0  0  0  0  0  0  0  0  0  0
   -9.6121   -5.7745   15.8808 C   0  0  0  0  0  0  0  0  0  0  0  0
   -9.0453   -5.3488   14.2154 S   0  0  2  0  0  0  0  0  0  0  0  0
   -7.4970   -6.2840   14.1467 C   0  0  0  0  0  0  0  0  0  0  0  0
   -8.4305   -3.6636   14.4807 C   0  0  0  0  0  0  0  0  0  0  0  0
   -8.9232   -2.7640   13.3562 C   0  0  1  0  0  0  0  0  0  0  0  0
   -9.1495   -1.4788   13.8842 O   0  0  0  0  0  0  0  0  0  0  0  0
   -7.9473   -2.5411   12.2161 C   0  0  1  0  0  0  0  0  0  0  0  0
   -8.2074   -3.4265   11.1498 O   0  0  0  0  0  0  0  0  0  0  0  0
   -8.2376   -1.1160   11.7912 C   0  0  1  0  0  0  0  0  0  0  0  0
   -8.9496   -1.1495   10.5789 O   0  0  0  0  0  0  0  0  0  0  0  0
   -9.1111   -0.5011   12.8764 C   0  0  2  0  0  0  0  0  0  0  0  0
  -12.8977   -6.6783   18.2574 O   0  0  0  0  0  0  0  0  0  0  0  0
   -6.5025    1.6673   16.9098 N   0  0  0  0  0  0  0  0  0  0  0  0
   -7.0020    0.3838   16.8097 C   0  0  0  0  0  0  0  0  0  0  0  0
   -7.6696   -0.0243   15.6705 N   0  0  0  0  0  0  0  0  0  0  0  0
   -7.8464    0.8335   14.6376 C   0  0  0  0  0  0  0  0  0  0  0  0
   -7.3432    2.1262   14.7168 C   0  0  0  0  0  0  0  0  0  0  0  0
   -6.6734    2.5439   15.8603 C   0  0  0  0  0  0  0  0  0  0  0  0
   -6.1999    3.7851   15.9398 N   0  0  0  0  0  0  0  0  0  0  0  0
   -7.6471    2.7603   13.5639 N   0  0  0  0  0  0  0  0  0  0  0  0
   -8.3104    1.8988   12.7574 C   0  0  0  0  0  0  0  0  0  0  0  0
   -8.4427    0.6994   13.4060 N   0  0  0  0  0  0  0  0  0  0  0  0
  2  1  1  6  0  0  0
  2  3  1  0  0  0  0
  2  5  1  0  0  0  0
  3  4  1  0  0  0  0
  3 17  1  0  0  0  0
  5  6  1  0  0  0  0
  7  6  1  1  0  0  0
  7  8  1  0  0  0  0
  7  9  1  0  0  0  0
 10  9  1  1  0  0  0
 10 11  1  0  0  0  0
 10 12  1  0  0  0  0
 11 16  1  0  0  0  0
 12 13  1  6  0  0  0
 12 14  1  0  0  0  0
 14 15  1  6  0  0  0
 14 16  1  0  0  0  0
 16 27  1  1  0  0  0
 18 19  2  0  0  0  0
 18 23  1  0  0  0  0
 19 20  1  0  0  0  0
 20 21  2  0  0  0  0
 21 22  1  0  0  0  0
 21 27  1  0  0  0  0
 22 23  2  0  0  0  0
 22 25  1  0  0  0  0
 23 24  1  0  0  0  0
 25 26  2  0  0  0  0
 26 27  1  0  0  0  0
M  END
>  <CHROM.1>
172.56801469,-174.52155635,178.55075521,-83.97104385,-134.95487797,146.24071621
5.03239615,-8.84882877,-2.44506692,14.76861451,2.97006901,-1.19916702,-2.03673978

>  <Name>
ligand

>  <RI>
0

>  <Rbt.Current_Directory>
/home/itssahil/PROJECTS/Mol_Feturizer/New_Systems/rnas/3GX6

>  <Rbt.Executable>
rbdock ($Id: //depot/dev/client3/rdock/2013.1/src/exe/rbdock.cxx#4 $)

>  <Rbt.Library>
libRbt.so (2013.1, Build901 2013/11/27)

>  <Rbt.Parameter_File>
/export/apps/rDock/src/rDock_2013.1_src/data/scripts/dock_solv.prm

>  <Rbt.Receptor>
prm/blind_docking_100.prm

>  <SCORE>
-18.7562

>  <SCORE.INTER>
-11.9078

>  <SCORE.INTER.CONST>
1

>  <SCORE.INTER.POLAR>
0

>  <SCORE.INTER.ROT>
7

>  <SCORE.INTER.SOLV>
13.4549

>  <SCORE.INTER.VDW>
-20.6902

>  <SCORE.INTER.norm>
-0.441029

>  <SCORE.INTRA>
-6.84837

>  <SCORE.INTRA.DIHEDRAL>
-3.67538

>  <SCORE.INTRA.DIHEDRAL.0>
15.0182

>  <SCORE.INTRA.POLAR>
0

>  <SCORE.INTRA.POLAR.0>
0

>  <SCORE.INTRA.REPUL>
0

>  <SCORE.INTRA.REPUL.0>
0

>  <SCORE.INTRA.SOLV>
-1.71064

>  <SCORE.INTRA.SOLV.lig_0>
-47.9129

>  <SCORE.INTRA.VDW>
-4.15537

>  <SCORE.INTRA.VDW.0>
2.00851

>  <SCORE.INTRA.norm>
-0.253643

>  <SCORE.RESTR>
0

>  <SCORE.RESTR.CAVITY>
0

>  <SCORE.RESTR.norm>
0

>  <SCORE.SYSTEM>
0

>  <SCORE.SYSTEM.CONST>
0

>  <SCORE.SYSTEM.DIHEDRAL>
0

>  <SCORE.SYSTEM.SOLV>
0

>  <SCORE.SYSTEM.norm>
0

>  <SCORE.heavy>
27

>  <SCORE.norm>
-0.694672

>  <RMSD>
18.495

$$$$
ligand
 OpenBabel11021811483D
libRbt.so/2013.1/901 2013/11/27
 27 29  0  0  0  0  0  0  0  0999 V2000
  -11.4424    7.2580   11.4862 N   0  0  0  0  0  0  0  0  0  0  0  0
  -11.3061    5.9131   12.0389 C   0  0  2  0  0  0  0  0  0  0  0  0
  -12.6328    5.3804   12.5739 C   0  0  0  0  0  0  0  0  0  0  0  0
  -12.9811    4.2157   12.3676 O   0  0  0  0  0  0  0  0  0  0  0  0
  -10.2188    5.8715   13.1084 C   0  0  0  0  0  0  0  0  0  0  0  0
   -9.9261    4.4678   13.6156 C   0  0  0  0  0  0  0  0  0  0  0  0
   -8.4808    4.3684   14.7008 S   0  0  2  0  0  0  0  0  0  0  0  0
   -7.1481    4.5558   13.4904 C   0  0  0  0  0  0  0  0  0  0  0  0
   -8.4163    2.5856   15.0265 C   0  0  0  0  0  0  0  0  0  0  0  0
   -9.5473    2.2040   15.9708 C   0  0  1  0  0  0  0  0  0  0  0  0
   -9.6046    0.7996   16.0482 O   0  0  0  0  0  0  0  0  0  0  0  0
   -9.3853    2.6586   17.4092 C   0  0  1  0  0  0  0  0  0  0  0  0
  -10.0735    3.8684   17.6359 O   0  0  0  0  0  0  0  0  0  0  0  0
  -10.0317    1.5372   18.1970 C   0  0  1  0  0  0  0  0  0  0  0  0
  -11.2785    1.9859   18.6682 O   0  0  0  0  0  0  0  0  0  0  0  0
  -10.2409    0.3810   17.2285 C   0  0  2  0  0  0  0  0  0  0  0  0
  -13.3857    6.1093   13.2200 O   0  0  0  0  0  0  0  0  0  0  0  0
   -7.2851   -3.8317   16.0919 N   0  0  0  0  0  0  0  0  0  0  0  0
   -7.7696   -2.8720   15.2251 C   0  0  0  0  0  0  0  0  0  0  0  0
   -8.5391   -1.8243   15.6947 N   0  0  0  0  0  0  0  0  0  0  0  0
   -8.8320   -1.7288   17.0134 C   0  0  0  0  0  0  0  0  0  0  0  0
   -8.3461   -2.6803   17.9016 C   0  0  0  0  0  0  0  0  0  0  0  0
   -7.5741   -3.7377   17.4360 C   0  0  0  0  0  0  0  0  0  0  0  0
   -7.1168   -4.6543   18.2856 N   0  0  0  0  0  0  0  0  0  0  0  0
   -8.7734   -2.3484   19.1389 N   0  0  0  0  0  0  0  0  0  0  0  0
   -9.4979   -1.2079   19.0555 C   0  0  0  0  0  0  0  0  0  0  0  0
   -9.5445   -0.8089   17.7458 N   0  0  0  0  0  0  0  0  0  0  0  0
  2  1  1  1  0  0  0
  2  3  1  0  0  0  0
  2  5  1  0  0  0  0
  3  4  1  0  0  0  0
  3 17  1  0  0  0  0
  5  6  1  0  0  0  0
  7  6  1  6  0  0  0
  7  8  1  0  0  0  0
  7  9  1  0  0  0  0
 10  9  1  6  0  0  0
 10 11  1  0  0  0  0
 10 12  1  0  0  0  0
 11 16  1  0  0  0  0
 12 13  1  6  0  0  0
 12 14  1  0  0  0  0
 14 15  1  6  0  0  0
 14 16  1  0  0  0  0
 16 27  1  1  0  0  0
 18 19  2  0  0  0  0
 18 23  1  0  0  0  0
 19 20  1  0  0  0  0
 20 21  2  0  0  0  0
 21 22  1  0  0  0  0
 21 27  1  0  0  0  0
 22 23  2  0  0  0  0
 22 25  1  0  0  0  0
 23 24  1  0  0  0  0
 25 26  2  0  0  0  0
 26 27  1  0  0  0  0
M  END
>  <CHROM.1>
137.69494271,-173.78917123,171.52961257,-73.85052889,-73.01718414,171.16794080
-27.03236136,-9.60449101,1.68441555,15.70211007,-2.03428453,-0.87171164,2.26586402

>  <Name>
ligand

>  <RI>
0

>  <Rbt.Current_Directory>
/home/itssahil/PROJECTS/Mol_Feturizer/New_Systems/rnas/3GX6

>  <Rbt.Executable>
rbdock ($Id: //depot/dev/client3/rdock/2013.1/src/exe/rbdock.cxx#4 $)

>  <Rbt.Library>
libRbt.so (2013.1, Build901 2013/11/27)

>  <Rbt.Parameter_File>
/export/apps/rDock/src/rDock_2013.1_src/data/scripts/dock_solv.prm

>  <Rbt.Receptor>
prm/blind_docking_60.prm

>  <SCORE>
-20.3015

>  <SCORE.INTER>
-9.81003

>  <SCORE.INTER.CONST>
1

>  <SCORE.INTER.POLAR>
0

>  <SCORE.INTER.ROT>
7

>  <SCORE.INTER.SOLV>
12.4952

>  <SCORE.INTER.VDW>
-18.9717

>  <SCORE.INTER.norm>
-0.363334

>  <SCORE.INTRA>
-10.4914

>  <SCORE.INTRA.DIHEDRAL>
-11.0101

>  <SCORE.INTRA.DIHEDRAL.0>
15.0182

>  <SCORE.INTRA.POLAR>
0

>  <SCORE.INTRA.POLAR.0>
0

>  <SCORE.INTRA.REPUL>
0

>  <SCORE.INTRA.REPUL.0>
0

>  <SCORE.INTRA.SOLV>
-1.62653

>  <SCORE.INTRA.SOLV.lig_0>
-47.9129

>  <SCORE.INTRA.VDW>
-4.1731

>  <SCORE.INTRA.VDW.0>
2.00851

>  <SCORE.INTRA.norm>
-0.388572

>  <SCORE.RESTR>
0

>  <SCORE.RESTR.CAVITY>
0

>  <SCORE.RESTR.norm>
0

>  <SCORE.SYSTEM>
0

>  <SCORE.SYSTEM.CONST>
0

>  <SCORE.SYSTEM.DIHEDRAL>
0

>  <SCORE.SYSTEM.SOLV>
0

>  <SCORE.SYSTEM.norm>
0

>  <SCORE.heavy>
27

>  <SCORE.norm>
-0.751906

>  <RMSD>
18.507

$$$$
ligand
 OpenBabel11021811483D
libRbt.so/2013.1/901 2013/11/27
 27 29  0  0  0  0  0  0  0  0999 V2000
   -8.2963    1.3347   18.6408 N   0  0  0  0  0  0  0  0  0  0  0  0
   -9.3052    1.1285   17.6053 C   0  0  2  0  0  0  0  0  0  0  0  0
  -10.5122    0.3567   18.1321 C   0  0  0  0  0  0  0  0  0  0  0  0
  -10.4398   -0.8498   18.3759 O   0  0  0  0  0  0  0  0  0  0  0  0
   -8.6993    0.4456   16.3828 C   0  0  0  0  0  0  0  0  0  0  0  0
   -9.6658    0.3346   15.2138 C   0  0  0  0  0  0  0  0  0  0  0  0
   -8.9741   -0.5100   13.7700 S   0  0  2  0  0  0  0  0  0  0  0  0
  -10.4620   -0.6992   12.7566 C   0  0  0  0  0  0  0  0  0  0  0  0
   -8.7704   -2.1911   14.4188 C   0  0  0  0  0  0  0  0  0  0  0  0
   -8.0506   -3.0465   13.3861 C   0  0  1  0  0  0  0  0  0  0  0  0
   -7.6320   -4.2364   14.0110 O   0  0  0  0  0  0  0  0  0  0  0  0
   -8.8929   -3.5087   12.2119 C   0  0  1  0  0  0  0  0  0  0  0  0
   -8.7266   -2.6521   11.1042 O   0  0  0  0  0  0  0  0  0  0  0  0
   -8.3233   -4.8778   11.9005 C   0  0  1  0  0  0  0  0  0  0  0  0
   -7.5504   -4.7823   10.7294 O   0  0  0  0  0  0  0  0  0  0  0  0
   -7.4270   -5.2596   13.0708 C   0  0  2  0  0  0  0  0  0  0  0  0
  -11.5872    0.9267   18.3193 O   0  0  0  0  0  0  0  0  0  0  0  0
  -10.7193   -7.6100   16.4490 N   0  0  0  0  0  0  0  0  0  0  0  0
  -10.5829   -6.2600   16.1920 C   0  0  0  0  0  0  0  0  0  0  0  0
   -9.6594   -5.8098   15.2676 N   0  0  0  0  0  0  0  0  0  0  0  0
   -8.8718   -6.6893   14.6042 C   0  0  0  0  0  0  0  0  0  0  0  0
   -9.0007   -8.0518   14.8434 C   0  0  0  0  0  0  0  0  0  0  0  0
   -9.9253   -8.5113   15.7735 C   0  0  0  0  0  0  0  0  0  0  0  0
  -10.0420   -9.8158   16.0094 N   0  0  0  0  0  0  0  0  0  0  0  0
   -8.1140   -8.6966   14.0550 N   0  0  0  0  0  0  0  0  0  0  0  0
   -7.4452   -7.7804   13.3161 C   0  0  0  0  0  0  0  0  0  0  0  0
   -7.9019   -6.5308   13.6427 N   0  0  0  0  0  0  0  0  0  0  0  0
  2  1  1  1  0  0  0
  2  3  1  0  0  0  0
  2  5  1  0  0  0  0
  3  4  1  0  0  0  0
  3 17  1  0  0  0  0
  5  6  1  0  0  0  0
  7  6  1  1  0  0  0
  7  8  1  0  0  0  0
  7  9  1  0  0  0  0
 10  9  1  1  0  0  0
 10 11  1  0  0  0  0
 10 12  1  0  0  0  0
 11 16  1  0  0  0  0
 12 13  1  6  0  0  0
 12 14  1  0  0  0  0
 14 15  1  6  0  0  0
 14 16  1  0  0  0  0
 16 27  1  1  0  0  0
 18 19  2  0  0  0  0
 18 23  1  0  0  0  0
 19 20  1  0  0  0  0
 20 21  2  0  0  0  0
 21 22  1  0  0  0  0
 21 27  1  0  0  0  0
 22 23  2  0  0  0  0
 22 25  1  0  0  0  0
 23 24  1  0  0  0  0
 25 26  2  0  0  0  0
 26 27  1  0  0  0  0
M  END
>  <CHROM.1>
-72.77635014,-173.97280084,-178.57581843,170.46054254,-174.00914716,166.70202247
26.33665126,-9.09556373,-3.58236512,14.75448342,1.90081027,1.22373246,-0.00011260

>  <Name>
ligand

>  <RI>
0

>  <Rbt.Current_Directory>
/home/itssahil/PROJECTS/Mol_Feturizer/New_Systems/rnas/3GX6

>  <Rbt.Executable>
rbdock ($Id: //depot/dev/client3/rdock/2013.1/src/exe/rbdock.cxx#4 $)

>  <Rbt.Library>
libRbt.so (2013.1, Build901 2013/11/27)

>  <Rbt.Parameter_File>
/export/apps/rDock/src/rDock_2013.1_src/data/scripts/dock_solv.prm

>  <Rbt.Receptor>
prm/blind_docking_100.prm

>  <SCORE>
-22.8372

>  <SCORE.INTER>
-12.3182

>  <SCORE.INTER.CONST>
1

>  <SCORE.INTER.POLAR>
0

>  <SCORE.INTER.ROT>
7

>  <SCORE.INTER.SOLV>
14.8443

>  <SCORE.INTER.VDW>
-21.4269

>  <SCORE.INTER.norm>
-0.456229

>  <SCORE.INTRA>
-10.5191

>  <SCORE.INTRA.DIHEDRAL>
-10.4817

>  <SCORE.INTRA.DIHEDRAL.0>
15.0182

>  <SCORE.INTRA.POLAR>
0

>  <SCORE.INTRA.POLAR.0>
0

>  <SCORE.INTRA.REPUL>
0

>  <SCORE.INTRA.REPUL.0>
0

>  <SCORE.INTRA.SOLV>
-1.53011

>  <SCORE.INTRA.SOLV.lig_0>
-47.9129

>  <SCORE.INTRA.VDW>
-4.51314

>  <SCORE.INTRA.VDW.0>
2.00851

>  <SCORE.INTRA.norm>
-0.389595

>  <SCORE.RESTR>
0

>  <SCORE.RESTR.CAVITY>
0

>  <SCORE.RESTR.norm>
0

>  <SCORE.SYSTEM>
0

>  <SCORE.SYSTEM.CONST>
0

>  <SCORE.SYSTEM.DIHEDRAL>
0

>  <SCORE.SYSTEM.SOLV>
0

>  <SCORE.SYSTEM.norm>
0

>  <SCORE.heavy>
27

>  <SCORE.norm>
-0.845824

>  <RMSD>
18.537

$$$$
ligand
 OpenBabel11021811483D
libRbt.so/2013.1/901 2013/11/27
 27 29  0  0  0  0  0  0  0  0999 V2000
   -8.9128   -1.8501   17.3443 N   0  0  0  0  0  0  0  0  0  0  0  0
   -8.9362   -0.4605   16.8954 C   0  0  2  0  0  0  0  0  0  0  0  0
   -9.7469    0.4278   17.8354 C   0  0  0  0  0  0  0  0  0  0  0  0
   -9.5708    1.6477   17.8686 O   0  0  0  0  0  0  0  0  0  0  0  0
   -9.4443   -0.3604   15.4602 C   0  0  0  0  0  0  0  0  0  0  0  0
   -8.8568   -1.4175   14.5380 C   0  0  0  0  0  0  0  0  0  0  0  0
   -8.5096   -0.8184   12.8656 S   0  0  2  0  0  0  0  0  0  0  0  0
  -10.0782   -0.0029   12.4769 C   0  0  0  0  0  0  0  0  0  0  0  0
   -8.6614   -2.3529   11.9113 C   0  0  0  0  0  0  0  0  0  0  0  0
   -7.3679   -3.1470   12.0238 C   0  0  1  0  0  0  0  0  0  0  0  0
   -7.0864   -3.3435   13.3890 O   0  0  0  0  0  0  0  0  0  0  0  0
   -7.4010   -4.5455   11.4365 C   0  0  1  0  0  0  0  0  0  0  0  0
   -6.8817   -4.5539   10.1254 O   0  0  0  0  0  0  0  0  0  0  0  0
   -6.4898   -5.3264   12.3616 C   0  0  1  0  0  0  0  0  0  0  0  0
   -5.2742   -5.5612   11.6946 O   0  0  0  0  0  0  0  0  0  0  0  0
   -6.2395   -4.4477   13.5797 C   0  0  2  0  0  0  0  0  0  0  0  0
  -10.5922   -0.0608   18.5853 O   0  0  0  0  0  0  0  0  0  0  0  0
  -10.2904   -6.3113   16.3891 N   0  0  0  0  0  0  0  0  0  0  0  0
  -10.3284   -5.6249   15.1914 C   0  0  0  0  0  0  0  0  0  0  0  0
   -9.1603   -5.2020   14.5857 N   0  0  0  0  0  0  0  0  0  0  0  0
   -7.9614   -5.4525   15.1634 C   0  0  0  0  0  0  0  0  0  0  0  0
   -7.9030   -6.1493   16.3640 C   0  0  0  0  0  0  0  0  0  0  0  0
   -9.0737   -6.5750   16.9798 C   0  0  0  0  0  0  0  0  0  0  0  0
   -9.0181   -7.2341   18.1346 N   0  0  0  0  0  0  0  0  0  0  0  0
   -6.6034   -6.2679   16.7114 N   0  0  0  0  0  0  0  0  0  0  0  0
   -5.8444   -5.6817   15.7560 C   0  0  0  0  0  0  0  0  0  0  0  0
   -6.6688   -5.1712   14.7883 N   0  0  0  0  0  0  0  0  0  0  0  0
  2  1  1  1  0  0  0
  2  3  1  0  0  0  0
  2  5  1  0  0  0  0
  3  4  1  0  0  0  0
  3 17  1  0  0  0  0
  5  6  1  0  0  0  0
  7  6  1  1  0  0  0
  7  8  1  0  0  0  0
  7  9  1  0  0  0  0
 10  9  1  1  0  0  0
 10 11  1  0  0  0  0
 10 12  1  0  0  0  0
 11 16  1  0  0  0  0
 12 13  1  6  0  0  0
 12 14  1  0  0  0  0
 14 15  1  6  0  0  0
 14 16  1  0  0  0  0
 16 27  1  1  0  0  0
 18 19  2  0  0  0  0
 18 23  1  0  0  0  0
 19 20  1  0  0  0  0
 20 21  2  0  0  0  0
 21 22  1  0  0  0  0
 21 27  1  0  0  0  0
 22 23  2  0  0  0  0
 22 25  1  0  0  0  0
 23 24  1  0  0  0  0
 25 26  2  0  0  0  0
 26 27  1  0  0  0  0
M  END
>  <CHROM.1>
158.29147864,-43.46895066,-142.55776803,-48.92641459,-81.24551680,55.03443256
42.24124613,-8.26819666,-3.34364285,14.69914530,2.85171197,1.15455787,-0.68279142

>  <Name>
ligand

>  <RI>
0

>  <Rbt.Current_Directory>
/home/itssahil/PROJECTS/Mol_Feturizer/New_Systems/rnas/3GX6

>  <Rbt.Executable>
rbdock ($Id: //depot/dev/client3/rdock/2013.1/src/exe/rbdock.cxx#4 $)

>  <Rbt.Library>
libRbt.so (2013.1, Build901 2013/11/27)

>  <Rbt.Parameter_File>
/export/apps/rDock/src/rDock_2013.1_src/data/scripts/dock_solv.prm

>  <Rbt.Receptor>
prm/blind_docking_60.prm

>  <SCORE>
-16.5925

>  <SCORE.INTER>
-9.64531

>  <SCORE.INTER.CONST>
1

>  <SCORE.INTER.POLAR>
0

>  <SCORE.INTER.ROT>
7

>  <SCORE.INTER.SOLV>
12.7168

>  <SCORE.INTER.VDW>
-18.9358

>  <SCORE.INTER.norm>
-0.357234

>  <SCORE.INTRA>
-6.94718

>  <SCORE.INTRA.DIHEDRAL>
-5.46672

>  <SCORE.INTRA.DIHEDRAL.0>
15.0182

>  <SCORE.INTRA.POLAR>
0

>  <SCORE.INTRA.POLAR.0>
0

>  <SCORE.INTRA.REPUL>
0

>  <SCORE.INTRA.REPUL.0>
0

>  <SCORE.INTRA.SOLV>
-0.870712

>  <SCORE.INTRA.SOLV.lig_0>
-47.9129

>  <SCORE.INTRA.VDW>
-3.77847

>  <SCORE.INTRA.VDW.0>
2.00851

>  <SCORE.INTRA.norm>
-0.257303

>  <SCORE.RESTR>
0

>  <SCORE.RESTR.CAVITY>
0

>  <SCORE.RESTR.norm>
0

>  <SCORE.SYSTEM>
0

>  <SCORE.SYSTEM.CONST>
0

>  <SCORE.SYSTEM.DIHEDRAL>
0

>  <SCORE.SYSTEM.SOLV>
0

>  <SCORE.SYSTEM.norm>
0

>  <SCORE.heavy>
27

>  <SCORE.norm>
-0.614537

>  <RMSD>
18.548

$$$$
ligand
 OpenBabel11021811483D
libRbt.so/2013.1/901 2013/11/27
 27 29  0  0  0  0  0  0  0  0999 V2000
  -10.2980    4.7012   12.7547 N   0  0  0  0  0  0  0  0  0  0  0  0
   -8.9672    4.5035   12.1866 C   0  0  2  0  0  0  0  0  0  0  0  0
   -8.9721    4.6348   10.6658 C   0  0  0  0  0  0  0  0  0  0  0  0
   -9.9115    4.2051    9.9926 O   0  0  0  0  0  0  0  0  0  0  0  0
   -8.3803    3.1658   12.6270 C   0  0  0  0  0  0  0  0  0  0  0  0
   -8.0847    3.0991   14.1174 C   0  0  0  0  0  0  0  0  0  0  0  0
   -7.0095    4.4289   14.7105 S   0  0  2  0  0  0  0  0  0  0  0  0
   -5.4119    3.8700   14.0688 C   0  0  0  0  0  0  0  0  0  0  0  0
   -6.8591    3.9942   16.4646 C   0  0  0  0  0  0  0  0  0  0  0  0
   -8.2423    3.9711   17.0990 C   0  0  1  0  0  0  0  0  0  0  0  0
   -8.8401    2.7293   16.8125 O   0  0  0  0  0  0  0  0  0  0  0  0
   -8.2739    4.0690   18.6127 C   0  0  1  0  0  0  0  0  0  0  0  0
   -8.4897    5.3995   19.0273 O   0  0  0  0  0  0  0  0  0  0  0  0
   -9.4639    3.2086   18.9862 C   0  0  1  0  0  0  0  0  0  0  0  0
  -10.5245    4.0536   19.3586 O   0  0  0  0  0  0  0  0  0  0  0  0
   -9.8517    2.4262   17.7388 C   0  0  2  0  0  0  0  0  0  0  0  0
   -8.0309    5.1703   10.0803 O   0  0  0  0  0  0  0  0  0  0  0  0
   -6.9895   -1.9977   17.6271 N   0  0  0  0  0  0  0  0  0  0  0  0
   -6.6227   -0.7349   17.2056 C   0  0  0  0  0  0  0  0  0  0  0  0
   -7.5055    0.3239   17.3052 N   0  0  0  0  0  0  0  0  0  0  0  0
   -8.7458    0.1340   17.8145 C   0  0  0  0  0  0  0  0  0  0  0  0
   -9.1295   -1.1278   18.2517 C   0  0  0  0  0  0  0  0  0  0  0  0
   -8.2479   -2.1973   18.1520 C   0  0  0  0  0  0  0  0  0  0  0  0
   -8.6190   -3.4078   18.5620 N   0  0  0  0  0  0  0  0  0  0  0  0
  -10.3948   -1.0387   18.7150 N   0  0  0  0  0  0  0  0  0  0  0  0
  -10.8098    0.2445   18.5975 C   0  0  0  0  0  0  0  0  0  0  0  0
   -9.8008    0.9860   18.0418 N   0  0  0  0  0  0  0  0  0  0  0  0
  2  1  1  6  0  0  0
  2  3  1  0  0  0  0
  2  5  1  0  0  0  0
  3  4  1  0  0  0  0
  3 17  1  0  0  0  0
  5  6  1  0  0  0  0
  7  6  1  6  0  0  0
  7  8  1  0  0  0  0
  7  9  1  0  0  0  0
 10  9  1  1  0  0  0
 10 11  1  0  0  0  0
 10 12  1  0  0  0  0
 11 16  1  0  0  0  0
 12 13  1  6  0  0  0
 12 14  1  0  0  0  0
 14 15  1  6  0  0  0
 14 16  1  0  0  0  0
 16 27  1  1  0  0  0
 18 19  2  0  0  0  0
 18 23  1  0  0  0  0
 19 20  1  0  0  0  0
 20 21  2  0  0  0  0
 21 22  1  0  0  0  0
 21 27  1  0  0  0  0
 22 23  2  0  0  0  0
 22 25  1  0  0  0  0
 23 24  1  0  0  0  0
 25 26  2  0  0  0  0
 26 27  1  0  0  0  0
M  END
>  <CHROM.1>
-37.85953620,-66.68269810,-55.03676080,-74.81639842,-58.97197373,81.98596647
18.22415667,-8.53283511,2.38500392,16.00353740,1.14472386,1.43392738,-0.49765611

>  <Name>
ligand

>  <RI>
0

>  <Rbt.Current_Directory>
/home/itssahil/PROJECTS/Mol_Feturizer/New_Systems/rnas/3GX6

>  <Rbt.Executable>
rbdock ($Id: //depot/dev/client3/rdock/2013.1/src/exe/rbdock.cxx#4 $)

>  <Rbt.Library>
libRbt.so (2013.1, Build901 2013/11/27)

>  <Rbt.Parameter_File>
/export/apps/rDock/src/rDock_2013.1_src/data/scripts/dock_solv.prm

>  <Rbt.Receptor>
prm/blind_docking_40.prm

>  <SCORE>
-17.0356

>  <SCORE.INTER>
-7.4759

>  <SCORE.INTER.CONST>
1

>  <SCORE.INTER.POLAR>
0

>  <SCORE.INTER.ROT>
7

>  <SCORE.INTER.SOLV>
12.1276

>  <SCORE.INTER.VDW>
-17.2931

>  <SCORE.INTER.norm>
-0.276885

>  <SCORE.INTRA>
-9.55967

>  <SCORE.INTRA.DIHEDRAL>
-9.58142

>  <SCORE.INTRA.DIHEDRAL.0>
15.0182

>  <SCORE.INTRA.POLAR>
0

>  <SCORE.INTRA.POLAR.0>
0

>  <SCORE.INTRA.REPUL>
0

>  <SCORE.INTRA.REPUL.0>
0

>  <SCORE.INTRA.SOLV>
-0.447327

>  <SCORE.INTRA.SOLV.lig_0>
-47.9129

>  <SCORE.INTRA.VDW>
-4.54529

>  <SCORE.INTRA.VDW.0>
2.00851

>  <SCORE.INTRA.norm>
-0.354062

>  <SCORE.RESTR>
0

>  <SCORE.RESTR.CAVITY>
0

>  <SCORE.RESTR.norm>
0

>  <SCORE.SYSTEM>
0

>  <SCORE.SYSTEM.CONST>
0

>  <SCORE.SYSTEM.DIHEDRAL>
0

>  <SCORE.SYSTEM.SOLV>
0

>  <SCORE.SYSTEM.norm>
0

>  <SCORE.heavy>
27

>  <SCORE.norm>
-0.630947

>  <RMSD>
18.611

$$$$
ligand
 OpenBabel11021811483D
libRbt.so/2013.1/901 2013/11/27
 27 29  0  0  0  0  0  0  0  0999 V2000
   -7.1232    4.3059   22.2392 N   0  0  0  0  0  0  0  0  0  0  0  0
   -6.3945    4.4524   20.9821 C   0  0  2  0  0  0  0  0  0  0  0  0
   -5.6195    5.7661   20.9231 C   0  0  0  0  0  0  0  0  0  0  0  0
   -5.9548    6.6695   20.1537 O   0  0  0  0  0  0  0  0  0  0  0  0
   -7.3335    4.3071   19.7883 C   0  0  0  0  0  0  0  0  0  0  0  0
   -8.0149    2.9492   19.7196 C   0  0  0  0  0  0  0  0  0  0  0  0
   -9.0119    2.7053   18.2287 S   0  0  2  0  0  0  0  0  0  0  0  0
  -10.4996    3.6360   18.6729 C   0  0  0  0  0  0  0  0  0  0  0  0
   -9.5767    0.9986   18.4670 C   0  0  0  0  0  0  0  0  0  0  0  0
   -9.5489    0.2671   17.1327 C   0  0  1  0  0  0  0  0  0  0  0  0
  -10.5805    0.7810   16.3244 O   0  0  0  0  0  0  0  0  0  0  0  0
   -8.2897    0.4521   16.3068 C   0  0  1  0  0  0  0  0  0  0  0  0
   -7.3908   -0.6148   16.5126 O   0  0  0  0  0  0  0  0  0  0  0  0
   -8.8080    0.4280   14.8832 C   0  0  1  0  0  0  0  0  0  0  0  0
   -8.4653   -0.8077   14.3058 O   0  0  0  0  0  0  0  0  0  0  0  0
  -10.3239    0.5482   14.9632 C   0  0  2  0  0  0  0  0  0  0  0  0
   -4.6371    5.9467   21.6429 O   0  0  0  0  0  0  0  0  0  0  0  0
  -10.2458    5.8011   14.5439 N   0  0  0  0  0  0  0  0  0  0  0  0
   -9.6571    5.0151   15.5148 C   0  0  0  0  0  0  0  0  0  0  0  0
   -9.7794    3.6390   15.4753 N   0  0  0  0  0  0  0  0  0  0  0  0
  -10.4839    3.0436   14.4839 C   0  0  0  0  0  0  0  0  0  0  0  0
  -11.0761    3.8176   13.4936 C   0  0  0  0  0  0  0  0  0  0  0  0
  -10.9594    5.2019   13.5286 C   0  0  0  0  0  0  0  0  0  0  0  0
  -11.5346    5.9437   12.5853 N   0  0  0  0  0  0  0  0  0  0  0  0
  -11.7018    2.9841   12.6350 N   0  0  0  0  0  0  0  0  0  0  0  0
  -11.5052    1.7098   13.0475 C   0  0  0  0  0  0  0  0  0  0  0  0
  -10.7521    1.7271   14.1917 N   0  0  0  0  0  0  0  0  0  0  0  0
  2  1  1  1  0  0  0
  2  3  1  0  0  0  0
  2  5  1  0  0  0  0
  3  4  1  0  0  0  0
  3 17  1  0  0  0  0
  5  6  1  0  0  0  0
  7  6  1  1  0  0  0
  7  8  1  0  0  0  0
  7  9  1  0  0  0  0
 10  9  1  1  0  0  0
 10 11  1  0  0  0  0
 10 12  1  0  0  0  0
 11 16  1  0  0  0  0
 12 13  1  6  0  0  0
 12 14  1  0  0  0  0
 14 15  1  1  0  0  0
 14 16  1  0  0  0  0
 16 27  1  6  0  0  0
 18 19  2  0  0  0  0
 18 23  1  0  0  0  0
 19 20  1  0  0  0  0
 20 21  2  0  0  0  0
 21 22  1  0  0  0  0
 21 27  1  0  0  0  0
 22 23  2  0  0  0  0
 22 25  1  0  0  0  0
 23 24  1  0  0  0  0
 25 26  2  0  0  0  0
 26 27  1  0  0  0  0
M  END
>  <CHROM.1>
-110.81884381,-61.01493155,-174.63437076,-78.76605737,-140.41433871,-70.76099001
46.54740049,-9.02212345,2.98562110,16.84368140,-0.36456036,1.01130685,-3.06893037

>  <Name>
ligand

>  <RI>
0

>  <Rbt.Current_Directory>
/home/itssahil/PROJECTS/Mol_Feturizer/New_Systems/rnas/3GX6

>  <Rbt.Executable>
rbdock ($Id: //depot/dev/client3/rdock/2013.1/src/exe/rbdock.cxx#4 $)

>  <Rbt.Library>
libRbt.so (2013.1, Build901 2013/11/27)

>  <Rbt.Parameter_File>
/export/apps/rDock/src/rDock_2013.1_src/data/scripts/dock_solv.prm

>  <Rbt.Receptor>
prm/blind_docking_80.prm

>  <SCORE>
-17.7884

>  <SCORE.INTER>
-8.7838

>  <SCORE.INTER.CONST>
1

>  <SCORE.INTER.POLAR>
0

>  <SCORE.INTER.ROT>
7

>  <SCORE.INTER.SOLV>
9.1617

>  <SCORE.INTER.VDW>
-17.1764

>  <SCORE.INTER.norm>
-0.325326

>  <SCORE.INTRA>
-9.00465

>  <SCORE.INTRA.DIHEDRAL>
-7.04903

>  <SCORE.INTRA.DIHEDRAL.0>
15.0182

>  <SCORE.INTRA.POLAR>
0

>  <SCORE.INTRA.POLAR.0>
0

>  <SCORE.INTRA.REPUL>
0

>  <SCORE.INTRA.REPUL.0>
0

>  <SCORE.INTRA.SOLV>
-0.898742

>  <SCORE.INTRA.SOLV.lig_0>
-47.9129

>  <SCORE.INTRA.VDW>
-5.03076

>  <SCORE.INTRA.VDW.0>
2.00851

>  <SCORE.INTRA.norm>
-0.333506

>  <SCORE.RESTR>
0

>  <SCORE.RESTR.CAVITY>
0

>  <SCORE.RESTR.norm>
0

>  <SCORE.SYSTEM>
0

>  <SCORE.SYSTEM.CONST>
0

>  <SCORE.SYSTEM.DIHEDRAL>
0

>  <SCORE.SYSTEM.SOLV>
0

>  <SCORE.SYSTEM.norm>
0

>  <SCORE.heavy>
27

>  <SCORE.norm>
-0.658831

>  <RMSD>
18.666

$$$$
ligand
 OpenBabel11021811483D
libRbt.so/2013.1/901 2013/11/27
 27 29  0  0  0  0  0  0  0  0999 V2000
   -7.7978   -3.0955   16.4468 N   0  0  0  0  0  0  0  0  0  0  0  0
   -6.7086   -2.1968   16.8194 C   0  0  2  0  0  0  0  0  0  0  0  0
   -5.4045   -2.9524   17.0611 C   0  0  0  0  0  0  0  0  0  0  0  0
   -4.3150   -2.4495   16.7776 O   0  0  0  0  0  0  0  0  0  0  0  0
   -7.0918   -1.3487   18.0284 C   0  0  0  0  0  0  0  0  0  0  0  0
   -8.2222   -0.3716   17.7450 C   0  0  0  0  0  0  0  0  0  0  0  0
   -8.7832    0.5417   19.2036 S   0  0  2  0  0  0  0  0  0  0  0  0
   -9.7241   -0.7483   20.0564 C   0  0  0  0  0  0  0  0  0  0  0  0
  -10.1176    1.5422   18.4917 C   0  0  0  0  0  0  0  0  0  0  0  0
   -9.5232    2.5778   17.5480 C   0  0  1  0  0  0  0  0  0  0  0  0
   -9.6531    2.1016   16.2296 O   0  0  0  0  0  0  0  0  0  0  0  0
  -10.2130    3.9290   17.5348 C   0  0  1  0  0  0  0  0  0  0  0  0
   -9.5541    4.8395   18.3865 O   0  0  0  0  0  0  0  0  0  0  0  0
  -10.0718    4.3709   16.0923 C   0  0  1  0  0  0  0  0  0  0  0  0
   -9.0892    5.3750   16.0288 O   0  0  0  0  0  0  0  0  0  0  0  0
   -9.6075    3.1551   15.3017 C   0  0  2  0  0  0  0  0  0  0  0  0
   -5.4171   -4.0859   17.5414 O   0  0  0  0  0  0  0  0  0  0  0  0
  -13.3514    5.1133   12.1515 N   0  0  0  0  0  0  0  0  0  0  0  0
  -12.6151    5.7760   13.1136 C   0  0  0  0  0  0  0  0  0  0  0  0
  -11.6653    5.1037   13.8593 N   0  0  0  0  0  0  0  0  0  0  0  0
  -11.4479    3.7823   13.6579 C   0  0  0  0  0  0  0  0  0  0  0  0
  -12.1731    3.1009   12.6883 C   0  0  0  0  0  0  0  0  0  0  0  0
  -13.1315    3.7700   11.9369 C   0  0  0  0  0  0  0  0  0  0  0  0
  -13.8327    3.1149   11.0148 N   0  0  0  0  0  0  0  0  0  0  0  0
  -11.7595    1.8154   12.6888 N   0  0  0  0  0  0  0  0  0  0  0  0
  -10.7847    1.6743   13.6175 C   0  0  0  0  0  0  0  0  0  0  0  0
  -10.5778    2.8832   14.2279 N   0  0  0  0  0  0  0  0  0  0  0  0
  2  1  1  1  0  0  0
  2  3  1  0  0  0  0
  2  5  1  0  0  0  0
  3  4  1  0  0  0  0
  3 17  1  0  0  0  0
  5  6  1  0  0  0  0
  7  6  1  6  0  0  0
  7  8  1  0  0  0  0
  7  9  1  0  0  0  0
 10  9  1  1  0  0  0
 10 11  1  0  0  0  0
 10 12  1  0  0  0  0
 11 16  1  0  0  0  0
 12 13  1  1  0  0  0
 12 14  1  0  0  0  0
 14 15  1  1  0  0  0
 14 16  1  0  0  0  0
 16 27  1  6  0  0  0
 18 19  2  0  0  0  0
 18 23  1  0  0  0  0
 19 20  1  0  0  0  0
 20 21  2  0  0  0  0
 21 22  1  0  0  0  0
 21 27  1  0  0  0  0
 22 23  2  0  0  0  0
 22 25  1  0  0  0  0
 23 24  1  0  0  0  0
 25 26  2  0  0  0  0
 26 27  1  0  0  0  0
M  END
>  <CHROM.1>
146.00253000,-66.07040812,175.07880793,-75.01089805,-68.43275043,99.29654026
136.60471778,-9.59872309,1.64295789,15.96925750,-0.00573213,0.96255788,-2.20186211

>  <Name>
ligand

>  <RI>
0

>  <Rbt.Current_Directory>
/home/itssahil/PROJECTS/Mol_Feturizer/New_Systems/rnas/3GX6

>  <Rbt.Executable>
rbdock ($Id: //depot/dev/client3/rdock/2013.1/src/exe/rbdock.cxx#4 $)

>  <Rbt.Library>
libRbt.so (2013.1, Build901 2013/11/27)

>  <Rbt.Parameter_File>
/export/apps/rDock/src/rDock_2013.1_src/data/scripts/dock_solv.prm

>  <Rbt.Receptor>
prm/blind_docking_60.prm

>  <SCORE>
-20.2336

>  <SCORE.INTER>
-12.0424

>  <SCORE.INTER.CONST>
1

>  <SCORE.INTER.POLAR>
0

>  <SCORE.INTER.ROT>
7

>  <SCORE.INTER.SOLV>
10.2684

>  <SCORE.INTER.VDW>
-19.7177

>  <SCORE.INTER.norm>
-0.446014

>  <SCORE.INTRA>
-8.19126

>  <SCORE.INTRA.DIHEDRAL>
-7.5594

>  <SCORE.INTRA.DIHEDRAL.0>
15.0182

>  <SCORE.INTRA.POLAR>
0

>  <SCORE.INTRA.POLAR.0>
0

>  <SCORE.INTRA.REPUL>
0

>  <SCORE.INTRA.REPUL.0>
0

>  <SCORE.INTRA.SOLV>
-1.06837

>  <SCORE.INTRA.SOLV.lig_0>
-47.9129

>  <SCORE.INTRA.VDW>
-3.87738

>  <SCORE.INTRA.VDW.0>
2.00851

>  <SCORE.INTRA.norm>
-0.30338

>  <SCORE.RESTR>
0

>  <SCORE.RESTR.CAVITY>
0

>  <SCORE.RESTR.norm>
0

>  <SCORE.SYSTEM>
0

>  <SCORE.SYSTEM.CONST>
0

>  <SCORE.SYSTEM.DIHEDRAL>
0

>  <SCORE.SYSTEM.SOLV>
0

>  <SCORE.SYSTEM.norm>
0

>  <SCORE.heavy>
27

>  <SCORE.norm>
-0.749394

>  <RMSD>
18.681

$$$$
ligand
 OpenBabel11021811483D
libRbt.so/2013.1/901 2013/11/27
 27 29  0  0  0  0  0  0  0  0999 V2000
  -11.5527   -9.1257   16.9523 N   0  0  0  0  0  0  0  0  0  0  0  0
  -10.1470   -9.5126   16.8665 C   0  0  2  0  0  0  0  0  0  0  0  0
   -9.3728   -9.1272   18.1242 C   0  0  0  0  0  0  0  0  0  0  0  0
   -8.3121   -9.6847   18.4150 O   0  0  0  0  0  0  0  0  0  0  0  0
   -9.4977   -8.9313   15.6142 C   0  0  0  0  0  0  0  0  0  0  0  0
   -9.6052   -7.4167   15.5275 C   0  0  0  0  0  0  0  0  0  0  0  0
   -8.5209   -6.6761   14.2817 S   0  0  2  0  0  0  0  0  0  0  0  0
   -7.0343   -6.3842   15.2724 C   0  0  0  0  0  0  0  0  0  0  0  0
   -9.2107   -5.0024   14.1753 C   0  0  0  0  0  0  0  0  0  0  0  0
   -8.9066   -4.4177   12.8035 C   0  0  1  0  0  0  0  0  0  0  0  0
   -9.4310   -3.1123   12.7524 O   0  0  0  0  0  0  0  0  0  0  0  0
   -7.4358   -4.2507   12.4706 C   0  0  1  0  0  0  0  0  0  0  0  0
   -6.9610   -5.3471   11.7216 O   0  0  0  0  0  0  0  0  0  0  0  0
   -7.4176   -2.9950   11.6228 C   0  0  1  0  0  0  0  0  0  0  0  0
   -7.2168   -3.3667   10.2814 O   0  0  0  0  0  0  0  0  0  0  0  0
   -8.7859   -2.3432   11.7699 C   0  0  2  0  0  0  0  0  0  0  0  0
   -9.7981   -8.2517   18.8780 O   0  0  0  0  0  0  0  0  0  0  0  0
   -8.7582    0.8141   15.9895 N   0  0  0  0  0  0  0  0  0  0  0  0
   -8.9862   -0.5471   15.9456 C   0  0  0  0  0  0  0  0  0  0  0  0
   -8.9588   -1.2264   14.7422 N   0  0  0  0  0  0  0  0  0  0  0  0
   -8.7120   -0.5624   13.5880 C   0  0  0  0  0  0  0  0  0  0  0  0
   -8.4718    0.8058   13.6137 C   0  0  0  0  0  0  0  0  0  0  0  0
   -8.5005    1.4955   14.8197 C   0  0  0  0  0  0  0  0  0  0  0  0
   -8.2798    2.8077   14.8430 N   0  0  0  0  0  0  0  0  0  0  0  0
   -8.2494    1.2113   12.3449 N   0  0  0  0  0  0  0  0  0  0  0  0
   -8.3257    0.1354   11.5267 C   0  0  0  0  0  0  0  0  0  0  0  0
   -8.6112   -0.9728   12.2797 N   0  0  0  0  0  0  0  0  0  0  0  0
  2  1  1  1  0  0  0
  2  3  1  0  0  0  0
  2  5  1  0  0  0  0
  3  4  1  0  0  0  0
  3 17  1  0  0  0  0
  5  6  1  0  0  0  0
  7  6  1  1  0  0  0
  7  8  1  0  0  0  0
  7  9  1  0  0  0  0
 10  9  1  1  0  0  0
 10 11  1  0  0  0  0
 10 12  1  0  0  0  0
 11 16  1  0  0  0  0
 12 13  1  6  0  0  0
 12 14  1  0  0  0  0
 14 15  1  6  0  0  0
 14 16  1  0  0  0  0
 16 27  1  1  0  0  0
 18 19  2  0  0  0  0
 18 23  1  0  0  0  0
 19 20  1  0  0  0  0
 20 21  2  0  0  0  0
 21 22  1  0  0  0  0
 21 27  1  0  0  0  0
 22 23  2  0  0  0  0
 22 25  1  0  0  0  0
 23 24  1  0  0  0  0
 25 26  2  0  0  0  0
 26 27  1  0  0  0  0
M  END
>  <CHROM.1>
158.90250410,56.78101351,166.21724810,-89.87495051,-154.24834509,-179.02101002
16.15653140,-8.68527232,-4.03843191,14.35071204,1.97951550,-1.29435016,-3.13491951

>  <Name>
ligand

>  <RI>
0

>  <Rbt.Current_Directory>
/home/itssahil/PROJECTS/Mol_Feturizer/New_Systems/rnas/3GX6

>  <Rbt.Executable>
rbdock ($Id: //depot/dev/client3/rdock/2013.1/src/exe/rbdock.cxx#4 $)

>  <Rbt.Library>
libRbt.so (2013.1, Build901 2013/11/27)

>  <Rbt.Parameter_File>
/export/apps/rDock/src/rDock_2013.1_src/data/scripts/dock_solv.prm

>  <Rbt.Receptor>
prm/blind_docking_100.prm

>  <SCORE>
-20.7973

>  <SCORE.INTER>
-11.9753

>  <SCORE.INTER.CONST>
1

>  <SCORE.INTER.POLAR>
0

>  <SCORE.INTER.ROT>
7

>  <SCORE.INTER.SOLV>
12.0441

>  <SCORE.INTER.VDW>
-20.2649

>  <SCORE.INTER.norm>
-0.443529

>  <SCORE.INTRA>
-8.82199

>  <SCORE.INTRA.DIHEDRAL>
-7.15284

>  <SCORE.INTRA.DIHEDRAL.0>
15.0182

>  <SCORE.INTRA.POLAR>
0

>  <SCORE.INTRA.POLAR.0>
0

>  <SCORE.INTRA.REPUL>
0

>  <SCORE.INTRA.REPUL.0>
0

>  <SCORE.INTRA.SOLV>
-0.85373

>  <SCORE.INTRA.SOLV.lig_0>
-47.9129

>  <SCORE.INTRA.VDW>
-4.81871

>  <SCORE.INTRA.VDW.0>
2.00851

>  <SCORE.INTRA.norm>
-0.32674

>  <SCORE.RESTR>
0

>  <SCORE.RESTR.CAVITY>
0

>  <SCORE.RESTR.norm>
0

>  <SCORE.SYSTEM>
0

>  <SCORE.SYSTEM.CONST>
0

>  <SCORE.SYSTEM.DIHEDRAL>
0

>  <SCORE.SYSTEM.SOLV>
0

>  <SCORE.SYSTEM.norm>
0

>  <SCORE.heavy>
27

>  <SCORE.norm>
-0.77027

>  <RMSD>
18.717

$$$$
ligand
 OpenBabel11021811483D
libRbt.so/2013.1/901 2013/11/27
 27 29  0  0  0  0  0  0  0  0999 V2000
  -11.5184   -8.5676   17.1504 N   0  0  0  0  0  0  0  0  0  0  0  0
  -11.0003   -8.0624   15.8818 C   0  0  2  0  0  0  0  0  0  0  0  0
   -9.8210   -8.8905   15.3783 C   0  0  0  0  0  0  0  0  0  0  0  0
   -9.5323   -9.9701   15.8994 O   0  0  0  0  0  0  0  0  0  0  0  0
  -10.6351   -6.5852   15.9923 C   0  0  0  0  0  0  0  0  0  0  0  0
   -9.5981   -6.2997   17.0675 C   0  0  0  0  0  0  0  0  0  0  0  0
   -7.8913   -6.3358   16.4660 S   0  0  2  0  0  0  0  0  0  0  0  0
   -6.9921   -6.0699   18.0143 C   0  0  0  0  0  0  0  0  0  0  0  0
   -7.7626   -4.6994   15.6953 C   0  0  0  0  0  0  0  0  0  0  0  0
   -8.1371   -4.8039   14.2239 C   0  0  1  0  0  0  0  0  0  0  0  0
   -8.8669   -3.6534   13.8699 O   0  0  0  0  0  0  0  0  0  0  0  0
   -6.9746   -4.8325   13.2493 C   0  0  1  0  0  0  0  0  0  0  0  0
   -6.6436   -6.1577   12.8985 O   0  0  0  0  0  0  0  0  0  0  0  0
   -7.5216   -4.0965   12.0431 C   0  0  1  0  0  0  0  0  0  0  0  0
   -7.8031   -5.0383   11.0373 O   0  0  0  0  0  0  0  0  0  0  0  0
   -8.8141   -3.4237   12.4852 C   0  0  2  0  0  0  0  0  0  0  0  0
   -9.1298   -8.4910   14.4412 O   0  0  0  0  0  0  0  0  0  0  0  0
   -8.4183    1.3703   14.6384 N   0  0  0  0  0  0  0  0  0  0  0  0
   -8.5029    0.1515   15.2822 C   0  0  0  0  0  0  0  0  0  0  0  0
   -8.6050   -1.0211   14.5578 N   0  0  0  0  0  0  0  0  0  0  0  0
   -8.6280   -0.9884   13.2041 C   0  0  0  0  0  0  0  0  0  0  0  0
   -8.5352    0.2279   12.5389 C   0  0  0  0  0  0  0  0  0  0  0  0
   -8.4351    1.4108   13.2610 C   0  0  0  0  0  0  0  0  0  0  0  0
   -8.3559    2.5765   12.6238 N   0  0  0  0  0  0  0  0  0  0  0  0
   -8.5736   -0.0216   11.2123 N   0  0  0  0  0  0  0  0  0  0  0  0
   -8.6700   -1.3589   11.0256 C   0  0  0  0  0  0  0  0  0  0  0  0
   -8.7045   -1.9744   12.2489 N   0  0  0  0  0  0  0  0  0  0  0  0
  2  1  1  1  0  0  0
  2  3  1  0  0  0  0
  2  5  1  0  0  0  0
  3  4  1  0  0  0  0
  3 17  1  0  0  0  0
  5  6  1  0  0  0  0
  7  6  1  1  0  0  0
  7  8  1  0  0  0  0
  7  9  1  0  0  0  0
 10  9  1  1  0  0  0
 10 11  1  0  0  0  0
 10 12  1  0  0  0  0
 11 16  1  0  0  0  0
 12 13  1  6  0  0  0
 12 14  1  0  0  0  0
 14 15  1  6  0  0  0
 14 16  1  0  0  0  0
 16 27  1  1  0  0  0
 18 19  2  0  0  0  0
 18 23  1  0  0  0  0
 19 20  1  0  0  0  0
 20 21  2  0  0  0  0
 21 22  1  0  0  0  0
 21 27  1  0  0  0  0
 22 23  2  0  0  0  0
 22 25  1  0  0  0  0
 23 24  1  0  0  0  0
 25 26  2  0  0  0  0
 26 27  1  0  0  0  0
M  END
>  <CHROM.1>
11.16702569,58.45979545,91.51004592,-176.44287652,-91.70744571,141.75546450
1.63089431,-8.62131364,-4.15696943,14.29516632,2.13960514,-1.36669830,-2.95894190

>  <Name>
ligand

>  <RI>
0

>  <Rbt.Current_Directory>
/home/itssahil/PROJECTS/Mol_Feturizer/New_Systems/rnas/3GX6

>  <Rbt.Executable>
rbdock ($Id: //depot/dev/client3/rdock/2013.1/src/exe/rbdock.cxx#4 $)

>  <Rbt.Library>
libRbt.so (2013.1, Build901 2013/11/27)

>  <Rbt.Parameter_File>
/export/apps/rDock/src/rDock_2013.1_src/data/scripts/dock_solv.prm

>  <Rbt.Receptor>
prm/blind_docking_80.prm

>  <SCORE>
-18.7924

>  <SCORE.INTER>
-11.4464

>  <SCORE.INTER.CONST>
1

>  <SCORE.INTER.POLAR>
0

>  <SCORE.INTER.ROT>
7

>  <SCORE.INTER.SOLV>
11.2669

>  <SCORE.INTER.VDW>
-19.6532

>  <SCORE.INTER.norm>
-0.423942

>  <SCORE.INTRA>
-7.34593

>  <SCORE.INTRA.DIHEDRAL>
-3.32263

>  <SCORE.INTRA.DIHEDRAL.0>
15.0182

>  <SCORE.INTRA.POLAR>
0

>  <SCORE.INTRA.POLAR.0>
0

>  <SCORE.INTRA.REPUL>
0

>  <SCORE.INTRA.REPUL.0>
0

>  <SCORE.INTRA.SOLV>
-0.687706

>  <SCORE.INTRA.SOLV.lig_0>
-47.9129

>  <SCORE.INTRA.VDW>
-5.34076

>  <SCORE.INTRA.VDW.0>
2.00851

>  <SCORE.INTRA.norm>
-0.272072

>  <SCORE.RESTR>
0

>  <SCORE.RESTR.CAVITY>
0

>  <SCORE.RESTR.norm>
0

>  <SCORE.SYSTEM>
0

>  <SCORE.SYSTEM.CONST>
0

>  <SCORE.SYSTEM.DIHEDRAL>
0

>  <SCORE.SYSTEM.SOLV>
0

>  <SCORE.SYSTEM.norm>
0

>  <SCORE.heavy>
27

>  <SCORE.norm>
-0.696013

>  <RMSD>
18.723

$$$$
ligand
 OpenBabel11021811483D
libRbt.so/2013.1/901 2013/11/27
 27 29  0  0  0  0  0  0  0  0999 V2000
   -7.4490    3.3786   18.8640 N   0  0  0  0  0  0  0  0  0  0  0  0
   -8.8388    3.1930   19.2726 C   0  0  2  0  0  0  0  0  0  0  0  0
   -9.5260    4.5223   19.5737 C   0  0  0  0  0  0  0  0  0  0  0  0
   -8.9297    5.4295   20.1582 O   0  0  0  0  0  0  0  0  0  0  0  0
   -8.9350    2.2367   20.4576 C   0  0  0  0  0  0  0  0  0  0  0  0
   -8.7220    0.7802   20.0752 C   0  0  0  0  0  0  0  0  0  0  0  0
   -9.7781    0.2182   18.7169 S   0  0  2  0  0  0  0  0  0  0  0  0
   -9.7091   -1.5732   18.9673 C   0  0  0  0  0  0  0  0  0  0  0  0
   -8.6601    0.4223   17.3038 C   0  0  0  0  0  0  0  0  0  0  0  0
   -9.4291    0.1800   16.0130 C   0  0  1  0  0  0  0  0  0  0  0  0
  -10.2071    1.3210   15.7403 O   0  0  0  0  0  0  0  0  0  0  0  0
   -8.5826   -0.0104   14.7684 C   0  0  1  0  0  0  0  0  0  0  0  0
   -8.3861   -1.3803   14.4973 O   0  0  0  0  0  0  0  0  0  0  0  0
   -9.4285    0.6189   13.6801 C   0  0  1  0  0  0  0  0  0  0  0  0
   -9.9948   -0.4097   12.9060 O   0  0  0  0  0  0  0  0  0  0  0  0
  -10.5355    1.3985   14.3768 C   0  0  2  0  0  0  0  0  0  0  0  0
  -10.6961    4.7120   19.2412 O   0  0  0  0  0  0  0  0  0  0  0  0
  -12.9773    5.3818   11.9382 N   0  0  0  0  0  0  0  0  0  0  0  0
  -13.4379    4.0957   12.1399 C   0  0  0  0  0  0  0  0  0  0  0  0
  -12.6600    3.1659   12.8036 N   0  0  0  0  0  0  0  0  0  0  0  0
  -11.4314    3.5047   13.2614 C   0  0  0  0  0  0  0  0  0  0  0  0
  -10.9546    4.7964   13.0753 C   0  0  0  0  0  0  0  0  0  0  0  0
  -11.7304    5.7355   12.4065 C   0  0  0  0  0  0  0  0  0  0  0  0
  -11.2697    6.9700   12.2200 N   0  0  0  0  0  0  0  0  0  0  0  0
   -9.7244    4.8675   13.6275 N   0  0  0  0  0  0  0  0  0  0  0  0
   -9.4226    3.6642   14.1694 C   0  0  0  0  0  0  0  0  0  0  0  0
  -10.4690    2.8071   13.9526 N   0  0  0  0  0  0  0  0  0  0  0  0
  2  1  1  1  0  0  0
  2  3  1  0  0  0  0
  2  5  1  0  0  0  0
  3  4  1  0  0  0  0
  3 17  1  0  0  0  0
  5  6  1  0  0  0  0
  7  6  1  1  0  0  0
  7  8  1  0  0  0  0
  7  9  1  0  0  0  0
 10  9  1  1  0  0  0
 10 11  1  0  0  0  0
 10 12  1  0  0  0  0
 11 16  1  0  0  0  0
 12 13  1  6  0  0  0
 12 14  1  0  0  0  0
 14 15  1  6  0  0  0
 14 16  1  0  0  0  0
 16 27  1  6  0  0  0
 18 19  2  0  0  0  0
 18 23  1  0  0  0  0
 19 20  1  0  0  0  0
 20 21  2  0  0  0  0
 21 22  1  0  0  0  0
 21 27  1  0  0  0  0
 22 23  2  0  0  0  0
 22 25  1  0  0  0  0
 23 24  1  0  0  0  0
 25 26  2  0  0  0  0
 26 27  1  0  0  0  0
M  END
>  <CHROM.1>
-39.42124319,-74.90807904,-52.46888774,-159.96675964,-172.20823362,76.91480550
-129.94651947,-10.02210755,2.41990923,15.93025714,0.24724972,-1.21891087
0.67487226

>  <Name>
ligand

>  <RI>
0

>  <Rbt.Current_Directory>
/home/itssahil/PROJECTS/Mol_Feturizer/New_Systems/rnas/3GX6

>  <Rbt.Executable>
rbdock ($Id: //depot/dev/client3/rdock/2013.1/src/exe/rbdock.cxx#4 $)

>  <Rbt.Library>
libRbt.so (2013.1, Build901 2013/11/27)

>  <Rbt.Parameter_File>
/export/apps/rDock/src/rDock_2013.1_src/data/scripts/dock_solv.prm

>  <Rbt.Receptor>
prm/blind_docking_40.prm

>  <SCORE>
-19.262

>  <SCORE.INTER>
-10.7766

>  <SCORE.INTER.CONST>
1

>  <SCORE.INTER.POLAR>
0

>  <SCORE.INTER.ROT>
7

>  <SCORE.INTER.SOLV>
12.1673

>  <SCORE.INTER.VDW>
-19.5068

>  <SCORE.INTER.norm>
-0.399134

>  <SCORE.INTRA>
-8.49233

>  <SCORE.INTRA.DIHEDRAL>
-7.08524

>  <SCORE.INTRA.DIHEDRAL.0>
15.0182

>  <SCORE.INTRA.POLAR>
0

>  <SCORE.INTRA.POLAR.0>
0

>  <SCORE.INTRA.REPUL>
0

>  <SCORE.INTRA.REPUL.0>
0

>  <SCORE.INTRA.SOLV>
0.0819047

>  <SCORE.INTRA.SOLV.lig_0>
-47.9129

>  <SCORE.INTRA.VDW>
-4.99066

>  <SCORE.INTRA.VDW.0>
2.00851

>  <SCORE.INTRA.norm>
-0.314531

>  <SCORE.RESTR>
0.00691641

>  <SCORE.RESTR.CAVITY>
0.00691641

>  <SCORE.RESTR.norm>
0.000256163

>  <SCORE.SYSTEM>
0

>  <SCORE.SYSTEM.CONST>
0

>  <SCORE.SYSTEM.DIHEDRAL>
0

>  <SCORE.SYSTEM.SOLV>
0

>  <SCORE.SYSTEM.norm>
0

>  <SCORE.heavy>
27

>  <SCORE.norm>
-0.713409

>  <RMSD>
18.808

$$$$
ligand
 OpenBabel11021811483D
libRbt.so/2013.1/901 2013/11/27
 27 29  0  0  0  0  0  0  0  0999 V2000
   -6.9022    2.9086   17.7907 N   0  0  0  0  0  0  0  0  0  0  0  0
   -6.2891    1.9433   16.8823 C   0  0  2  0  0  0  0  0  0  0  0  0
   -5.8381    2.5956   15.5782 C   0  0  0  0  0  0  0  0  0  0  0  0
   -6.5802    3.3616   14.9593 O   0  0  0  0  0  0  0  0  0  0  0  0
   -7.2279    0.7693   16.6209 C   0  0  0  0  0  0  0  0  0  0  0  0
   -7.3794   -0.1587   17.8162 C   0  0  0  0  0  0  0  0  0  0  0  0
   -8.7174   -1.3652   17.6411 S   0  0  2  0  0  0  0  0  0  0  0  0
   -9.9738   -0.6192   18.7095 C   0  0  0  0  0  0  0  0  0  0  0  0
   -8.1089   -2.7101   18.6944 C   0  0  0  0  0  0  0  0  0  0  0  0
   -7.1395   -3.5737   17.9003 C   0  0  1  0  0  0  0  0  0  0  0  0
   -7.7708   -3.9621   16.7035 O   0  0  0  0  0  0  0  0  0  0  0  0
   -5.8624   -2.8879   17.4522 C   0  0  1  0  0  0  0  0  0  0  0  0
   -4.8085   -3.1474   18.3525 O   0  0  0  0  0  0  0  0  0  0  0  0
   -5.5758   -3.5394   16.1145 C   0  0  1  0  0  0  0  0  0  0  0  0
   -4.5048   -4.4363   16.2769 O   0  0  0  0  0  0  0  0  0  0  0  0
   -6.8288   -4.3102   15.7215 C   0  0  2  0  0  0  0  0  0  0  0  0
   -4.7212    2.3636   15.1152 O   0  0  0  0  0  0  0  0  0  0  0  0
   -6.0267   -4.1793   10.5143 N   0  0  0  0  0  0  0  0  0  0  0  0
   -5.2706   -4.8186   11.4769 C   0  0  0  0  0  0  0  0  0  0  0  0
   -5.6247   -4.7479   12.8110 N   0  0  0  0  0  0  0  0  0  0  0  0
   -6.7178   -4.0450   13.1917 C   0  0  0  0  0  0  0  0  0  0  0  0
   -7.4955   -3.4023   12.2363 C   0  0  0  0  0  0  0  0  0  0  0  0
   -7.1437   -3.4670   10.8936 C   0  0  0  0  0  0  0  0  0  0  0  0
   -7.8834   -2.8435    9.9797 N   0  0  0  0  0  0  0  0  0  0  0  0
   -8.5152   -2.7901   12.8758 N   0  0  0  0  0  0  0  0  0  0  0  0
   -8.4101   -3.0440   14.2014 C   0  0  0  0  0  0  0  0  0  0  0  0
   -7.3022   -3.8207   14.4158 N   0  0  0  0  0  0  0  0  0  0  0  0
  2  1  1  1  0  0  0
  2  3  1  0  0  0  0
  2  5  1  0  0  0  0
  3  4  1  0  0  0  0
  3 17  1  0  0  0  0
  5  6  1  0  0  0  0
  7  6  1  1  0  0  0
  7  8  1  0  0  0  0
  7  9  1  0  0  0  0
 10  9  1  6  0  0  0
 10 11  1  0  0  0  0
 10 12  1  0  0  0  0
 11 16  1  0  0  0  0
 12 13  1  1  0  0  0
 12 14  1  0  0  0  0
 14 15  1  1  0  0  0
 14 16  1  0  0  0  0
 16 27  1  6  0  0  0
 18 19  2  0  0  0  0
 18 23  1  0  0  0  0
 19 20  1  0  0  0  0
 20 21  2  0  0  0  0
 21 22  1  0  0  0  0
 21 27  1  0  0  0  0
 22 23  2  0  0  0  0
 22 25  1  0  0  0  0
 23 24  1  0  0  0  0
 25 26  2  0  0  0  0
 26 27  1  0  0  0  0
M  END
>  <CHROM.1>
-46.81656535,-71.74532828,168.90109106,-103.38874214,-83.48232639,-52.60478139
-174.77938462,-6.91047425,-1.91546486,15.41819850,-2.12328146,-1.44290918
-2.88346344

>  <Name>
ligand

>  <RI>
0

>  <Rbt.Current_Directory>
/home/itssahil/PROJECTS/Mol_Feturizer/New_Systems/rnas/3GX6

>  <Rbt.Executable>
rbdock ($Id: //depot/dev/client3/rdock/2013.1/src/exe/rbdock.cxx#4 $)

>  <Rbt.Library>
libRbt.so (2013.1, Build901 2013/11/27)

>  <Rbt.Parameter_File>
/export/apps/rDock/src/rDock_2013.1_src/data/scripts/dock_solv.prm

>  <Rbt.Receptor>
prm/blind_docking_80.prm

>  <SCORE>
-21.5572

>  <SCORE.INTER>
-12.4093

>  <SCORE.INTER.CONST>
1

>  <SCORE.INTER.POLAR>
0

>  <SCORE.INTER.ROT>
7

>  <SCORE.INTER.SOLV>
12.2055

>  <SCORE.INTER.VDW>
-20.608

>  <SCORE.INTER.norm>
-0.459603

>  <SCORE.INTRA>
-9.14796

>  <SCORE.INTRA.DIHEDRAL>
-7.21192

>  <SCORE.INTRA.DIHEDRAL.0>
15.0182

>  <SCORE.INTRA.POLAR>
0

>  <SCORE.INTRA.POLAR.0>
0

>  <SCORE.INTRA.REPUL>
0

>  <SCORE.INTRA.REPUL.0>
0

>  <SCORE.INTRA.SOLV>
-0.905165

>  <SCORE.INTRA.SOLV.lig_0>
-47.9129

>  <SCORE.INTRA.VDW>
-5.08942

>  <SCORE.INTRA.VDW.0>
2.00851

>  <SCORE.INTRA.norm>
-0.338813

>  <SCORE.RESTR>
0

>  <SCORE.RESTR.CAVITY>
0

>  <SCORE.RESTR.norm>
0

>  <SCORE.SYSTEM>
0

>  <SCORE.SYSTEM.CONST>
0

>  <SCORE.SYSTEM.DIHEDRAL>
0

>  <SCORE.SYSTEM.SOLV>
0

>  <SCORE.SYSTEM.norm>
0

>  <SCORE.heavy>
27

>  <SCORE.norm>
-0.798416

>  <RMSD>
18.815

$$$$
ligand
 OpenBabel11021811483D
libRbt.so/2013.1/901 2013/11/27
 27 29  0  0  0  0  0  0  0  0999 V2000
   -5.5788   -5.4360   10.7243 N   0  0  0  0  0  0  0  0  0  0  0  0
   -6.6415   -5.7545   11.6741 C   0  0  2  0  0  0  0  0  0  0  0  0
   -7.0202   -7.2326   11.6300 C   0  0  0  0  0  0  0  0  0  0  0  0
   -7.8406   -7.6557   10.8126 O   0  0  0  0  0  0  0  0  0  0  0  0
   -7.8584   -4.8621   11.4491 C   0  0  0  0  0  0  0  0  0  0  0  0
   -7.5928   -3.3946   11.7474 C   0  0  0  0  0  0  0  0  0  0  0  0
   -9.0032   -2.3119   11.4088 S   0  0  2  0  0  0  0  0  0  0  0  0
   -9.0151   -2.3450    9.5990 C   0  0  0  0  0  0  0  0  0  0  0  0
   -8.2725   -0.6835   11.7292 C   0  0  0  0  0  0  0  0  0  0  0  0
   -9.1708    0.0942   12.6803 C   0  0  1  0  0  0  0  0  0  0  0  0
   -9.1548   -0.5509   13.9314 O   0  0  0  0  0  0  0  0  0  0  0  0
   -8.7373    1.5169   12.9797 C   0  0  1  0  0  0  0  0  0  0  0  0
   -9.4128    2.4349   12.1492 O   0  0  0  0  0  0  0  0  0  0  0  0
   -9.1639    1.7083   14.4210 C   0  0  1  0  0  0  0  0  0  0  0  0
  -10.3053    2.5296   14.4418 O   0  0  0  0  0  0  0  0  0  0  0  0
   -9.5196    0.3303   14.9626 C   0  0  2  0  0  0  0  0  0  0  0  0
   -6.5145   -8.0325   12.4174 O   0  0  0  0  0  0  0  0  0  0  0  0
   -9.4115   -0.9588   20.0716 N   0  0  0  0  0  0  0  0  0  0  0  0
  -10.5153   -0.7801   19.2612 C   0  0  0  0  0  0  0  0  0  0  0  0
  -10.3631   -0.4375   17.9309 N   0  0  0  0  0  0  0  0  0  0  0  0
   -9.1264   -0.2679   17.4059 C   0  0  0  0  0  0  0  0  0  0  0  0
   -8.0039   -0.4518   18.2039 C   0  0  0  0  0  0  0  0  0  0  0  0
   -8.1496   -0.7937   19.5428 C   0  0  0  0  0  0  0  0  0  0  0  0
   -7.0746   -0.9605   20.3093 N   0  0  0  0  0  0  0  0  0  0  0  0
   -6.9121   -0.2314   17.4403 N   0  0  0  0  0  0  0  0  0  0  0  0
   -7.3160    0.0682   16.1833 C   0  0  0  0  0  0  0  0  0  0  0  0
   -8.6852    0.0498   16.1431 N   0  0  0  0  0  0  0  0  0  0  0  0
  2  1  1  6  0  0  0
  2  3  1  0  0  0  0
  2  5  1  0  0  0  0
  3  4  1  0  0  0  0
  3 17  1  0  0  0  0
  5  6  1  0  0  0  0
  7  6  1  1  0  0  0
  7  8  1  0  0  0  0
  7  9  1  0  0  0  0
 10  9  1  6  0  0  0
 10 11  1  0  0  0  0
 10 12  1  0  0  0  0
 11 16  1  0  0  0  0
 12 13  1  6  0  0  0
 12 14  1  0  0  0  0
 14 15  1  6  0  0  0
 14 16  1  0  0  0  0
 16 27  1  1  0  0  0
 18 19  2  0  0  0  0
 18 23  1  0  0  0  0
 19 20  1  0  0  0  0
 20 21  2  0  0  0  0
 21 22  1  0  0  0  0
 21 27  1  0  0  0  0
 22 23  2  0  0  0  0
 22 25  1  0  0  0  0
 23 24  1  0  0  0  0
 25 26  2  0  0  0  0
 26 27  1  0  0  0  0
M  END
>  <CHROM.1>
-85.32675270,-65.81625077,177.19943639,-71.31506297,-129.21551639,66.70819012
-123.62588331,-8.41816128,-1.71083030,14.22685775,-0.97527744,-1.25308137
1.42045595

>  <Name>
ligand

>  <RI>
0

>  <Rbt.Current_Directory>
/home/itssahil/PROJECTS/Mol_Feturizer/New_Systems/rnas/3GX6

>  <Rbt.Executable>
rbdock ($Id: //depot/dev/client3/rdock/2013.1/src/exe/rbdock.cxx#4 $)

>  <Rbt.Library>
libRbt.so (2013.1, Build901 2013/11/27)

>  <Rbt.Parameter_File>
/export/apps/rDock/src/rDock_2013.1_src/data/scripts/dock_solv.prm

>  <Rbt.Receptor>
prm/blind_docking_80.prm

>  <SCORE>
-20.8072

>  <SCORE.INTER>
-12.6586

>  <SCORE.INTER.CONST>
1

>  <SCORE.INTER.POLAR>
0

>  <SCORE.INTER.ROT>
7

>  <SCORE.INTER.SOLV>
13.4024

>  <SCORE.INTER.VDW>
-21.1732

>  <SCORE.INTER.norm>
-0.468839

>  <SCORE.INTRA>
-8.14856

>  <SCORE.INTRA.DIHEDRAL>
-7.11319

>  <SCORE.INTRA.DIHEDRAL.0>
15.0182

>  <SCORE.INTRA.POLAR>
0

>  <SCORE.INTRA.POLAR.0>
0

>  <SCORE.INTRA.REPUL>
0

>  <SCORE.INTRA.REPUL.0>
0

>  <SCORE.INTRA.SOLV>
-1.23744

>  <SCORE.INTRA.SOLV.lig_0>
-47.9129

>  <SCORE.INTRA.VDW>
-3.97324

>  <SCORE.INTRA.VDW.0>
2.00851

>  <SCORE.INTRA.norm>
-0.301798

>  <SCORE.RESTR>
0

>  <SCORE.RESTR.CAVITY>
0

>  <SCORE.RESTR.norm>
0

>  <SCORE.SYSTEM>
0

>  <SCORE.SYSTEM.CONST>
0

>  <SCORE.SYSTEM.DIHEDRAL>
0

>  <SCORE.SYSTEM.SOLV>
0

>  <SCORE.SYSTEM.norm>
0

>  <SCORE.heavy>
27

>  <SCORE.norm>
-0.770637

>  <RMSD>
18.837

$$$$
ligand
 OpenBabel11021811483D
libRbt.so/2013.1/901 2013/11/27
 27 29  0  0  0  0  0  0  0  0999 V2000
  -11.5278   -7.0328   16.6445 N   0  0  0  0  0  0  0  0  0  0  0  0
  -10.8025   -8.2486   16.2855 C   0  0  2  0  0  0  0  0  0  0  0  0
  -11.2638   -9.4500   17.1063 C   0  0  0  0  0  0  0  0  0  0  0  0
  -11.9462   -9.3028   18.1227 O   0  0  0  0  0  0  0  0  0  0  0  0
   -9.2960   -8.0393   16.4050 C   0  0  0  0  0  0  0  0  0  0  0  0
   -8.7864   -6.8549   15.5984 C   0  0  0  0  0  0  0  0  0  0  0  0
   -7.0045   -6.5768   15.7525 S   0  0  2  0  0  0  0  0  0  0  0  0
   -6.9134   -5.9682   17.4548 C   0  0  0  0  0  0  0  0  0  0  0  0
   -6.8135   -5.0367   14.8143 C   0  0  0  0  0  0  0  0  0  0  0  0
   -7.1806   -5.2843   13.3582 C   0  0  1  0  0  0  0  0  0  0  0  0
   -8.5687   -5.1001   13.2140 O   0  0  0  0  0  0  0  0  0  0  0  0
   -6.5633   -4.3306   12.3525 C   0  0  1  0  0  0  0  0  0  0  0  0
   -5.3948   -4.8815   11.7871 O   0  0  0  0  0  0  0  0  0  0  0  0
   -7.6418   -4.2028   11.2959 C   0  0  1  0  0  0  0  0  0  0  0  0
   -7.2459   -4.9389   10.1648 O   0  0  0  0  0  0  0  0  0  0  0  0
   -8.9079   -4.8131   11.8815 C   0  0  2  0  0  0  0  0  0  0  0  0
  -10.9569  -10.5937   16.7696 O   0  0  0  0  0  0  0  0  0  0  0  0
  -10.5440   -0.1238   13.6446 N   0  0  0  0  0  0  0  0  0  0  0  0
   -9.3566   -0.7715   13.9228 C   0  0  0  0  0  0  0  0  0  0  0  0
   -9.0855   -2.0103   13.3730 N   0  0  0  0  0  0  0  0  0  0  0  0
   -9.9857   -2.6073   12.5562 C   0  0  0  0  0  0  0  0  0  0  0  0
  -11.1821   -1.9668   12.2581 C   0  0  0  0  0  0  0  0  0  0  0  0
  -11.4622   -0.7225   12.8096 C   0  0  0  0  0  0  0  0  0  0  0  0
  -12.6124   -0.1135   12.5315 N   0  0  0  0  0  0  0  0  0  0  0  0
  -11.8842   -2.7666   11.4268 N   0  0  0  0  0  0  0  0  0  0  0  0
  -11.1565   -3.8814   11.1810 C   0  0  0  0  0  0  0  0  0  0  0  0
   -9.9765   -3.7999   11.8722 N   0  0  0  0  0  0  0  0  0  0  0  0
  2  1  1  1  0  0  0
  2  3  1  0  0  0  0
  2  5  1  0  0  0  0
  3  4  1  0  0  0  0
  3 17  1  0  0  0  0
  5  6  1  0  0  0  0
  7  6  1  1  0  0  0
  7  8  1  0  0  0  0
  7  9  1  0  0  0  0
 10  9  1  1  0  0  0
 10 11  1  0  0  0  0
 10 12  1  0  0  0  0
 11 16  1  0  0  0  0
 12 13  1  6  0  0  0
 12 14  1  0  0  0  0
 14 15  1  6  0  0  0
 14 16  1  0  0  0  0
 16 27  1  1  0  0  0
 18 19  2  0  0  0  0
 18 23  1  0  0  0  0
 19 20  1  0  0  0  0
 20 21  2  0  0  0  0
 21 22  1  0  0  0  0
 21 27  1  0  0  0  0
 22 23  2  0  0  0  0
 22 25  1  0  0  0  0
 23 24  1  0  0  0  0
 25 26  2  0  0  0  0
 26 27  1  0  0  0  0
M  END
>  <CHROM.1>
-14.40949407,-54.92398813,179.01984575,-70.96686737,-63.94146967,87.18144849
50.17563950,-9.25108340,-4.97502456,14.00159869,1.56927512,-0.31250808,2.50900015

>  <Name>
ligand

>  <RI>
0

>  <Rbt.Current_Directory>
/home/itssahil/PROJECTS/Mol_Feturizer/New_Systems/rnas/3GX6

>  <Rbt.Executable>
rbdock ($Id: //depot/dev/client3/rdock/2013.1/src/exe/rbdock.cxx#4 $)

>  <Rbt.Library>
libRbt.so (2013.1, Build901 2013/11/27)

>  <Rbt.Parameter_File>
/export/apps/rDock/src/rDock_2013.1_src/data/scripts/dock_solv.prm

>  <Rbt.Receptor>
prm/blind_docking_80.prm

>  <SCORE>
-20.7587

>  <SCORE.INTER>
-11.1214

>  <SCORE.INTER.CONST>
1

>  <SCORE.INTER.POLAR>
0

>  <SCORE.INTER.ROT>
7

>  <SCORE.INTER.SOLV>
11.876

>  <SCORE.INTER.VDW>
-19.6396

>  <SCORE.INTER.norm>
-0.411902

>  <SCORE.INTRA>
-9.64976

>  <SCORE.INTRA.DIHEDRAL>
-9.40419

>  <SCORE.INTRA.DIHEDRAL.0>
15.0182

>  <SCORE.INTRA.POLAR>
0

>  <SCORE.INTRA.POLAR.0>
0

>  <SCORE.INTRA.REPUL>
0

>  <SCORE.INTRA.REPUL.0>
0

>  <SCORE.INTRA.SOLV>
-1.02367

>  <SCORE.INTRA.SOLV.lig_0>
-47.9129

>  <SCORE.INTRA.VDW>
-4.43583

>  <SCORE.INTRA.VDW.0>
2.00851

>  <SCORE.INTRA.norm>
-0.357399

>  <SCORE.RESTR>
0.0124117

>  <SCORE.RESTR.CAVITY>
0.0124117

>  <SCORE.RESTR.norm>
0.000459694

>  <SCORE.SYSTEM>
0

>  <SCORE.SYSTEM.CONST>
0

>  <SCORE.SYSTEM.DIHEDRAL>
0

>  <SCORE.SYSTEM.SOLV>
0

>  <SCORE.SYSTEM.norm>
0

>  <SCORE.heavy>
27

>  <SCORE.norm>
-0.768841

>  <RMSD>
18.842

$$$$
ligand
 OpenBabel11021811483D
libRbt.so/2013.1/901 2013/11/27
 27 29  0  0  0  0  0  0  0  0999 V2000
   -8.8722   -6.4266   18.4800 N   0  0  0  0  0  0  0  0  0  0  0  0
   -8.5982   -5.3463   17.5362 C   0  0  2  0  0  0  0  0  0  0  0  0
   -7.4586   -5.6980   16.5836 C   0  0  0  0  0  0  0  0  0  0  0  0
   -6.4550   -6.2926   16.9831 O   0  0  0  0  0  0  0  0  0  0  0  0
   -8.3244   -4.0375   18.2711 C   0  0  0  0  0  0  0  0  0  0  0  0
   -8.1344   -2.8513   17.3384 C   0  0  0  0  0  0  0  0  0  0  0  0
   -7.7022   -1.3133   18.1893 S   0  0  2  0  0  0  0  0  0  0  0  0
   -9.3276   -0.8139   18.8100 C   0  0  0  0  0  0  0  0  0  0  0  0
   -7.4980   -0.1869   16.7828 C   0  0  0  0  0  0  0  0  0  0  0  0
   -6.6450    1.0001   17.2069 C   0  0  1  0  0  0  0  0  0  0  0  0
   -6.3436    1.7605   16.0612 O   0  0  0  0  0  0  0  0  0  0  0  0
   -7.3088    1.9831   18.1529 C   0  0  1  0  0  0  0  0  0  0  0  0
   -6.9648    1.7047   19.4918 O   0  0  0  0  0  0  0  0  0  0  0  0
   -6.7205    3.3141   17.7309 C   0  0  1  0  0  0  0  0  0  0  0  0
   -5.7793    3.7110   18.6976 O   0  0  0  0  0  0  0  0  0  0  0  0
   -6.0161    3.0835   16.4008 C   0  0  2  0  0  0  0  0  0  0  0  0
   -7.5187   -5.3881   15.3936 O   0  0  0  0  0  0  0  0  0  0  0  0
   -5.9392    4.7019   11.3858 N   0  0  0  0  0  0  0  0  0  0  0  0
   -5.1570    3.7311   11.9798 C   0  0  0  0  0  0  0  0  0  0  0  0
   -5.3071    3.4299   13.3203 N   0  0  0  0  0  0  0  0  0  0  0  0
   -6.2225    4.0882   14.0704 C   0  0  0  0  0  0  0  0  0  0  0  0
   -7.0243    5.0620   13.4880 C   0  0  0  0  0  0  0  0  0  0  0  0
   -6.8769    5.3718   12.1415 C   0  0  0  0  0  0  0  0  0  0  0  0
   -7.6384    6.3112   11.5861 N   0  0  0  0  0  0  0  0  0  0  0  0
   -7.8448    5.5490   14.4437 N   0  0  0  0  0  0  0  0  0  0  0  0
   -7.5934    4.8977   15.6035 C   0  0  0  0  0  0  0  0  0  0  0  0
   -6.5912    3.9882   15.3912 N   0  0  0  0  0  0  0  0  0  0  0  0
  2  1  1  1  0  0  0
  2  3  1  0  0  0  0
  2  5  1  0  0  0  0
  3  4  1  0  0  0  0
  3 17  1  0  0  0  0
  5  6  1  0  0  0  0
  7  6  1  6  0  0  0
  7  8  1  0  0  0  0
  7  9  1  0  0  0  0
 10  9  1  6  0  0  0
 10 11  1  0  0  0  0
 10 12  1  0  0  0  0
 11 16  1  0  0  0  0
 12 13  1  1  0  0  0
 12 14  1  0  0  0  0
 14 15  1  1  0  0  0
 14 16  1  0  0  0  0
 16 27  1  6  0  0  0
 18 19  2  0  0  0  0
 18 23  1  0  0  0  0
 19 20  1  0  0  0  0
 20 21  2  0  0  0  0
 21 22  1  0  0  0  0
 21 27  1  0  0  0  0
 22 23  2  0  0  0  0
 22 25  1  0  0  0  0
 23 24  1  0  0  0  0
 25 26  2  0  0  0  0
 26 27  1  0  0  0  0
M  END
>  <CHROM.1>
-40.27756325,-175.69594119,-176.23032730,-78.41807918,-158.95113705,171.87160887
-67.20723787,-7.13935488,0.72329034,16.16974326,-2.61155860,1.41845604,0.64550582

>  <Name>
ligand

>  <RI>
0

>  <Rbt.Current_Directory>
/home/itssahil/PROJECTS/Mol_Feturizer/New_Systems/rnas/3GX6

>  <Rbt.Executable>
rbdock ($Id: //depot/dev/client3/rdock/2013.1/src/exe/rbdock.cxx#4 $)

>  <Rbt.Library>
libRbt.so (2013.1, Build901 2013/11/27)

>  <Rbt.Parameter_File>
/export/apps/rDock/src/rDock_2013.1_src/data/scripts/dock_solv.prm

>  <Rbt.Receptor>
prm/blind_docking_60.prm

>  <SCORE>
-17.57

>  <SCORE.INTER>
-8.37949

>  <SCORE.INTER.CONST>
1

>  <SCORE.INTER.POLAR>
0

>  <SCORE.INTER.ROT>
7

>  <SCORE.INTER.SOLV>
11.3531

>  <SCORE.INTER.VDW>
-17.6373

>  <SCORE.INTER.norm>
-0.310351

>  <SCORE.INTRA>
-9.19054

>  <SCORE.INTRA.DIHEDRAL>
-9.07091

>  <SCORE.INTRA.DIHEDRAL.0>
15.0182

>  <SCORE.INTRA.POLAR>
0

>  <SCORE.INTRA.POLAR.0>
0

>  <SCORE.INTRA.REPUL>
0

>  <SCORE.INTRA.REPUL.0>
0

>  <SCORE.INTRA.SOLV>
-1.60451

>  <SCORE.INTRA.SOLV.lig_0>
-47.9129

>  <SCORE.INTRA.VDW>
-3.85283

>  <SCORE.INTRA.VDW.0>
2.00851

>  <SCORE.INTRA.norm>
-0.34039

>  <SCORE.RESTR>
0

>  <SCORE.RESTR.CAVITY>
0

>  <SCORE.RESTR.norm>
0

>  <SCORE.SYSTEM>
0

>  <SCORE.SYSTEM.CONST>
0

>  <SCORE.SYSTEM.DIHEDRAL>
0

>  <SCORE.SYSTEM.SOLV>
0

>  <SCORE.SYSTEM.norm>
0

>  <SCORE.heavy>
27

>  <SCORE.norm>
-0.650742

>  <RMSD>
18.879

$$$$
ligand
 OpenBabel11021811483D
libRbt.so/2013.1/901 2013/11/27
 27 29  0  0  0  0  0  0  0  0999 V2000
   -7.6449   -5.0702   14.4012 N   0  0  0  0  0  0  0  0  0  0  0  0
   -7.3901   -5.4803   13.0229 C   0  0  2  0  0  0  0  0  0  0  0  0
   -5.9474   -5.2077   12.6053 C   0  0  0  0  0  0  0  0  0  0  0  0
   -5.2951   -6.0482   11.9821 O   0  0  0  0  0  0  0  0  0  0  0  0
   -8.3795   -4.8209   12.0667 C   0  0  0  0  0  0  0  0  0  0  0  0
   -8.2962   -3.3023   12.0666 C   0  0  0  0  0  0  0  0  0  0  0  0
   -9.2102   -2.5194   10.7146 S   0  0  2  0  0  0  0  0  0  0  0  0
   -8.1676   -2.9750    9.3067 C   0  0  0  0  0  0  0  0  0  0  0  0
   -8.7504   -0.7810   10.9489 C   0  0  0  0  0  0  0  0  0  0  0  0
   -9.7521   -0.1155   11.8817 C   0  0  1  0  0  0  0  0  0  0  0  0
   -9.8334   -0.8791   13.0615 O   0  0  0  0  0  0  0  0  0  0  0  0
   -9.3854    1.2786   12.3546 C   0  0  1  0  0  0  0  0  0  0  0  0
  -10.0063    2.2612   11.5560 O   0  0  0  0  0  0  0  0  0  0  0  0
   -9.9469    1.3211   13.7614 C   0  0  1  0  0  0  0  0  0  0  0  0
  -11.1067    2.1164   13.7536 O   0  0  0  0  0  0  0  0  0  0  0  0
  -10.3140   -0.1091   14.1334 C   0  0  2  0  0  0  0  0  0  0  0  0
   -5.4043   -4.1399   12.8891 O   0  0  0  0  0  0  0  0  0  0  0  0
  -10.1381    0.0846   19.3971 N   0  0  0  0  0  0  0  0  0  0  0  0
  -11.0929    0.6215   18.5563 C   0  0  0  0  0  0  0  0  0  0  0  0
  -10.9835    0.4791   17.1859 N   0  0  0  0  0  0  0  0  0  0  0  0
   -9.9332   -0.1867   16.6496 C   0  0  0  0  0  0  0  0  0  0  0  0
   -8.9673   -0.7411   17.4803 C   0  0  0  0  0  0  0  0  0  0  0  0
   -9.0696   -0.5993   18.8588 C   0  0  0  0  0  0  0  0  0  0  0  0
   -8.1393   -1.1222   19.6539 N   0  0  0  0  0  0  0  0  0  0  0  0
   -8.0478   -1.3476   16.6991 N   0  0  0  0  0  0  0  0  0  0  0  0
   -8.4173   -1.2051   15.4046 C   0  0  0  0  0  0  0  0  0  0  0  0
   -9.5839   -0.4886   15.3546 N   0  0  0  0  0  0  0  0  0  0  0  0
  2  1  1  1  0  0  0
  2  3  1  0  0  0  0
  2  5  1  0  0  0  0
  3  4  1  0  0  0  0
  3 17  1  0  0  0  0
  5  6  1  0  0  0  0
  7  6  1  1  0  0  0
  7  8  1  0  0  0  0
  7  9  1  0  0  0  0
 10  9  1  6  0  0  0
 10 11  1  0  0  0  0
 10 12  1  0  0  0  0
 11 16  1  0  0  0  0
 12 13  1  6  0  0  0
 12 14  1  0  0  0  0
 14 15  1  6  0  0  0
 14 16  1  0  0  0  0
 16 27  1  1  0  0  0
 18 19  2  0  0  0  0
 18 23  1  0  0  0  0
 19 20  1  0  0  0  0
 20 21  2  0  0  0  0
 21 22  1  0  0  0  0
 21 27  1  0  0  0  0
 22 23  2  0  0  0  0
 22 25  1  0  0  0  0
 23 24  1  0  0  0  0
 25 26  2  0  0  0  0
 26 27  1  0  0  0  0
M  END
>  <CHROM.1>
135.64444215,61.28099212,168.28629383,-70.98961378,-90.03984124,53.66948055
-165.25655550,-8.85250308,-1.51218484,14.01153545,-0.88268585,-1.01900849
1.53905354

>  <Name>
ligand

>  <RI>
0

>  <Rbt.Current_Directory>
/home/itssahil/PROJECTS/Mol_Feturizer/New_Systems/rnas/3GX6

>  <Rbt.Executable>
rbdock ($Id: //depot/dev/client3/rdock/2013.1/src/exe/rbdock.cxx#4 $)

>  <Rbt.Library>
libRbt.so (2013.1, Build901 2013/11/27)

>  <Rbt.Parameter_File>
/export/apps/rDock/src/rDock_2013.1_src/data/scripts/dock_solv.prm

>  <Rbt.Receptor>
prm/blind_docking_100.prm

>  <SCORE>
-21.9815

>  <SCORE.INTER>
-12.0246

>  <SCORE.INTER.CONST>
1

>  <SCORE.INTER.POLAR>
0

>  <SCORE.INTER.ROT>
7

>  <SCORE.INTER.SOLV>
8.07832

>  <SCORE.INTER.VDW>
-18.9758

>  <SCORE.INTER.norm>
-0.445354

>  <SCORE.INTRA>
-9.95696

>  <SCORE.INTRA.DIHEDRAL>
-9.92156

>  <SCORE.INTRA.DIHEDRAL.0>
15.0182

>  <SCORE.INTRA.POLAR>
0

>  <SCORE.INTRA.POLAR.0>
0

>  <SCORE.INTRA.REPUL>
0

>  <SCORE.INTRA.REPUL.0>
0

>  <SCORE.INTRA.SOLV>
-1.08009

>  <SCORE.INTRA.SOLV.lig_0>
-47.9129

>  <SCORE.INTRA.VDW>
-4.45613

>  <SCORE.INTRA.VDW.0>
2.00851

>  <SCORE.INTRA.norm>
-0.368776

>  <SCORE.RESTR>
0

>  <SCORE.RESTR.CAVITY>
0

>  <SCORE.RESTR.norm>
0

>  <SCORE.SYSTEM>
0

>  <SCORE.SYSTEM.CONST>
0

>  <SCORE.SYSTEM.DIHEDRAL>
0

>  <SCORE.SYSTEM.SOLV>
0

>  <SCORE.SYSTEM.norm>
0

>  <SCORE.heavy>
27

>  <SCORE.norm>
-0.814131

>  <RMSD>
18.882

$$$$
ligand
 OpenBabel11021811483D
libRbt.so/2013.1/901 2013/11/27
 27 29  0  0  0  0  0  0  0  0999 V2000
  -10.8310    4.9427   10.7262 N   0  0  0  0  0  0  0  0  0  0  0  0
  -10.7029    6.0874   11.6240 C   0  0  2  0  0  0  0  0  0  0  0  0
  -10.6836    7.4096   10.8615 C   0  0  0  0  0  0  0  0  0  0  0  0
  -10.6316    8.4878   11.4575 O   0  0  0  0  0  0  0  0  0  0  0  0
   -9.4749    5.9435   12.5181 C   0  0  0  0  0  0  0  0  0  0  0  0
   -9.4657    4.6551   13.3261 C   0  0  0  0  0  0  0  0  0  0  0  0
   -8.0289    4.4836   14.4136 S   0  0  2  0  0  0  0  0  0  0  0  0
   -6.7097    4.2997   13.1879 C   0  0  0  0  0  0  0  0  0  0  0  0
   -8.2278    2.7725   14.9803 C   0  0  0  0  0  0  0  0  0  0  0  0
   -9.4310    2.6850   15.9082 C   0  0  1  0  0  0  0  0  0  0  0  0
   -9.7244    1.3255   16.1258 O   0  0  0  0  0  0  0  0  0  0  0  0
   -9.2330    3.2593   17.2985 C   0  0  1  0  0  0  0  0  0  0  0  0
   -9.7150    4.5827   17.3704 O   0  0  0  0  0  0  0  0  0  0  0  0
  -10.0783    2.3503   18.1674 C   0  0  1  0  0  0  0  0  0  0  0  0
  -11.2444    3.0449   18.5355 O   0  0  0  0  0  0  0  0  0  0  0  0
  -10.4524    1.1463   17.3136 C   0  0  2  0  0  0  0  0  0  0  0  0
  -10.7252    7.4238    9.6312 O   0  0  0  0  0  0  0  0  0  0  0  0
   -7.7756   -3.3687   16.8393 N   0  0  0  0  0  0  0  0  0  0  0  0
   -8.0035   -2.4080   15.8739 C   0  0  0  0  0  0  0  0  0  0  0  0
   -8.7356   -1.2736   16.1695 N   0  0  0  0  0  0  0  0  0  0  0  0
   -9.2437   -1.0924   17.4117 C   0  0  0  0  0  0  0  0  0  0  0  0
   -9.0174   -2.0442   18.3983 C   0  0  0  0  0  0  0  0  0  0  0  0
   -8.2844   -3.1883   18.1072 C   0  0  0  0  0  0  0  0  0  0  0  0
   -8.0759   -4.1044   19.0498 N   0  0  0  0  0  0  0  0  0  0  0  0
   -9.6194   -1.6191   19.5298 N   0  0  0  0  0  0  0  0  0  0  0  0
  -10.2015   -0.4213   19.2871 C   0  0  0  0  0  0  0  0  0  0  0  0
   -9.9787   -0.0787   17.9796 N   0  0  0  0  0  0  0  0  0  0  0  0
  2  1  1  6  0  0  0
  2  3  1  0  0  0  0
  2  5  1  0  0  0  0
  3  4  1  0  0  0  0
  3 17  1  0  0  0  0
  5  6  1  0  0  0  0
  7  6  1  6  0  0  0
  7  8  1  0  0  0  0
  7  9  1  0  0  0  0
 10  9  1  6  0  0  0
 10 11  1  0  0  0  0
 10 12  1  0  0  0  0
 11 16  1  0  0  0  0
 12 13  1  6  0  0  0
 12 14  1  0  0  0  0
 14 15  1  6  0  0  0
 14 16  1  0  0  0  0
 16 27  1  1  0  0  0
 18 19  2  0  0  0  0
 18 23  1  0  0  0  0
 19 20  1  0  0  0  0
 20 21  2  0  0  0  0
 21 22  1  0  0  0  0
 21 27  1  0  0  0  0
 22 23  2  0  0  0  0
 22 25  1  0  0  0  0
 23 24  1  0  0  0  0
 25 26  2  0  0  0  0
 26 27  1  0  0  0  0
M  END
>  <CHROM.1>
177.25617800,-56.11461196,-178.98545532,-67.61126390,-69.87056540,168.67770950
-17.11724054,-9.37057089,2.30013381,15.50730642,-1.79551104,-1.11590120,2.28386315

>  <Name>
ligand

>  <RI>
0

>  <Rbt.Current_Directory>
/home/itssahil/PROJECTS/Mol_Feturizer/New_Systems/rnas/3GX6

>  <Rbt.Executable>
rbdock ($Id: //depot/dev/client3/rdock/2013.1/src/exe/rbdock.cxx#4 $)

>  <Rbt.Library>
libRbt.so (2013.1, Build901 2013/11/27)

>  <Rbt.Parameter_File>
/export/apps/rDock/src/rDock_2013.1_src/data/scripts/dock_solv.prm

>  <Rbt.Receptor>
prm/blind_docking_60.prm

>  <SCORE>
-19.8766

>  <SCORE.INTER>
-9.87498

>  <SCORE.INTER.CONST>
1

>  <SCORE.INTER.POLAR>
0

>  <SCORE.INTER.ROT>
7

>  <SCORE.INTER.SOLV>
11.7853

>  <SCORE.INTER.VDW>
-18.7784

>  <SCORE.INTER.norm>
-0.36574

>  <SCORE.INTRA>
-10.0191

>  <SCORE.INTRA.DIHEDRAL>
-11.3452

>  <SCORE.INTRA.DIHEDRAL.0>
15.0182

>  <SCORE.INTRA.POLAR>
0

>  <SCORE.INTRA.POLAR.0>
0

>  <SCORE.INTRA.REPUL>
0

>  <SCORE.INTRA.REPUL.0>
0

>  <SCORE.INTRA.SOLV>
-0.903413

>  <SCORE.INTRA.SOLV.lig_0>
-47.9129

>  <SCORE.INTRA.VDW>
-3.89478

>  <SCORE.INTRA.VDW.0>
2.00851

>  <SCORE.INTRA.norm>
-0.371078

>  <SCORE.RESTR>
0.0174483

>  <SCORE.RESTR.CAVITY>
0.0174483

>  <SCORE.RESTR.norm>
0.000646235

>  <SCORE.SYSTEM>
0

>  <SCORE.SYSTEM.CONST>
0

>  <SCORE.SYSTEM.DIHEDRAL>
0

>  <SCORE.SYSTEM.SOLV>
0

>  <SCORE.SYSTEM.norm>
0

>  <SCORE.heavy>
27

>  <SCORE.norm>
-0.736171

>  <RMSD>
18.915

$$$$
ligand
 OpenBabel11021811483D
libRbt.so/2013.1/901 2013/11/27
 27 29  0  0  0  0  0  0  0  0999 V2000
   -7.2181   -5.6380   13.0022 N   0  0  0  0  0  0  0  0  0  0  0  0
   -6.5714   -5.8720   11.7139 C   0  0  2  0  0  0  0  0  0  0  0  0
   -5.3291   -5.0035   11.5343 C   0  0  0  0  0  0  0  0  0  0  0  0
   -4.9972   -4.1817   12.3916 O   0  0  0  0  0  0  0  0  0  0  0  0
   -7.5573   -5.6758   10.5661 C   0  0  0  0  0  0  0  0  0  0  0  0
   -7.8622   -4.2141   10.2770 C   0  0  0  0  0  0  0  0  0  0  0  0
   -8.9074   -3.4237   11.5256 S   0  0  2  0  0  0  0  0  0  0  0  0
  -10.5280   -3.5597   10.7307 C   0  0  0  0  0  0  0  0  0  0  0  0
   -8.5193   -1.6749   11.2431 C   0  0  0  0  0  0  0  0  0  0  0  0
   -9.4958   -0.8087   12.0258 C   0  0  1  0  0  0  0  0  0  0  0  0
   -9.6765   -1.3839   13.2979 O   0  0  0  0  0  0  0  0  0  0  0  0
   -9.0359    0.6088   12.3105 C   0  0  1  0  0  0  0  0  0  0  0  0
   -9.5500    1.5073   11.3529 O   0  0  0  0  0  0  0  0  0  0  0  0
   -9.6388    0.8972   13.6704 C   0  0  1  0  0  0  0  0  0  0  0  0
  -10.7312    1.7659   13.4976 O   0  0  0  0  0  0  0  0  0  0  0  0
  -10.1302   -0.4325   14.2263 C   0  0  2  0  0  0  0  0  0  0  0  0
   -4.6351   -5.1044   10.5225 O   0  0  0  0  0  0  0  0  0  0  0  0
  -10.2476    0.3210   19.4411 N   0  0  0  0  0  0  0  0  0  0  0  0
  -11.1484    0.7689   18.4951 C   0  0  0  0  0  0  0  0  0  0  0  0
  -10.9638    0.4806   17.1560 N   0  0  0  0  0  0  0  0  0  0  0  0
   -9.8918   -0.2427   16.7541 C   0  0  0  0  0  0  0  0  0  0  0  0
   -8.9796   -0.7092   17.6926 C   0  0  0  0  0  0  0  0  0  0  0  0
   -9.1576   -0.4207   19.0401 C   0  0  0  0  0  0  0  0  0  0  0  0
   -8.2785   -0.8595   19.9378 N   0  0  0  0  0  0  0  0  0  0  0  0
   -8.0238   -1.3992   17.0338 N   0  0  0  0  0  0  0  0  0  0  0  0
   -8.3188   -1.3942   15.7126 C   0  0  0  0  0  0  0  0  0  0  0  0
   -9.4735   -0.6825   15.5204 N   0  0  0  0  0  0  0  0  0  0  0  0
  2  1  1  1  0  0  0
  2  3  1  0  0  0  0
  2  5  1  0  0  0  0
  3  4  1  0  0  0  0
  3 17  1  0  0  0  0
  5  6  1  0  0  0  0
  7  6  1  6  0  0  0
  7  8  1  0  0  0  0
  7  9  1  0  0  0  0
 10  9  1  6  0  0  0
 10 11  1  0  0  0  0
 10 12  1  0  0  0  0
 11 16  1  0  0  0  0
 12 13  1  6  0  0  0
 12 14  1  0  0  0  0
 14 15  1  6  0  0  0
 14 16  1  0  0  0  0
 16 27  1  1  0  0  0
 18 19  2  0  0  0  0
 18 23  1  0  0  0  0
 19 20  1  0  0  0  0
 20 21  2  0  0  0  0
 21 22  1  0  0  0  0
 21 27  1  0  0  0  0
 22 23  2  0  0  0  0
 22 25  1  0  0  0  0
 23 24  1  0  0  0  0
 25 26  2  0  0  0  0
 26 27  1  0  0  0  0
M  END
>  <CHROM.1>
-2.72049268,75.38272621,-72.69765911,-97.49745161,169.50050019,41.90876162
-160.59389254,-8.68647015,-1.81846402,13.86416507,-0.98056229,-0.92484779
1.43248387

>  <Name>
ligand

>  <RI>
0

>  <Rbt.Current_Directory>
/home/itssahil/PROJECTS/Mol_Feturizer/New_Systems/rnas/3GX6

>  <Rbt.Executable>
rbdock ($Id: //depot/dev/client3/rdock/2013.1/src/exe/rbdock.cxx#4 $)

>  <Rbt.Library>
libRbt.so (2013.1, Build901 2013/11/27)

>  <Rbt.Parameter_File>
/export/apps/rDock/src/rDock_2013.1_src/data/scripts/dock_solv.prm

>  <Rbt.Receptor>
prm/blind_docking_80.prm

>  <SCORE>
-23.2047

>  <SCORE.INTER>
-15.7968

>  <SCORE.INTER.CONST>
1

>  <SCORE.INTER.POLAR>
0

>  <SCORE.INTER.ROT>
7

>  <SCORE.INTER.SOLV>
9.98271

>  <SCORE.INTER.VDW>
-22.1255

>  <SCORE.INTER.norm>
-0.585068

>  <SCORE.INTRA>
-7.4079

>  <SCORE.INTRA.DIHEDRAL>
-7.21169

>  <SCORE.INTRA.DIHEDRAL.0>
15.0182

>  <SCORE.INTRA.POLAR>
0

>  <SCORE.INTRA.POLAR.0>
0

>  <SCORE.INTRA.REPUL>
0

>  <SCORE.INTRA.REPUL.0>
0

>  <SCORE.INTRA.SOLV>
0.219258

>  <SCORE.INTRA.SOLV.lig_0>
-47.9129

>  <SCORE.INTRA.VDW>
-3.91168

>  <SCORE.INTRA.VDW.0>
2.00851

>  <SCORE.INTRA.norm>
-0.274367

>  <SCORE.RESTR>
0

>  <SCORE.RESTR.CAVITY>
0

>  <SCORE.RESTR.norm>
0

>  <SCORE.SYSTEM>
0

>  <SCORE.SYSTEM.CONST>
0

>  <SCORE.SYSTEM.DIHEDRAL>
0

>  <SCORE.SYSTEM.SOLV>
0

>  <SCORE.SYSTEM.norm>
0

>  <SCORE.heavy>
27

>  <SCORE.norm>
-0.859435

>  <RMSD>
18.992

$$$$
ligand
 OpenBabel11021811483D
libRbt.so/2013.1/901 2013/11/27
 27 29  0  0  0  0  0  0  0  0999 V2000
   -7.0428    5.0870   17.3354 N   0  0  0  0  0  0  0  0  0  0  0  0
   -6.7149    3.9124   18.1390 C   0  0  2  0  0  0  0  0  0  0  0  0
   -5.3744    4.0669   18.8524 C   0  0  0  0  0  0  0  0  0  0  0  0
   -5.3087    4.5393   19.9894 O   0  0  0  0  0  0  0  0  0  0  0  0
   -6.7500    2.6450   17.2903 C   0  0  0  0  0  0  0  0  0  0  0  0
   -6.6837    1.3673   18.1125 C   0  0  0  0  0  0  0  0  0  0  0  0
   -6.7075   -0.1450   17.1182 S   0  0  2  0  0  0  0  0  0  0  0  0
   -8.4521   -0.1943   16.6378 C   0  0  0  0  0  0  0  0  0  0  0  0
   -6.6608   -1.4113   18.4155 C   0  0  0  0  0  0  0  0  0  0  0  0
   -6.3281   -2.7595   17.7926 C   0  0  1  0  0  0  0  0  0  0  0  0
   -7.3126   -3.0585   16.8319 O   0  0  0  0  0  0  0  0  0  0  0  0
   -5.0184   -2.8267   17.0296 C   0  0  1  0  0  0  0  0  0  0  0  0
   -3.9875   -3.3415   17.8425 O   0  0  0  0  0  0  0  0  0  0  0  0
   -5.3269   -3.7950   15.9057 C   0  0  1  0  0  0  0  0  0  0  0  0
   -4.7037   -5.0227   16.1925 O   0  0  0  0  0  0  0  0  0  0  0  0
   -6.8377   -3.9841   15.8882 C   0  0  2  0  0  0  0  0  0  0  0  0
   -4.3281    3.7255   18.3006 O   0  0  0  0  0  0  0  0  0  0  0  0
   -6.0973   -4.1637   10.6733 N   0  0  0  0  0  0  0  0  0  0  0  0
   -5.2964   -4.6925   11.6662 C   0  0  0  0  0  0  0  0  0  0  0  0
   -5.6404   -4.5510   12.9973 N   0  0  0  0  0  0  0  0  0  0  0  0
   -6.7677   -3.8861   13.3450 C   0  0  0  0  0  0  0  0  0  0  0  0
   -7.5904   -3.3547   12.3594 C   0  0  0  0  0  0  0  0  0  0  0  0
   -7.2491   -3.4910   11.0193 C   0  0  0  0  0  0  0  0  0  0  0  0
   -8.0323   -2.9736   10.0758 N   0  0  0  0  0  0  0  0  0  0  0  0
   -8.6367   -2.7584   12.9703 N   0  0  0  0  0  0  0  0  0  0  0  0
   -8.5038   -2.9150   14.3084 C   0  0  0  0  0  0  0  0  0  0  0  0
   -7.3515   -3.6120   14.5593 N   0  0  0  0  0  0  0  0  0  0  0  0
  2  1  1  6  0  0  0
  2  3  1  0  0  0  0
  2  5  1  0  0  0  0
  3  4  1  0  0  0  0
  3 17  1  0  0  0  0
  5  6  1  0  0  0  0
  7  6  1  1  0  0  0
  7  8  1  0  0  0  0
  7  9  1  0  0  0  0
 10  9  1  6  0  0  0
 10 11  1  0  0  0  0
 10 12  1  0  0  0  0
 11 16  1  0  0  0  0
 12 13  1  1  0  0  0
 12 14  1  0  0  0  0
 14 15  1  1  0  0  0
 14 16  1  0  0  0  0
 16 27  1  6  0  0  0
 18 19  2  0  0  0  0
 18 23  1  0  0  0  0
 19 20  1  0  0  0  0
 20 21  2  0  0  0  0
 21 22  1  0  0  0  0
 21 27  1  0  0  0  0
 22 23  2  0  0  0  0
 22 25  1  0  0  0  0
 23 24  1  0  0  0  0
 25 26  2  0  0  0  0
 26 27  1  0  0  0  0
M  END
>  <CHROM.1>
91.33524411,-168.86263047,-179.41660210,-74.79224257,-166.07442403,-58.93399344
152.97705598,-6.44781454,-1.27516713,15.79086093,1.38881799,-1.14406879,0.49859221

>  <Name>
ligand

>  <RI>
0

>  <Rbt.Current_Directory>
/home/itssahil/PROJECTS/Mol_Feturizer/New_Systems/rnas/3GX6

>  <Rbt.Executable>
rbdock ($Id: //depot/dev/client3/rdock/2013.1/src/exe/rbdock.cxx#4 $)

>  <Rbt.Library>
libRbt.so (2013.1, Build901 2013/11/27)

>  <Rbt.Parameter_File>
/export/apps/rDock/src/rDock_2013.1_src/data/scripts/dock_solv.prm

>  <Rbt.Receptor>
prm/blind_docking_40.prm

>  <SCORE>
-20.3159

>  <SCORE.INTER>
-10.4969

>  <SCORE.INTER.CONST>
1

>  <SCORE.INTER.POLAR>
0

>  <SCORE.INTER.ROT>
7

>  <SCORE.INTER.SOLV>
15.398

>  <SCORE.INTER.VDW>
-20.3973

>  <SCORE.INTER.norm>
-0.388773

>  <SCORE.INTRA>
-9.81901

>  <SCORE.INTRA.DIHEDRAL>
-9.91631

>  <SCORE.INTRA.DIHEDRAL.0>
15.0182

>  <SCORE.INTRA.POLAR>
0

>  <SCORE.INTRA.POLAR.0>
0

>  <SCORE.INTRA.REPUL>
0

>  <SCORE.INTRA.REPUL.0>
0

>  <SCORE.INTRA.SOLV>
-1.55669

>  <SCORE.INTRA.SOLV.lig_0>
-47.9129

>  <SCORE.INTRA.VDW>
-4.08251

>  <SCORE.INTRA.VDW.0>
2.00851

>  <SCORE.INTRA.norm>
-0.363667

>  <SCORE.RESTR>
0

>  <SCORE.RESTR.CAVITY>
0

>  <SCORE.RESTR.norm>
0

>  <SCORE.SYSTEM>
0

>  <SCORE.SYSTEM.CONST>
0

>  <SCORE.SYSTEM.DIHEDRAL>
0

>  <SCORE.SYSTEM.SOLV>
0

>  <SCORE.SYSTEM.norm>
0

>  <SCORE.heavy>
27

>  <SCORE.norm>
-0.75244

>  <RMSD>
18.994

$$$$
ligand
 OpenBabel11021811483D
libRbt.so/2013.1/901 2013/11/27
 27 29  0  0  0  0  0  0  0  0999 V2000
   -7.2780   -3.0834   16.0255 N   0  0  0  0  0  0  0  0  0  0  0  0
   -6.2763   -2.6919   17.0136 C   0  0  2  0  0  0  0  0  0  0  0  0
   -4.9003   -3.2668   16.6878 C   0  0  0  0  0  0  0  0  0  0  0  0
   -4.7821   -4.3692   16.1483 O   0  0  0  0  0  0  0  0  0  0  0  0
   -6.7205   -3.0772   18.4214 C   0  0  0  0  0  0  0  0  0  0  0  0
   -7.9400   -2.3052   18.9008 C   0  0  0  0  0  0  0  0  0  0  0  0
   -7.5768   -0.6073   19.4124 S   0  0  2  0  0  0  0  0  0  0  0  0
   -9.2394   -0.0292   19.8347 C   0  0  0  0  0  0  0  0  0  0  0  0
   -7.3217    0.1903   17.8040 C   0  0  0  0  0  0  0  0  0  0  0  0
   -6.3975    1.3873   17.9755 C   0  0  1  0  0  0  0  0  0  0  0  0
   -6.1383    1.9323   16.7037 O   0  0  0  0  0  0  0  0  0  0  0  0
   -6.9615    2.5445   18.7782 C   0  0  1  0  0  0  0  0  0  0  0  0
   -6.5458    2.4743   20.1240 O   0  0  0  0  0  0  0  0  0  0  0  0
   -6.3483    3.7569   18.1074 C   0  0  1  0  0  0  0  0  0  0  0  0
   -5.3337    4.2609   18.9406 O   0  0  0  0  0  0  0  0  0  0  0  0
   -5.7380    3.2754   16.7981 C   0  0  2  0  0  0  0  0  0  0  0  0
   -3.8778   -2.6391   16.9639 O   0  0  0  0  0  0  0  0  0  0  0  0
   -5.6107    4.3599   11.6422 N   0  0  0  0  0  0  0  0  0  0  0  0
   -4.7864    3.5117   12.3550 C   0  0  0  0  0  0  0  0  0  0  0  0
   -4.9581    3.3434   13.7160 N   0  0  0  0  0  0  0  0  0  0  0  0
   -5.9366    4.0137   14.3695 C   0  0  0  0  0  0  0  0  0  0  0  0
   -6.7811    4.8649   13.6675 C   0  0  0  0  0  0  0  0  0  0  0  0
   -6.6124    5.0408   12.2995 C   0  0  0  0  0  0  0  0  0  0  0  0
   -7.4153    5.8634   11.6289 N   0  0  0  0  0  0  0  0  0  0  0  0
   -7.6603    5.3932   14.5458 N   0  0  0  0  0  0  0  0  0  0  0  0
   -7.4035    4.8856   15.7743 C   0  0  0  0  0  0  0  0  0  0  0  0
   -6.3387    4.0284   15.6842 N   0  0  0  0  0  0  0  0  0  0  0  0
  2  1  1  6  0  0  0
  2  3  1  0  0  0  0
  2  5  1  0  0  0  0
  3  4  1  0  0  0  0
  3 17  1  0  0  0  0
  5  6  1  0  0  0  0
  7  6  1  6  0  0  0
  7  8  1  0  0  0  0
  7  9  1  0  0  0  0
 10  9  1  6  0  0  0
 10 11  1  0  0  0  0
 10 12  1  0  0  0  0
 11 16  1  0  0  0  0
 12 13  1  1  0  0  0
 12 14  1  0  0  0  0
 14 15  1  1  0  0  0
 14 16  1  0  0  0  0
 16 27  1  6  0  0  0
 18 19  2  0  0  0  0
 18 23  1  0  0  0  0
 19 20  1  0  0  0  0
 20 21  2  0  0  0  0
 21 22  1  0  0  0  0
 21 27  1  0  0  0  0
 22 23  2  0  0  0  0
 22 25  1  0  0  0  0
 23 24  1  0  0  0  0
 25 26  2  0  0  0  0
 26 27  1  0  0  0  0
M  END
>  <CHROM.1>
-33.49551504,-66.49761551,-76.60005284,177.88877583,-153.42335352,175.89024300
-75.98262679,-6.44853272,1.40663477,16.54574607,-1.64485027,1.25101839,-0.49765318

>  <Name>
ligand

>  <RI>
0

>  <Rbt.Current_Directory>
/home/itssahil/PROJECTS/Mol_Feturizer/New_Systems/rnas/3GX6

>  <Rbt.Executable>
rbdock ($Id: //depot/dev/client3/rdock/2013.1/src/exe/rbdock.cxx#4 $)

>  <Rbt.Library>
libRbt.so (2013.1, Build901 2013/11/27)

>  <Rbt.Parameter_File>
/export/apps/rDock/src/rDock_2013.1_src/data/scripts/dock_solv.prm

>  <Rbt.Receptor>
prm/blind_docking_60.prm

>  <SCORE>
-19.2082

>  <SCORE.INTER>
-10.9558

>  <SCORE.INTER.CONST>
1

>  <SCORE.INTER.POLAR>
0

>  <SCORE.INTER.ROT>
7

>  <SCORE.INTER.SOLV>
9.86613

>  <SCORE.INTER.VDW>
-18.8592

>  <SCORE.INTER.norm>
-0.405769

>  <SCORE.INTRA>
-8.25242

>  <SCORE.INTRA.DIHEDRAL>
-7.77483

>  <SCORE.INTRA.DIHEDRAL.0>
15.0182

>  <SCORE.INTRA.POLAR>
0

>  <SCORE.INTRA.POLAR.0>
0

>  <SCORE.INTRA.REPUL>
0

>  <SCORE.INTRA.REPUL.0>
0

>  <SCORE.INTRA.SOLV>
0.098318

>  <SCORE.INTRA.SOLV.lig_0>
-47.9129

>  <SCORE.INTRA.VDW>
-4.41416

>  <SCORE.INTRA.VDW.0>
2.00851

>  <SCORE.INTRA.norm>
-0.305645

>  <SCORE.RESTR>
0

>  <SCORE.RESTR.CAVITY>
0

>  <SCORE.RESTR.norm>
0

>  <SCORE.SYSTEM>
0

>  <SCORE.SYSTEM.CONST>
0

>  <SCORE.SYSTEM.DIHEDRAL>
0

>  <SCORE.SYSTEM.SOLV>
0

>  <SCORE.SYSTEM.norm>
0

>  <SCORE.heavy>
27

>  <SCORE.norm>
-0.711414

>  <RMSD>
19.011

$$$$
ligand
 OpenBabel11021811483D
libRbt.so/2013.1/901 2013/11/27
 27 29  0  0  0  0  0  0  0  0999 V2000
  -10.5387   -8.3160   14.9876 N   0  0  0  0  0  0  0  0  0  0  0  0
   -9.6247   -8.6831   16.0658 C   0  0  2  0  0  0  0  0  0  0  0  0
  -10.3689   -9.2272   17.2824 C   0  0  0  0  0  0  0  0  0  0  0  0
  -11.5912   -9.3883   17.2618 O   0  0  0  0  0  0  0  0  0  0  0  0
   -8.7275   -7.5080   16.4429 C   0  0  0  0  0  0  0  0  0  0  0  0
   -7.5632   -7.3074   15.4852 C   0  0  0  0  0  0  0  0  0  0  0  0
   -8.0634   -6.8006   13.8211 S   0  0  2  0  0  0  0  0  0  0  0  0
   -6.4728   -6.8828   12.9611 C   0  0  0  0  0  0  0  0  0  0  0  0
   -8.2524   -5.0114   14.0478 C   0  0  0  0  0  0  0  0  0  0  0  0
   -8.6540   -4.3750   12.7249 C   0  0  1  0  0  0  0  0  0  0  0  0
   -9.1969   -3.1039   12.9919 O   0  0  0  0  0  0  0  0  0  0  0  0
   -7.5209   -4.1086   11.7518 C   0  0  1  0  0  0  0  0  0  0  0  0
   -7.4068   -5.1544   10.8128 O   0  0  0  0  0  0  0  0  0  0  0  0
   -7.9575   -2.8335   11.0594 C   0  0  1  0  0  0  0  0  0  0  0  0
   -8.3946   -3.1585    9.7628 O   0  0  0  0  0  0  0  0  0  0  0  0
   -9.1230   -2.2720   11.8625 C   0  0  2  0  0  0  0  0  0  0  0  0
   -9.7597   -9.5118   18.3137 O   0  0  0  0  0  0  0  0  0  0  0  0
   -8.6250    1.0505   15.9231 N   0  0  0  0  0  0  0  0  0  0  0  0
   -8.9959   -0.2794   15.9510 C   0  0  0  0  0  0  0  0  0  0  0  0
   -9.0797   -1.0110   14.7814 N   0  0  0  0  0  0  0  0  0  0  0  0
   -8.8028   -0.4294   13.5902 C   0  0  0  0  0  0  0  0  0  0  0  0
   -8.4196    0.9053   13.5433 C   0  0  0  0  0  0  0  0  0  0  0  0
   -8.3359    1.6474   14.7152 C   0  0  0  0  0  0  0  0  0  0  0  0
   -7.9781    2.9284   14.6691 N   0  0  0  0  0  0  0  0  0  0  0  0
   -8.1978    1.2275   12.2508 N   0  0  0  0  0  0  0  0  0  0  0  0
   -8.4135    0.1303   11.4877 C   0  0  0  0  0  0  0  0  0  0  0  0
   -8.7888   -0.9065   12.3008 N   0  0  0  0  0  0  0  0  0  0  0  0
  2  1  1  6  0  0  0
  2  3  1  0  0  0  0
  2  5  1  0  0  0  0
  3  4  1  0  0  0  0
  3 17  1  0  0  0  0
  5  6  1  0  0  0  0
  7  6  1  1  0  0  0
  7  8  1  0  0  0  0
  7  9  1  0  0  0  0
 10  9  1  1  0  0  0
 10 11  1  0  0  0  0
 10 12  1  0  0  0  0
 11 16  1  0  0  0  0
 12 13  1  6  0  0  0
 12 14  1  0  0  0  0
 14 15  1  6  0  0  0
 14 16  1  0  0  0  0
 16 27  1  1  0  0  0
 18 19  2  0  0  0  0
 18 23  1  0  0  0  0
 19 20  1  0  0  0  0
 20 21  2  0  0  0  0
 21 22  1  0  0  0  0
 21 27  1  0  0  0  0
 22 23  2  0  0  0  0
 22 25  1  0  0  0  0
 23 24  1  0  0  0  0
 25 26  2  0  0  0  0
 26 27  1  0  0  0  0
M  END
>  <CHROM.1>
4.01753252,-79.22273872,66.54463175,-172.93673137,178.91759643,161.75117005
-12.05876087,-8.67325017,-3.92486392,13.94689605,1.96446326,-1.26969494,-3.07405100

>  <Name>
ligand

>  <RI>
0

>  <Rbt.Current_Directory>
/home/itssahil/PROJECTS/Mol_Feturizer/New_Systems/rnas/3GX6

>  <Rbt.Executable>
rbdock ($Id: //depot/dev/client3/rdock/2013.1/src/exe/rbdock.cxx#4 $)

>  <Rbt.Library>
libRbt.so (2013.1, Build901 2013/11/27)

>  <Rbt.Parameter_File>
/export/apps/rDock/src/rDock_2013.1_src/data/scripts/dock_solv.prm

>  <Rbt.Receptor>
prm/blind_docking_100.prm

>  <SCORE>
-19.2999

>  <SCORE.INTER>
-11.5793

>  <SCORE.INTER.CONST>
1

>  <SCORE.INTER.POLAR>
0

>  <SCORE.INTER.ROT>
7

>  <SCORE.INTER.SOLV>
12.2823

>  <SCORE.INTER.VDW>
-20.0803

>  <SCORE.INTER.norm>
-0.428862

>  <SCORE.INTRA>
-7.72059

>  <SCORE.INTRA.DIHEDRAL>
-8.40131

>  <SCORE.INTRA.DIHEDRAL.0>
15.0182

>  <SCORE.INTRA.POLAR>
0

>  <SCORE.INTRA.POLAR.0>
0

>  <SCORE.INTRA.REPUL>
0

>  <SCORE.INTRA.REPUL.0>
0

>  <SCORE.INTRA.SOLV>
0.609831

>  <SCORE.INTRA.SOLV.lig_0>
-47.9129

>  <SCORE.INTRA.VDW>
-3.82485

>  <SCORE.INTRA.VDW.0>
2.00851

>  <SCORE.INTRA.norm>
-0.285948

>  <SCORE.RESTR>
0

>  <SCORE.RESTR.CAVITY>
0

>  <SCORE.RESTR.norm>
0

>  <SCORE.SYSTEM>
0

>  <SCORE.SYSTEM.CONST>
0

>  <SCORE.SYSTEM.DIHEDRAL>
0

>  <SCORE.SYSTEM.SOLV>
0

>  <SCORE.SYSTEM.norm>
0

>  <SCORE.heavy>
27

>  <SCORE.norm>
-0.71481

>  <RMSD>
19.019

$$$$
ligand
 OpenBabel11021811483D
libRbt.so/2013.1/901 2013/11/27
 27 29  0  0  0  0  0  0  0  0999 V2000
  -12.2228    5.1474    9.7902 N   0  0  0  0  0  0  0  0  0  0  0  0
  -12.2678    4.3803   11.0322 C   0  0  2  0  0  0  0  0  0  0  0  0
  -13.1834    5.0275   12.0681 C   0  0  0  0  0  0  0  0  0  0  0  0
  -12.7454    5.8388   12.8868 O   0  0  0  0  0  0  0  0  0  0  0  0
  -10.8642    4.1633   11.5894 C   0  0  0  0  0  0  0  0  0  0  0  0
  -10.8325    3.2461   12.8021 C   0  0  0  0  0  0  0  0  0  0  0  0
   -9.1639    2.7648   13.3125 S   0  0  2  0  0  0  0  0  0  0  0  0
   -8.8343    1.4280   12.1374 C   0  0  0  0  0  0  0  0  0  0  0  0
   -9.5221    1.8288   14.8237 C   0  0  0  0  0  0  0  0  0  0  0  0
   -8.2466    1.1618   15.3182 C   0  0  1  0  0  0  0  0  0  0  0  0
   -7.3233    2.1687   15.6576 O   0  0  0  0  0  0  0  0  0  0  0  0
   -8.3851    0.3307   16.5800 C   0  0  1  0  0  0  0  0  0  0  0  0
   -8.5613   -1.0332   16.2682 O   0  0  0  0  0  0  0  0  0  0  0  0
   -7.0538    0.5377   17.2734 C   0  0  1  0  0  0  0  0  0  0  0  0
   -6.2883   -0.6327   17.1254 O   0  0  0  0  0  0  0  0  0  0  0  0
   -6.3603    1.6917   16.5621 C   0  0  2  0  0  0  0  0  0  0  0  0
  -14.3811    4.7457   12.1086 O   0  0  0  0  0  0  0  0  0  0  0  0
   -8.2846    5.5703   19.5668 N   0  0  0  0  0  0  0  0  0  0  0  0
   -8.9733    4.7360   18.7085 C   0  0  0  0  0  0  0  0  0  0  0  0
   -8.3066    3.7636   17.9872 N   0  0  0  0  0  0  0  0  0  0  0  0
   -6.9657    3.6202   18.1103 C   0  0  0  0  0  0  0  0  0  0  0  0
   -6.2572    4.4449   18.9754 C   0  0  0  0  0  0  0  0  0  0  0  0
   -6.9208    5.4263   19.7017 C   0  0  0  0  0  0  0  0  0  0  0  0
   -6.2407    6.2224   20.5231 N   0  0  0  0  0  0  0  0  0  0  0  0
   -4.9560    4.0892   18.9142 N   0  0  0  0  0  0  0  0  0  0  0  0
   -4.8297    3.0550   18.0498 C   0  0  0  0  0  0  0  0  0  0  0  0
   -6.0651    2.7503   17.5422 N   0  0  0  0  0  0  0  0  0  0  0  0
  2  1  1  6  0  0  0
  2  3  1  0  0  0  0
  2  5  1  0  0  0  0
  3  4  1  0  0  0  0
  3 17  1  0  0  0  0
  5  6  1  0  0  0  0
  7  6  1  6  0  0  0
  7  8  1  0  0  0  0
  7  9  1  0  0  0  0
 10  9  1  1  0  0  0
 10 11  1  0  0  0  0
 10 12  1  0  0  0  0
 11 16  1  0  0  0  0
 12 13  1  6  0  0  0
 12 14  1  0  0  0  0
 14 15  1  6  0  0  0
 14 16  1  0  0  0  0
 16 27  1  1  0  0  0
 18 19  2  0  0  0  0
 18 23  1  0  0  0  0
 19 20  1  0  0  0  0
 20 21  2  0  0  0  0
 21 22  1  0  0  0  0
 21 27  1  0  0  0  0
 22 23  2  0  0  0  0
 22 25  1  0  0  0  0
 23 24  1  0  0  0  0
 25 26  2  0  0  0  0
 26 27  1  0  0  0  0
M  END
>  <CHROM.1>
-91.11583269,-173.88906822,170.68492349,-80.93740947,172.20119896,63.32214904
38.87036294,-8.74960571,3.13639054,15.55745725,2.79605101,0.83230466,-2.53927474

>  <Name>
ligand

>  <RI>
0

>  <Rbt.Current_Directory>
/home/itssahil/PROJECTS/Mol_Feturizer/New_Systems/rnas/3GX6

>  <Rbt.Executable>
rbdock ($Id: //depot/dev/client3/rdock/2013.1/src/exe/rbdock.cxx#4 $)

>  <Rbt.Library>
libRbt.so (2013.1, Build901 2013/11/27)

>  <Rbt.Parameter_File>
/export/apps/rDock/src/rDock_2013.1_src/data/scripts/dock_solv.prm

>  <Rbt.Receptor>
prm/blind_docking_60.prm

>  <SCORE>
-18.8269

>  <SCORE.INTER>
-8.18986

>  <SCORE.INTER.CONST>
1

>  <SCORE.INTER.POLAR>
0

>  <SCORE.INTER.ROT>
7

>  <SCORE.INTER.SOLV>
12.1086

>  <SCORE.INTER.VDW>
-17.7628

>  <SCORE.INTER.norm>
-0.303328

>  <SCORE.INTRA>
-10.637

>  <SCORE.INTRA.DIHEDRAL>
-10.8358

>  <SCORE.INTRA.DIHEDRAL.0>
15.0182

>  <SCORE.INTRA.POLAR>
0

>  <SCORE.INTRA.POLAR.0>
0

>  <SCORE.INTRA.REPUL>
0

>  <SCORE.INTRA.REPUL.0>
0

>  <SCORE.INTRA.SOLV>
-1.81524

>  <SCORE.INTRA.SOLV.lig_0>
-47.9129

>  <SCORE.INTRA.VDW>
-4.3115

>  <SCORE.INTRA.VDW.0>
2.00851

>  <SCORE.INTRA.norm>
-0.393964

>  <SCORE.RESTR>
0

>  <SCORE.RESTR.CAVITY>
0

>  <SCORE.RESTR.norm>
0

>  <SCORE.SYSTEM>
0

>  <SCORE.SYSTEM.CONST>
0

>  <SCORE.SYSTEM.DIHEDRAL>
0

>  <SCORE.SYSTEM.SOLV>
0

>  <SCORE.SYSTEM.norm>
0

>  <SCORE.heavy>
27

>  <SCORE.norm>
-0.697293

>  <RMSD>
19.022

$$$$
ligand
 OpenBabel11021811483D
libRbt.so/2013.1/901 2013/11/27
 27 29  0  0  0  0  0  0  0  0999 V2000
   -9.3073   -1.3305   17.7865 N   0  0  0  0  0  0  0  0  0  0  0  0
   -8.3273   -2.0945   18.5539 C   0  0  2  0  0  0  0  0  0  0  0  0
   -7.0418   -1.3039   18.7827 C   0  0  0  0  0  0  0  0  0  0  0  0
   -6.2327   -1.6409   19.6500 O   0  0  0  0  0  0  0  0  0  0  0  0
   -8.0427   -3.4380   17.8891 C   0  0  0  0  0  0  0  0  0  0  0  0
   -7.4109   -3.3068   16.5119 C   0  0  0  0  0  0  0  0  0  0  0  0
   -6.5913   -4.8144   15.9361 S   0  0  2  0  0  0  0  0  0  0  0  0
   -5.1159   -4.8067   16.9847 C   0  0  0  0  0  0  0  0  0  0  0  0
   -5.9056   -4.2515   14.3545 C   0  0  0  0  0  0  0  0  0  0  0  0
   -7.0183   -4.1819   13.3185 C   0  0  1  0  0  0  0  0  0  0  0  0
   -7.8052   -3.0466   13.5896 O   0  0  0  0  0  0  0  0  0  0  0  0
   -6.5687   -3.9994   11.8810 C   0  0  1  0  0  0  0  0  0  0  0  0
   -6.5012   -5.2394   11.2128 O   0  0  0  0  0  0  0  0  0  0  0  0
   -7.6696   -3.1463   11.2841 C   0  0  1  0  0  0  0  0  0  0  0  0
   -8.4655   -3.9608   10.4588 O   0  0  0  0  0  0  0  0  0  0  0  0
   -8.5064   -2.6291   12.4463 C   0  0  2  0  0  0  0  0  0  0  0  0
   -6.7905   -0.3071   18.1053 O   0  0  0  0  0  0  0  0  0  0  0  0
   -8.3761    1.8459   15.2271 N   0  0  0  0  0  0  0  0  0  0  0  0
   -8.3368    0.5485   15.6985 C   0  0  0  0  0  0  0  0  0  0  0  0
   -8.3833   -0.5198   14.8228 N   0  0  0  0  0  0  0  0  0  0  0  0
   -8.4729   -0.3063   13.4885 C   0  0  0  0  0  0  0  0  0  0  0  0
   -8.5049    0.9922   12.9952 C   0  0  0  0  0  0  0  0  0  0  0  0
   -8.4612    2.0708   13.8702 C   0  0  0  0  0  0  0  0  0  0  0  0
   -8.5016    3.3145   13.3981 N   0  0  0  0  0  0  0  0  0  0  0  0
   -8.5870    0.9221   11.6492 N   0  0  0  0  0  0  0  0  0  0  0  0
   -8.5899   -0.3811   11.2826 C   0  0  0  0  0  0  0  0  0  0  0  0
   -8.5192   -1.1571   12.4094 N   0  0  0  0  0  0  0  0  0  0  0  0
  2  1  1  6  0  0  0
  2  3  1  0  0  0  0
  2  5  1  0  0  0  0
  3  4  1  0  0  0  0
  3 17  1  0  0  0  0
  5  6  1  0  0  0  0
  7  6  1  1  0  0  0
  7  8  1  0  0  0  0
  7  9  1  0  0  0  0
 10  9  1  1  0  0  0
 10 11  1  0  0  0  0
 10 12  1  0  0  0  0
 11 16  1  0  0  0  0
 12 13  1  6  0  0  0
 12 14  1  0  0  0  0
 14 15  1  6  0  0  0
 14 16  1  0  0  0  0
 16 27  1  6  0  0  0
 18 19  2  0  0  0  0
 18 23  1  0  0  0  0
 19 20  1  0  0  0  0
 20 21  2  0  0  0  0
 21 22  1  0  0  0  0
 21 27  1  0  0  0  0
 22 23  2  0  0  0  0
 22 25  1  0  0  0  0
 23 24  1  0  0  0  0
 25 26  2  0  0  0  0
 26 27  1  0  0  0  0
M  END
>  <CHROM.1>
163.10368468,63.43773452,161.48703851,-73.27023427,-76.53469626,74.90452919
-28.84235199,-7.61746700,-1.93252125,14.66796351,1.03677230,-1.25118456,1.18594365

>  <Name>
ligand

>  <RI>
0

>  <Rbt.Current_Directory>
/home/itssahil/PROJECTS/Mol_Feturizer/New_Systems/rnas/3GX6

>  <Rbt.Executable>
rbdock ($Id: //depot/dev/client3/rdock/2013.1/src/exe/rbdock.cxx#4 $)

>  <Rbt.Library>
libRbt.so (2013.1, Build901 2013/11/27)

>  <Rbt.Parameter_File>
/export/apps/rDock/src/rDock_2013.1_src/data/scripts/dock_solv.prm

>  <Rbt.Receptor>
prm/blind_docking_80.prm

>  <SCORE>
-18.1023

>  <SCORE.INTER>
-8.30017

>  <SCORE.INTER.CONST>
1

>  <SCORE.INTER.POLAR>
0

>  <SCORE.INTER.ROT>
7

>  <SCORE.INTER.SOLV>
10.4914

>  <SCORE.INTER.VDW>
-17.2972

>  <SCORE.INTER.norm>
-0.307414

>  <SCORE.INTRA>
-9.80213

>  <SCORE.INTRA.DIHEDRAL>
-9.56008

>  <SCORE.INTRA.DIHEDRAL.0>
15.0182

>  <SCORE.INTRA.POLAR>
0

>  <SCORE.INTRA.POLAR.0>
0

>  <SCORE.INTRA.REPUL>
0

>  <SCORE.INTRA.REPUL.0>
0

>  <SCORE.INTRA.SOLV>
-0.0329016

>  <SCORE.INTRA.SOLV.lig_0>
-47.9129

>  <SCORE.INTRA.VDW>
-5.00563

>  <SCORE.INTRA.VDW.0>
2.00851

>  <SCORE.INTRA.norm>
-0.363042

>  <SCORE.RESTR>
0

>  <SCORE.RESTR.CAVITY>
0

>  <SCORE.RESTR.norm>
0

>  <SCORE.SYSTEM>
0

>  <SCORE.SYSTEM.CONST>
0

>  <SCORE.SYSTEM.DIHEDRAL>
0

>  <SCORE.SYSTEM.SOLV>
0

>  <SCORE.SYSTEM.norm>
0

>  <SCORE.heavy>
27

>  <SCORE.norm>
-0.670455

>  <RMSD>
19.028

$$$$
ligand
 OpenBabel11021811483D
libRbt.so/2013.1/901 2013/11/27
 27 29  0  0  0  0  0  0  0  0999 V2000
  -10.4938    6.0614   11.4568 N   0  0  0  0  0  0  0  0  0  0  0  0
  -10.7243    5.6574   12.8412 C   0  0  2  0  0  0  0  0  0  0  0  0
  -12.1663    5.2132   13.0720 C   0  0  0  0  0  0  0  0  0  0  0  0
  -12.4442    4.0277   13.2664 O   0  0  0  0  0  0  0  0  0  0  0  0
  -10.3239    6.7688   13.8067 C   0  0  0  0  0  0  0  0  0  0  0  0
  -10.4376    6.3665   15.2690 C   0  0  0  0  0  0  0  0  0  0  0  0
   -9.5963    4.8145   15.6685 S   0  0  2  0  0  0  0  0  0  0  0  0
   -9.4586    4.9694   17.4668 C   0  0  0  0  0  0  0  0  0  0  0  0
   -7.9017    5.1971   15.1486 C   0  0  0  0  0  0  0  0  0  0  0  0
   -7.0111    3.9895   15.4032 C   0  0  1  0  0  0  0  0  0  0  0  0
   -6.4260    4.1312   16.6757 O   0  0  0  0  0  0  0  0  0  0  0  0
   -7.7195    2.6489   15.4567 C   0  0  1  0  0  0  0  0  0  0  0  0
   -7.6544    1.9944   14.2093 O   0  0  0  0  0  0  0  0  0  0  0  0
   -6.9198    1.8806   16.4892 C   0  0  1  0  0  0  0  0  0  0  0  0
   -6.1287    0.9288   15.8212 O   0  0  0  0  0  0  0  0  0  0  0  0
   -6.0186    2.8889   17.1892 C   0  0  2  0  0  0  0  0  0  0  0  0
  -13.0837    6.0341   13.0630 O   0  0  0  0  0  0  0  0  0  0  0  0
   -5.3842    5.2717   21.8470 N   0  0  0  0  0  0  0  0  0  0  0  0
   -4.9142    5.6749   20.6127 C   0  0  0  0  0  0  0  0  0  0  0  0
   -5.1720    4.9232   19.4820 N   0  0  0  0  0  0  0  0  0  0  0  0
   -5.8867    3.7764   19.5719 C   0  0  0  0  0  0  0  0  0  0  0  0
   -6.3750    3.3593   20.8040 C   0  0  0  0  0  0  0  0  0  0  0  0
   -6.1173    4.1089   21.9453 C   0  0  0  0  0  0  0  0  0  0  0  0
   -6.5770    3.7042   23.1268 N   0  0  0  0  0  0  0  0  0  0  0  0
   -7.0505    2.2057   20.6129 N   0  0  0  0  0  0  0  0  0  0  0  0
   -7.0152    1.8962   19.2955 C   0  0  0  0  0  0  0  0  0  0  0  0
   -6.2985    2.8587   18.6346 N   0  0  0  0  0  0  0  0  0  0  0  0
  2  1  1  6  0  0  0
  2  3  1  0  0  0  0
  2  5  1  0  0  0  0
  3  4  1  0  0  0  0
  3 17  1  0  0  0  0
  5  6  1  0  0  0  0
  7  6  1  6  0  0  0
  7  8  1  0  0  0  0
  7  9  1  0  0  0  0
 10  9  1  1  0  0  0
 10 11  1  0  0  0  0
 10 12  1  0  0  0  0
 11 16  1  0  0  0  0
 12 13  1  6  0  0  0
 12 14  1  0  0  0  0
 14 15  1  6  0  0  0
 14 16  1  0  0  0  0
 16 27  1  1  0  0  0
 18 19  2  0  0  0  0
 18 23  1  0  0  0  0
 19 20  1  0  0  0  0
 20 21  2  0  0  0  0
 21 22  1  0  0  0  0
 21 27  1  0  0  0  0
 22 23  2  0  0  0  0
 22 25  1  0  0  0  0
 23 24  1  0  0  0  0
 25 26  2  0  0  0  0
 26 27  1  0  0  0  0
M  END
>  <CHROM.1>
108.97728273,-175.43278773,51.47038920,161.61349347,-179.85222822,-92.95716254
-53.89930248,-8.11435303,4.15335792,16.80210053,-2.50069764,-0.78415247,1.03668621

>  <Name>
ligand

>  <RI>
0

>  <Rbt.Current_Directory>
/home/itssahil/PROJECTS/Mol_Feturizer/New_Systems/rnas/3GX6

>  <Rbt.Executable>
rbdock ($Id: //depot/dev/client3/rdock/2013.1/src/exe/rbdock.cxx#4 $)

>  <Rbt.Library>
libRbt.so (2013.1, Build901 2013/11/27)

>  <Rbt.Parameter_File>
/export/apps/rDock/src/rDock_2013.1_src/data/scripts/dock_solv.prm

>  <Rbt.Receptor>
prm/blind_docking_40.prm

>  <SCORE>
-20.7811

>  <SCORE.INTER>
-13.0062

>  <SCORE.INTER.CONST>
1

>  <SCORE.INTER.POLAR>
0

>  <SCORE.INTER.ROT>
7

>  <SCORE.INTER.SOLV>
7.62972

>  <SCORE.INTER.VDW>
-19.4807

>  <SCORE.INTER.norm>
-0.481711

>  <SCORE.INTRA>
-7.77494

>  <SCORE.INTRA.DIHEDRAL>
-7.97458

>  <SCORE.INTRA.DIHEDRAL.0>
15.0182

>  <SCORE.INTRA.POLAR>
0

>  <SCORE.INTRA.POLAR.0>
0

>  <SCORE.INTRA.REPUL>
0

>  <SCORE.INTRA.REPUL.0>
0

>  <SCORE.INTRA.SOLV>
-1.24864

>  <SCORE.INTRA.SOLV.lig_0>
-47.9129

>  <SCORE.INTRA.VDW>
-3.16333

>  <SCORE.INTRA.VDW.0>
2.00851

>  <SCORE.INTRA.norm>
-0.287961

>  <SCORE.RESTR>
0

>  <SCORE.RESTR.CAVITY>
0

>  <SCORE.RESTR.norm>
0

>  <SCORE.SYSTEM>
0

>  <SCORE.SYSTEM.CONST>
0

>  <SCORE.SYSTEM.DIHEDRAL>
0

>  <SCORE.SYSTEM.SOLV>
0

>  <SCORE.SYSTEM.norm>
0

>  <SCORE.heavy>
27

>  <SCORE.norm>
-0.769671

>  <RMSD>
19.033

$$$$
ligand
 OpenBabel11021811483D
libRbt.so/2013.1/901 2013/11/27
 27 29  0  0  0  0  0  0  0  0999 V2000
   -9.8934    5.4869   11.4571 N   0  0  0  0  0  0  0  0  0  0  0  0
   -8.4653    5.2306   11.6237 C   0  0  2  0  0  0  0  0  0  0  0  0
   -7.6873    5.4843   10.3352 C   0  0  0  0  0  0  0  0  0  0  0  0
   -6.5321    5.9144   10.3630 O   0  0  0  0  0  0  0  0  0  0  0  0
   -8.2232    3.8192   12.1503 C   0  0  0  0  0  0  0  0  0  0  0  0
   -8.6308    3.6407   13.6047 C   0  0  0  0  0  0  0  0  0  0  0  0
   -8.2633    1.9985   14.2715 S   0  0  2  0  0  0  0  0  0  0  0  0
   -9.8364    1.1587   13.9609 C   0  0  0  0  0  0  0  0  0  0  0  0
   -8.3765    2.3167   16.0531 C   0  0  0  0  0  0  0  0  0  0  0  0
   -7.1971    3.1746   16.4883 C   0  0  1  0  0  0  0  0  0  0  0  0
   -7.3629    3.4981   17.8483 O   0  0  0  0  0  0  0  0  0  0  0  0
   -5.8365    2.5070   16.4186 C   0  0  1  0  0  0  0  0  0  0  0  0
   -5.1775    2.8306   15.2146 O   0  0  0  0  0  0  0  0  0  0  0  0
   -5.0977    3.1129   17.5947 C   0  0  1  0  0  0  0  0  0  0  0  0
   -4.1662    4.0446   17.1027 O   0  0  0  0  0  0  0  0  0  0  0  0
   -6.1360    3.8330   18.4445 C   0  0  2  0  0  0  0  0  0  0  0  0
   -8.2036    5.2678    9.2387 O   0  0  0  0  0  0  0  0  0  0  0  0
   -5.0215    4.6984   23.5223 N   0  0  0  0  0  0  0  0  0  0  0  0
   -4.8958    5.5734   22.4614 C   0  0  0  0  0  0  0  0  0  0  0  0
   -5.2339    5.1791   21.1806 N   0  0  0  0  0  0  0  0  0  0  0  0
   -5.6894    3.9249   20.9494 C   0  0  0  0  0  0  0  0  0  0  0  0
   -5.8305    3.0334   22.0058 C   0  0  0  0  0  0  0  0  0  0  0  0
   -5.4899    3.4224   23.2956 C   0  0  0  0  0  0  0  0  0  0  0  0
   -5.6162    2.5653   24.3058 N   0  0  0  0  0  0  0  0  0  0  0  0
   -6.3042    1.8715   21.5067 N   0  0  0  0  0  0  0  0  0  0  0  0
   -6.4807    2.0132   20.1720 C   0  0  0  0  0  0  0  0  0  0  0  0
   -6.1053    3.2796   19.8088 N   0  0  0  0  0  0  0  0  0  0  0  0
  2  1  1  6  0  0  0
  2  3  1  0  0  0  0
  2  5  1  0  0  0  0
  3  4  1  0  0  0  0
  3 17  1  0  0  0  0
  5  6  1  0  0  0  0
  7  6  1  6  0  0  0
  7  8  1  0  0  0  0
  7  9  1  0  0  0  0
 10  9  1  1  0  0  0
 10 11  1  0  0  0  0
 10 12  1  0  0  0  0
 11 16  1  0  0  0  0
 12 13  1  6  0  0  0
 12 14  1  0  0  0  0
 14 15  1  6  0  0  0
 14 16  1  0  0  0  0
 16 27  1  1  0  0  0
 18 19  2  0  0  0  0
 18 23  1  0  0  0  0
 19 20  1  0  0  0  0
 20 21  2  0  0  0  0
 21 22  1  0  0  0  0
 21 27  1  0  0  0  0
 22 23  2  0  0  0  0
 22 25  1  0  0  0  0
 23 24  1  0  0  0  0
 25 26  2  0  0  0  0
 26 27  1  0  0  0  0
M  END
>  <CHROM.1>
146.80552703,-71.38941372,-176.72463253,-93.18820979,-70.33240177,175.31944337
-134.92565670,-6.82396990,3.58877617,16.79608571,-1.97772709,0.89315575,1.97144685

>  <Name>
ligand

>  <RI>
0

>  <Rbt.Current_Directory>
/home/itssahil/PROJECTS/Mol_Feturizer/New_Systems/rnas/3GX6

>  <Rbt.Executable>
rbdock ($Id: //depot/dev/client3/rdock/2013.1/src/exe/rbdock.cxx#4 $)

>  <Rbt.Library>
libRbt.so (2013.1, Build901 2013/11/27)

>  <Rbt.Parameter_File>
/export/apps/rDock/src/rDock_2013.1_src/data/scripts/dock_solv.prm

>  <Rbt.Receptor>
prm/blind_docking_60.prm

>  <SCORE>
-18.014

>  <SCORE.INTER>
-7.99525

>  <SCORE.INTER.CONST>
1

>  <SCORE.INTER.POLAR>
0

>  <SCORE.INTER.ROT>
7

>  <SCORE.INTER.SOLV>
5.91683

>  <SCORE.INTER.VDW>
-15.5691

>  <SCORE.INTER.norm>
-0.29612

>  <SCORE.INTRA>
-10.025

>  <SCORE.INTRA.DIHEDRAL>
-9.55489

>  <SCORE.INTRA.DIHEDRAL.0>
15.0182

>  <SCORE.INTRA.POLAR>
0

>  <SCORE.INTRA.POLAR.0>
0

>  <SCORE.INTRA.REPUL>
0

>  <SCORE.INTRA.REPUL.0>
0

>  <SCORE.INTRA.SOLV>
-1.05589

>  <SCORE.INTRA.SOLV.lig_0>
-47.9129

>  <SCORE.INTRA.VDW>
-4.7196

>  <SCORE.INTRA.VDW.0>
2.00851

>  <SCORE.INTRA.norm>
-0.371296

>  <SCORE.RESTR>
0.00628025

>  <SCORE.RESTR.CAVITY>
0.00628025

>  <SCORE.RESTR.norm>
0.000232602

>  <SCORE.SYSTEM>
0

>  <SCORE.SYSTEM.CONST>
0

>  <SCORE.SYSTEM.DIHEDRAL>
0

>  <SCORE.SYSTEM.SOLV>
0

>  <SCORE.SYSTEM.norm>
0

>  <SCORE.heavy>
27

>  <SCORE.norm>
-0.667184

>  <RMSD>
19.102

$$$$
ligand
 OpenBabel11021811483D
libRbt.so/2013.1/901 2013/11/27
 27 29  0  0  0  0  0  0  0  0999 V2000
   -6.9242   -3.7023    9.0178 N   0  0  0  0  0  0  0  0  0  0  0  0
   -6.9067   -3.6342   10.4765 C   0  0  2  0  0  0  0  0  0  0  0  0
   -5.9440   -4.6520   11.0825 C   0  0  0  0  0  0  0  0  0  0  0  0
   -5.6626   -5.6949   10.4880 O   0  0  0  0  0  0  0  0  0  0  0  0
   -8.3134   -3.7922   11.0460 C   0  0  0  0  0  0  0  0  0  0  0  0
   -9.1361   -2.5147   10.9824 C   0  0  0  0  0  0  0  0  0  0  0  0
   -8.5511   -1.2114   12.0940 S   0  0  2  0  0  0  0  0  0  0  0  0
   -8.9181   -1.9610   13.7002 C   0  0  0  0  0  0  0  0  0  0  0  0
   -9.8973   -0.0051   11.9494 C   0  0  0  0  0  0  0  0  0  0  0  0
   -9.6369    1.1573   12.8967 C   0  0  1  0  0  0  0  0  0  0  0  0
   -9.7632    0.6885   14.2180 O   0  0  0  0  0  0  0  0  0  0  0  0
   -8.2442    1.7562   12.8364 C   0  0  1  0  0  0  0  0  0  0  0  0
   -8.2191    2.8901   11.9984 O   0  0  0  0  0  0  0  0  0  0  0  0
   -7.9854    2.1651   14.2722 C   0  0  1  0  0  0  0  0  0  0  0  0
   -8.0949    3.5642   14.3631 O   0  0  0  0  0  0  0  0  0  0  0  0
   -9.0710    1.5145   15.1189 C   0  0  2  0  0  0  0  0  0  0  0  0
   -5.4322   -4.4514   12.1841 O   0  0  0  0  0  0  0  0  0  0  0  0
   -9.6963   -1.1891   19.5994 N   0  0  0  0  0  0  0  0  0  0  0  0
  -10.6437   -0.4671   18.9007 C   0  0  0  0  0  0  0  0  0  0  0  0
  -10.3065    0.1906   17.7329 N   0  0  0  0  0  0  0  0  0  0  0  0
   -9.0382    0.1387   17.2610 C   0  0  0  0  0  0  0  0  0  0  0  0
   -8.0735   -0.5898   17.9459 C   0  0  0  0  0  0  0  0  0  0  0  0
   -8.4050   -1.2513   19.1221 C   0  0  0  0  0  0  0  0  0  0  0  0
   -7.4786   -1.9412   19.7831 N   0  0  0  0  0  0  0  0  0  0  0  0
   -6.9125   -0.4832   17.2645 N   0  0  0  0  0  0  0  0  0  0  0  0
   -7.1244    0.2758   16.1637 C   0  0  0  0  0  0  0  0  0  0  0  0
   -8.4363    0.6698   16.1447 N   0  0  0  0  0  0  0  0  0  0  0  0
  2  1  1  6  0  0  0
  2  3  1  0  0  0  0
  2  5  1  0  0  0  0
  3  4  1  0  0  0  0
  3 17  1  0  0  0  0
  5  6  1  0  0  0  0
  7  6  1  6  0  0  0
  7  8  1  0  0  0  0
  7  9  1  0  0  0  0
 10  9  1  6  0  0  0
 10 11  1  0  0  0  0
 10 12  1  0  0  0  0
 11 16  1  0  0  0  0
 12 13  1  6  0  0  0
 12 14  1  0  0  0  0
 14 15  1  6  0  0  0
 14 16  1  0  0  0  0
 16 27  1  1  0  0  0
 18 19  2  0  0  0  0
 18 23  1  0  0  0  0
 19 20  1  0  0  0  0
 20 21  2  0  0  0  0
 21 22  1  0  0  0  0
 21 27  1  0  0  0  0
 22 23  2  0  0  0  0
 22 25  1  0  0  0  0
 23 24  1  0  0  0  0
 25 26  2  0  0  0  0
 26 27  1  0  0  0  0
M  END
>  <CHROM.1>
-26.50781923,-79.90340150,-68.81119782,-67.20346210,176.39288599,-68.10089693
-81.29844669,-8.24721897,-0.85924832,14.18496322,-0.81626254,-1.24060462
1.80854116

>  <Name>
ligand

>  <RI>
0

>  <Rbt.Current_Directory>
/home/itssahil/PROJECTS/Mol_Feturizer/New_Systems/rnas/3GX6

>  <Rbt.Executable>
rbdock ($Id: //depot/dev/client3/rdock/2013.1/src/exe/rbdock.cxx#4 $)

>  <Rbt.Library>
libRbt.so (2013.1, Build901 2013/11/27)

>  <Rbt.Parameter_File>
/export/apps/rDock/src/rDock_2013.1_src/data/scripts/dock_solv.prm

>  <Rbt.Receptor>
prm/blind_docking_100.prm

>  <SCORE>
-20.2111

>  <SCORE.INTER>
-11.3318

>  <SCORE.INTER.CONST>
1

>  <SCORE.INTER.POLAR>
0

>  <SCORE.INTER.ROT>
7

>  <SCORE.INTER.SOLV>
15.2466

>  <SCORE.INTER.VDW>
-20.9034

>  <SCORE.INTER.norm>
-0.419697

>  <SCORE.INTRA>
-8.87924

>  <SCORE.INTRA.DIHEDRAL>
-9.78345

>  <SCORE.INTRA.DIHEDRAL.0>
15.0182

>  <SCORE.INTRA.POLAR>
0

>  <SCORE.INTRA.POLAR.0>
0

>  <SCORE.INTRA.REPUL>
0

>  <SCORE.INTRA.REPUL.0>
0

>  <SCORE.INTRA.SOLV>
-0.756442

>  <SCORE.INTRA.SOLV.lig_0>
-47.9129

>  <SCORE.INTRA.VDW>
-3.6093

>  <SCORE.INTRA.VDW.0>
2.00851

>  <SCORE.INTRA.norm>
-0.328861

>  <SCORE.RESTR>
0

>  <SCORE.RESTR.CAVITY>
0

>  <SCORE.RESTR.norm>
0

>  <SCORE.SYSTEM>
0

>  <SCORE.SYSTEM.CONST>
0

>  <SCORE.SYSTEM.DIHEDRAL>
0

>  <SCORE.SYSTEM.SOLV>
0

>  <SCORE.SYSTEM.norm>
0

>  <SCORE.heavy>
27

>  <SCORE.norm>
-0.748558

>  <RMSD>
19.112

$$$$
ligand
 OpenBabel11021811483D
libRbt.so/2013.1/901 2013/11/27
 27 29  0  0  0  0  0  0  0  0999 V2000
  -10.3795   -7.6402   18.1517 N   0  0  0  0  0  0  0  0  0  0  0  0
   -9.9267   -6.5937   17.2392 C   0  0  2  0  0  0  0  0  0  0  0  0
  -10.7050   -6.6075   15.9262 C   0  0  0  0  0  0  0  0  0  0  0  0
  -11.4636   -7.5380   15.6452 O   0  0  0  0  0  0  0  0  0  0  0  0
   -8.4240   -6.6964   16.9956 C   0  0  0  0  0  0  0  0  0  0  0  0
   -7.8737   -5.5655   16.1404 C   0  0  0  0  0  0  0  0  0  0  0  0
   -6.0935   -5.6798   15.8333 S   0  0  2  0  0  0  0  0  0  0  0  0
   -5.4487   -5.0342   17.3966 C   0  0  0  0  0  0  0  0  0  0  0  0
   -5.8418   -4.2608   14.7326 C   0  0  0  0  0  0  0  0  0  0  0  0
   -6.6453   -4.4638   13.4561 C   0  0  1  0  0  0  0  0  0  0  0  0
   -7.6851   -3.5152   13.4319 O   0  0  0  0  0  0  0  0  0  0  0  0
   -5.8906   -4.2349   12.1599 C   0  0  1  0  0  0  0  0  0  0  0  0
   -5.4098   -5.4523   11.6350 O   0  0  0  0  0  0  0  0  0  0  0  0
   -6.9507   -3.6566   11.2446 C   0  0  1  0  0  0  0  0  0  0  0  0
   -7.3318   -4.6483   10.3231 O   0  0  0  0  0  0  0  0  0  0  0  0
   -8.1412   -3.2939   12.1219 C   0  0  2  0  0  0  0  0  0  0  0  0
  -10.5848   -5.6874   15.1171 O   0  0  0  0  0  0  0  0  0  0  0  0
   -8.9131    1.3413   14.5081 N   0  0  0  0  0  0  0  0  0  0  0  0
   -8.6306    0.1208   15.0889 C   0  0  0  0  0  0  0  0  0  0  0  0
   -8.4586   -1.0067   14.3082 N   0  0  0  0  0  0  0  0  0  0  0  0
   -8.5701   -0.9286   12.9609 C   0  0  0  0  0  0  0  0  0  0  0  0
   -8.8454    0.2926   12.3581 C   0  0  0  0  0  0  0  0  0  0  0  0
   -9.0221    1.4296   13.1372 C   0  0  0  0  0  0  0  0  0  0  0  0
   -9.2953    2.5974   12.5603 N   0  0  0  0  0  0  0  0  0  0  0  0
   -8.8946    0.0940   11.0233 N   0  0  0  0  0  0  0  0  0  0  0  0
   -8.6413   -1.2114   10.7699 C   0  0  0  0  0  0  0  0  0  0  0  0
   -8.4372   -1.8607   11.9588 N   0  0  0  0  0  0  0  0  0  0  0  0
  2  1  1  1  0  0  0
  2  3  1  0  0  0  0
  2  5  1  0  0  0  0
  3  4  1  0  0  0  0
  3 17  1  0  0  0  0
  5  6  1  0  0  0  0
  7  6  1  1  0  0  0
  7  8  1  0  0  0  0
  7  9  1  0  0  0  0
 10  9  1  1  0  0  0
 10 11  1  0  0  0  0
 10 12  1  0  0  0  0
 11 16  1  0  0  0  0
 12 13  1  6  0  0  0
 12 14  1  0  0  0  0
 14 15  1  6  0  0  0
 14 16  1  0  0  0  0
 16 27  1  1  0  0  0
 18 19  2  0  0  0  0
 18 23  1  0  0  0  0
 19 20  1  0  0  0  0
 20 21  2  0  0  0  0
 21 22  1  0  0  0  0
 21 27  1  0  0  0  0
 22 23  2  0  0  0  0
 22 25  1  0  0  0  0
 23 24  1  0  0  0  0
 25 26  2  0  0  0  0
 26 27  1  0  0  0  0
M  END
>  <CHROM.1>
-10.26815896,-175.39417590,-179.60776070,-79.44080336,-62.23388722,111.68378402
-14.55655578,-8.12442336,-3.54068829,14.03944386,1.59672350,-0.78246692,2.61261161

>  <Name>
ligand

>  <RI>
0

>  <Rbt.Current_Directory>
/home/itssahil/PROJECTS/Mol_Feturizer/New_Systems/rnas/3GX6

>  <Rbt.Executable>
rbdock ($Id: //depot/dev/client3/rdock/2013.1/src/exe/rbdock.cxx#4 $)

>  <Rbt.Library>
libRbt.so (2013.1, Build901 2013/11/27)

>  <Rbt.Parameter_File>
/export/apps/rDock/src/rDock_2013.1_src/data/scripts/dock_solv.prm

>  <Rbt.Receptor>
prm/blind_docking_100.prm

>  <SCORE>
-19.5826

>  <SCORE.INTER>
-11.7121

>  <SCORE.INTER.CONST>
1

>  <SCORE.INTER.POLAR>
0

>  <SCORE.INTER.ROT>
7

>  <SCORE.INTER.SOLV>
10.1037

>  <SCORE.INTER.VDW>
-19.4426

>  <SCORE.INTER.norm>
-0.433782

>  <SCORE.INTRA>
-7.87049

>  <SCORE.INTRA.DIHEDRAL>
-6.28976

>  <SCORE.INTRA.DIHEDRAL.0>
15.0182

>  <SCORE.INTRA.POLAR>
0

>  <SCORE.INTRA.POLAR.0>
0

>  <SCORE.INTRA.REPUL>
0

>  <SCORE.INTRA.REPUL.0>
0

>  <SCORE.INTRA.SOLV>
-1.76872

>  <SCORE.INTRA.SOLV.lig_0>
-47.9129

>  <SCORE.INTRA.VDW>
-3.84125

>  <SCORE.INTRA.VDW.0>
2.00851

>  <SCORE.INTRA.norm>
-0.2915

>  <SCORE.RESTR>
0

>  <SCORE.RESTR.CAVITY>
0

>  <SCORE.RESTR.norm>
0

>  <SCORE.SYSTEM>
0

>  <SCORE.SYSTEM.CONST>
0

>  <SCORE.SYSTEM.DIHEDRAL>
0

>  <SCORE.SYSTEM.SOLV>
0

>  <SCORE.SYSTEM.norm>
0

>  <SCORE.heavy>
27

>  <SCORE.norm>
-0.725281

>  <RMSD>
19.131

$$$$
ligand
 OpenBabel11021811483D
libRbt.so/2013.1/901 2013/11/27
 27 29  0  0  0  0  0  0  0  0999 V2000
   -7.5411   -7.6567   11.3233 N   0  0  0  0  0  0  0  0  0  0  0  0
   -7.1332   -6.3484   10.8184 C   0  0  2  0  0  0  0  0  0  0  0  0
   -5.8227   -5.8796   11.4452 C   0  0  0  0  0  0  0  0  0  0  0  0
   -4.9678   -5.2979   10.7736 O   0  0  0  0  0  0  0  0  0  0  0  0
   -8.2424   -5.3191   11.0142 C   0  0  0  0  0  0  0  0  0  0  0  0
   -7.8471   -3.9170   10.5774 C   0  0  0  0  0  0  0  0  0  0  0  0
   -9.2084   -2.7250   10.6235 S   0  0  2  0  0  0  0  0  0  0  0  0
   -9.3675   -2.3404    8.8619 C   0  0  0  0  0  0  0  0  0  0  0  0
   -8.3523   -1.2473   11.2334 C   0  0  0  0  0  0  0  0  0  0  0  0
   -9.3156   -0.4141   12.0666 C   0  0  1  0  0  0  0  0  0  0  0  0
   -9.5840   -1.1097   13.2606 O   0  0  0  0  0  0  0  0  0  0  0  0
   -8.7941    0.9362   12.5213 C   0  0  1  0  0  0  0  0  0  0  0  0
   -9.2158    1.9595   11.6475 O   0  0  0  0  0  0  0  0  0  0  0  0
   -9.4416    1.1129   13.8798 C   0  0  1  0  0  0  0  0  0  0  0  0
  -10.4772    2.0568   13.7596 O   0  0  0  0  0  0  0  0  0  0  0  0
  -10.0279   -0.2376   14.2683 C   0  0  2  0  0  0  0  0  0  0  0  0
   -5.5921   -6.0794   12.6379 O   0  0  0  0  0  0  0  0  0  0  0  0
  -10.2133    0.1298   19.5225 N   0  0  0  0  0  0  0  0  0  0  0  0
  -11.0260    0.7524   18.5957 C   0  0  0  0  0  0  0  0  0  0  0  0
  -10.8363    0.5457   17.2424 N   0  0  0  0  0  0  0  0  0  0  0  0
   -9.8453   -0.2686   16.8077 C   0  0  0  0  0  0  0  0  0  0  0  0
   -9.0231   -0.9103   17.7257 C   0  0  0  0  0  0  0  0  0  0  0  0
   -9.2066   -0.7048   19.0877 C   0  0  0  0  0  0  0  0  0  0  0  0
   -8.4129   -1.3121   19.9665 N   0  0  0  0  0  0  0  0  0  0  0  0
   -8.1359   -1.6583   17.0351 N   0  0  0  0  0  0  0  0  0  0  0  0
   -8.3881   -1.5185   15.7125 C   0  0  0  0  0  0  0  0  0  0  0  0
   -9.4446   -0.6612   15.5524 N   0  0  0  0  0  0  0  0  0  0  0  0
  2  1  1  1  0  0  0
  2  3  1  0  0  0  0
  2  5  1  0  0  0  0
  3  4  1  0  0  0  0
  3 17  1  0  0  0  0
  5  6  1  0  0  0  0
  7  6  1  6  0  0  0
  7  8  1  0  0  0  0
  7  9  1  0  0  0  0
 10  9  1  6  0  0  0
 10 11  1  0  0  0  0
 10 12  1  0  0  0  0
 11 16  1  0  0  0  0
 12 13  1  6  0  0  0
 12 14  1  0  0  0  0
 14 15  1  6  0  0  0
 14 16  1  0  0  0  0
 16 27  1  1  0  0  0
 18 19  2  0  0  0  0
 18 23  1  0  0  0  0
 19 20  1  0  0  0  0
 20 21  2  0  0  0  0
 21 22  1  0  0  0  0
 21 27  1  0  0  0  0
 22 23  2  0  0  0  0
 22 25  1  0  0  0  0
 23 24  1  0  0  0  0
 25 26  2  0  0  0  0
 26 27  1  0  0  0  0
M  END
>  <CHROM.1>
140.37319479,176.78968659,173.32380798,-114.93787173,-148.22943690,69.63484265
-164.73973966,-8.71792808,-1.84613417,13.72569899,-0.86904478,-1.11334889
1.57043284

>  <Name>
ligand

>  <RI>
0

>  <Rbt.Current_Directory>
/home/itssahil/PROJECTS/Mol_Feturizer/New_Systems/rnas/3GX6

>  <Rbt.Executable>
rbdock ($Id: //depot/dev/client3/rdock/2013.1/src/exe/rbdock.cxx#4 $)

>  <Rbt.Library>
libRbt.so (2013.1, Build901 2013/11/27)

>  <Rbt.Parameter_File>
/export/apps/rDock/src/rDock_2013.1_src/data/scripts/dock_solv.prm

>  <Rbt.Receptor>
prm/blind_docking_80.prm

>  <SCORE>
-22.0346

>  <SCORE.INTER>
-14.7579

>  <SCORE.INTER.CONST>
1

>  <SCORE.INTER.POLAR>
0

>  <SCORE.INTER.ROT>
7

>  <SCORE.INTER.SOLV>
17.1742

>  <SCORE.INTER.VDW>
-23.83

>  <SCORE.INTER.norm>
-0.546591

>  <SCORE.INTRA>
-7.27667

>  <SCORE.INTRA.DIHEDRAL>
-4.13254

>  <SCORE.INTRA.DIHEDRAL.0>
15.0182

>  <SCORE.INTRA.POLAR>
0

>  <SCORE.INTRA.POLAR.0>
0

>  <SCORE.INTRA.REPUL>
0

>  <SCORE.INTRA.REPUL.0>
0

>  <SCORE.INTRA.SOLV>
-1.88255

>  <SCORE.INTRA.SOLV.lig_0>
-47.9129

>  <SCORE.INTRA.VDW>
-4.26913

>  <SCORE.INTRA.VDW.0>
2.00851

>  <SCORE.INTRA.norm>
-0.269506

>  <SCORE.RESTR>
0

>  <SCORE.RESTR.CAVITY>
0

>  <SCORE.RESTR.norm>
0

>  <SCORE.SYSTEM>
0

>  <SCORE.SYSTEM.CONST>
0

>  <SCORE.SYSTEM.DIHEDRAL>
0

>  <SCORE.SYSTEM.SOLV>
0

>  <SCORE.SYSTEM.norm>
0

>  <SCORE.heavy>
27

>  <SCORE.norm>
-0.816097

>  <RMSD>
19.133

$$$$
ligand
 OpenBabel11021811483D
libRbt.so/2013.1/901 2013/11/27
 27 29  0  0  0  0  0  0  0  0999 V2000
   -7.9330    1.6897   23.2452 N   0  0  0  0  0  0  0  0  0  0  0  0
   -8.7434    0.7796   22.4404 C   0  0  2  0  0  0  0  0  0  0  0  0
   -9.0632   -0.5115   23.1893 C   0  0  0  0  0  0  0  0  0  0  0  0
  -10.1987   -0.9919   23.1743 O   0  0  0  0  0  0  0  0  0  0  0  0
   -8.0724    0.4931   21.1004 C   0  0  0  0  0  0  0  0  0  0  0  0
   -8.5343    1.4184   19.9853 C   0  0  0  0  0  0  0  0  0  0  0  0
   -7.4826    1.3718   18.5128 S   0  0  2  0  0  0  0  0  0  0  0  0
   -5.9550    2.0792   19.1782 C   0  0  0  0  0  0  0  0  0  0  0  0
   -8.1433    2.7746   17.5727 C   0  0  0  0  0  0  0  0  0  0  0  0
   -9.0081    2.2555   16.4329 C   0  0  1  0  0  0  0  0  0  0  0  0
   -9.6120    3.3572   15.7981 O   0  0  0  0  0  0  0  0  0  0  0  0
   -8.2687    1.5338   15.3218 C   0  0  1  0  0  0  0  0  0  0  0  0
   -8.3028    0.1377   15.5178 O   0  0  0  0  0  0  0  0  0  0  0  0
   -9.0627    1.9048   14.0857 C   0  0  1  0  0  0  0  0  0  0  0  0
   -9.8225    0.7884   13.6933 O   0  0  0  0  0  0  0  0  0  0  0  0
   -9.9961    3.0397   14.4848 C   0  0  2  0  0  0  0  0  0  0  0  0
   -8.1899   -1.0969   23.8298 O   0  0  0  0  0  0  0  0  0  0  0  0
  -11.9271    6.3852   10.8995 N   0  0  0  0  0  0  0  0  0  0  0  0
  -12.5733    5.3334   11.5184 C   0  0  0  0  0  0  0  0  0  0  0  0
  -11.9114    4.5468   12.4422 N   0  0  0  0  0  0  0  0  0  0  0  0
  -10.6161    4.7960   12.7489 C   0  0  0  0  0  0  0  0  0  0  0  0
   -9.9521    5.8553   12.1426 C   0  0  0  0  0  0  0  0  0  0  0  0
  -10.6107    6.6485   11.2110 C   0  0  0  0  0  0  0  0  0  0  0  0
   -9.9717    7.6572   10.6234 N   0  0  0  0  0  0  0  0  0  0  0  0
   -8.6917    5.8855   12.6265 N   0  0  0  0  0  0  0  0  0  0  0  0
   -8.5508    4.8879   13.5307 C   0  0  0  0  0  0  0  0  0  0  0  0
   -9.7335    4.2023   13.6200 N   0  0  0  0  0  0  0  0  0  0  0  0
  2  1  1  1  0  0  0
  2  3  1  0  0  0  0
  2  5  1  0  0  0  0
  3  4  1  0  0  0  0
  3 17  1  0  0  0  0
  5  6  1  0  0  0  0
  7  6  1  1  0  0  0
  7  8  1  0  0  0  0
  7  9  1  0  0  0  0
 10  9  1  1  0  0  0
 10 11  1  0  0  0  0
 10 12  1  0  0  0  0
 11 16  1  0  0  0  0
 12 13  1  1  0  0  0
 12 14  1  0  0  0  0
 14 15  1  1  0  0  0
 14 16  1  0  0  0  0
 16 27  1  6  0  0  0
 18 19  2  0  0  0  0
 18 23  1  0  0  0  0
 19 20  1  0  0  0  0
 20 21  2  0  0  0  0
 21 22  1  0  0  0  0
 21 27  1  0  0  0  0
 22 23  2  0  0  0  0
 22 25  1  0  0  0  0
 23 24  1  0  0  0  0
 25 26  2  0  0  0  0
 26 27  1  0  0  0  0
M  END
>  <CHROM.1>
135.63298764,-93.47966084,165.94224569,-66.31952407,-104.04964790,174.41432131
-129.03469050,-9.17400380,2.68891821,16.48757976,-0.99212568,-1.22180288
-0.54013794

>  <Name>
ligand

>  <RI>
0

>  <Rbt.Current_Directory>
/home/itssahil/PROJECTS/Mol_Feturizer/New_Systems/rnas/3GX6

>  <Rbt.Executable>
rbdock ($Id: //depot/dev/client3/rdock/2013.1/src/exe/rbdock.cxx#4 $)

>  <Rbt.Library>
libRbt.so (2013.1, Build901 2013/11/27)

>  <Rbt.Parameter_File>
/export/apps/rDock/src/rDock_2013.1_src/data/scripts/dock_solv.prm

>  <Rbt.Receptor>
prm/blind_docking_60.prm

>  <SCORE>
-13.3623

>  <SCORE.INTER>
-5.91291

>  <SCORE.INTER.CONST>
1

>  <SCORE.INTER.POLAR>
0

>  <SCORE.INTER.ROT>
7

>  <SCORE.INTER.SOLV>
6.92611

>  <SCORE.INTER.VDW>
-14.5173

>  <SCORE.INTER.norm>
-0.218997

>  <SCORE.INTRA>
-7.44935

>  <SCORE.INTRA.DIHEDRAL>
-4.77764

>  <SCORE.INTRA.DIHEDRAL.0>
15.0182

>  <SCORE.INTRA.POLAR>
0

>  <SCORE.INTRA.POLAR.0>
0

>  <SCORE.INTRA.REPUL>
0

>  <SCORE.INTRA.REPUL.0>
0

>  <SCORE.INTRA.SOLV>
-1.188

>  <SCORE.INTRA.SOLV.lig_0>
-47.9129

>  <SCORE.INTRA.VDW>
-4.46653

>  <SCORE.INTRA.VDW.0>
2.00851

>  <SCORE.INTRA.norm>
-0.275902

>  <SCORE.RESTR>
0

>  <SCORE.RESTR.CAVITY>
0

>  <SCORE.RESTR.norm>
0

>  <SCORE.SYSTEM>
0

>  <SCORE.SYSTEM.CONST>
0

>  <SCORE.SYSTEM.DIHEDRAL>
0

>  <SCORE.SYSTEM.SOLV>
0

>  <SCORE.SYSTEM.norm>
0

>  <SCORE.heavy>
27

>  <SCORE.norm>
-0.494899

>  <RMSD>
19.140

$$$$
ligand
 OpenBabel11021811483D
libRbt.so/2013.1/901 2013/11/27
 27 29  0  0  0  0  0  0  0  0999 V2000
   -6.6155    4.8998   20.0476 N   0  0  0  0  0  0  0  0  0  0  0  0
   -6.7948    3.4522   20.1202 C   0  0  2  0  0  0  0  0  0  0  0  0
   -5.6213    2.7013   19.4965 C   0  0  0  0  0  0  0  0  0  0  0  0
   -5.3879    1.5269   19.7908 O   0  0  0  0  0  0  0  0  0  0  0  0
   -8.1199    3.0352   19.4892 C   0  0  0  0  0  0  0  0  0  0  0  0
   -8.5183    1.6041   19.8149 C   0  0  0  0  0  0  0  0  0  0  0  0
   -9.7472    0.9105   18.6813 S   0  0  2  0  0  0  0  0  0  0  0  0
   -9.9202   -0.7566   19.3650 C   0  0  0  0  0  0  0  0  0  0  0  0
   -8.7247    0.5898   17.2184 C   0  0  0  0  0  0  0  0  0  0  0  0
   -9.5915   -0.0038   16.1173 C   0  0  1  0  0  0  0  0  0  0  0  0
  -10.3712    1.0286   15.5626 O   0  0  0  0  0  0  0  0  0  0  0  0
   -8.8433   -0.5929   14.9362 C   0  0  1  0  0  0  0  0  0  0  0  0
   -8.6873   -1.9867   15.0828 O   0  0  0  0  0  0  0  0  0  0  0  0
   -9.7591   -0.2923   13.7670 C   0  0  1  0  0  0  0  0  0  0  0  0
  -10.3963   -1.4857   13.3829 O   0  0  0  0  0  0  0  0  0  0  0  0
  -10.7995    0.7015   14.2654 C   0  0  2  0  0  0  0  0  0  0  0  0
   -4.8794    3.2591   18.6877 O   0  0  0  0  0  0  0  0  0  0  0  0
   -7.7527    4.0816   11.6071 N   0  0  0  0  0  0  0  0  0  0  0  0
   -7.3642    2.9678   12.3251 C   0  0  0  0  0  0  0  0  0  0  0  0
   -8.3024    2.1846   12.9705 N   0  0  0  0  0  0  0  0  0  0  0  0
   -9.6171    2.5037   12.9103 C   0  0  0  0  0  0  0  0  0  0  0  0
  -10.0275    3.6158   12.1855 C   0  0  0  0  0  0  0  0  0  0  0  0
   -9.0894    4.4091   11.5364 C   0  0  0  0  0  0  0  0  0  0  0  0
   -9.4818    5.4797   10.8502 N   0  0  0  0  0  0  0  0  0  0  0  0
  -11.3718    3.7001   12.2821 N   0  0  0  0  0  0  0  0  0  0  0  0
  -11.8182    2.6645   13.0311 C   0  0  0  0  0  0  0  0  0  0  0  0
  -10.7447    1.9121   13.4288 N   0  0  0  0  0  0  0  0  0  0  0  0
  2  1  1  6  0  0  0
  2  3  1  0  0  0  0
  2  5  1  0  0  0  0
  3  4  1  0  0  0  0
  3 17  1  0  0  0  0
  5  6  1  0  0  0  0
  7  6  1  1  0  0  0
  7  8  1  0  0  0  0
  7  9  1  0  0  0  0
 10  9  1  1  0  0  0
 10 11  1  0  0  0  0
 10 12  1  0  0  0  0
 11 16  1  0  0  0  0
 12 13  1  1  0  0  0
 12 14  1  0  0  0  0
 14 15  1  1  0  0  0
 14 16  1  0  0  0  0
 16 27  1  6  0  0  0
 18 19  2  0  0  0  0
 18 23  1  0  0  0  0
 19 20  1  0  0  0  0
 20 21  2  0  0  0  0
 21 22  1  0  0  0  0
 21 27  1  0  0  0  0
 22 23  2  0  0  0  0
 22 25  1  0  0  0  0
 23 24  1  0  0  0  0
 25 26  2  0  0  0  0
 26 27  1  0  0  0  0
M  END
>  <CHROM.1>
158.66981180,-166.53562898,-160.82742068,178.88902428,-179.70305126,75.22581503
75.12970755,-8.84337738,1.81735625,15.75417544,-0.95285314,-0.95528531,-0.96102412

>  <Name>
ligand

>  <RI>
0

>  <Rbt.Current_Directory>
/home/itssahil/PROJECTS/Mol_Feturizer/New_Systems/rnas/3GX6

>  <Rbt.Executable>
rbdock ($Id: //depot/dev/client3/rdock/2013.1/src/exe/rbdock.cxx#4 $)

>  <Rbt.Library>
libRbt.so (2013.1, Build901 2013/11/27)

>  <Rbt.Parameter_File>
/export/apps/rDock/src/rDock_2013.1_src/data/scripts/dock_solv.prm

>  <Rbt.Receptor>
prm/blind_docking_60.prm

>  <SCORE>
-18.5191

>  <SCORE.INTER>
-8.5325

>  <SCORE.INTER.CONST>
1

>  <SCORE.INTER.POLAR>
0

>  <SCORE.INTER.ROT>
7

>  <SCORE.INTER.SOLV>
7.87454

>  <SCORE.INTER.VDW>
-16.5798

>  <SCORE.INTER.norm>
-0.316018

>  <SCORE.INTRA>
-10.003

>  <SCORE.INTRA.DIHEDRAL>
-8.73459

>  <SCORE.INTRA.DIHEDRAL.0>
15.0182

>  <SCORE.INTRA.POLAR>
0

>  <SCORE.INTRA.POLAR.0>
0

>  <SCORE.INTRA.REPUL>
0

>  <SCORE.INTRA.REPUL.0>
0

>  <SCORE.INTRA.SOLV>
-1.81374

>  <SCORE.INTRA.SOLV.lig_0>
-47.9129

>  <SCORE.INTRA.VDW>
-4.72886

>  <SCORE.INTRA.VDW.0>
2.00851

>  <SCORE.INTRA.norm>
-0.370482

>  <SCORE.RESTR>
0.0164492

>  <SCORE.RESTR.CAVITY>
0.0164492

>  <SCORE.RESTR.norm>
0.000609229

>  <SCORE.SYSTEM>
0

>  <SCORE.SYSTEM.CONST>
0

>  <SCORE.SYSTEM.DIHEDRAL>
0

>  <SCORE.SYSTEM.SOLV>
0

>  <SCORE.SYSTEM.norm>
0

>  <SCORE.heavy>
27

>  <SCORE.norm>
-0.685891

>  <RMSD>
19.182

$$$$
ligand
 OpenBabel11021811483D
libRbt.so/2013.1/901 2013/11/27
 27 29  0  0  0  0  0  0  0  0999 V2000
   -8.7690    2.3442   14.2731 N   0  0  0  0  0  0  0  0  0  0  0  0
   -9.3996    1.1410   13.7366 C   0  0  2  0  0  0  0  0  0  0  0  0
   -9.8923    0.2142   14.8449 C   0  0  0  0  0  0  0  0  0  0  0  0
   -9.7306   -1.0061   14.7733 O   0  0  0  0  0  0  0  0  0  0  0  0
   -8.4591    0.4133   12.7807 C   0  0  0  0  0  0  0  0  0  0  0  0
   -9.1792   -0.5271   11.8266 C   0  0  0  0  0  0  0  0  0  0  0  0
   -8.1814   -1.9436   11.3032 S   0  0  2  0  0  0  0  0  0  0  0  0
   -9.2176   -2.6010    9.9725 C   0  0  0  0  0  0  0  0  0  0  0  0
   -8.5280   -3.1214   12.6377 C   0  0  0  0  0  0  0  0  0  0  0  0
   -7.6013   -4.3214   12.5048 C   0  0  1  0  0  0  0  0  0  0  0  0
   -7.7646   -5.1350   13.6419 O   0  0  0  0  0  0  0  0  0  0  0  0
   -7.8823   -5.2434   11.3331 C   0  0  1  0  0  0  0  0  0  0  0  0
   -7.0575   -4.9270   10.2339 O   0  0  0  0  0  0  0  0  0  0  0  0
   -7.5200   -6.6098   11.8787 C   0  0  1  0  0  0  0  0  0  0  0  0
   -6.2936   -7.0033   11.3141 O   0  0  0  0  0  0  0  0  0  0  0  0
   -7.3594   -6.4551   13.3850 C   0  0  2  0  0  0  0  0  0  0  0  0
  -10.4677    0.6700   15.8331 O   0  0  0  0  0  0  0  0  0  0  0  0
  -11.0866   -7.0305   17.0663 N   0  0  0  0  0  0  0  0  0  0  0  0
  -10.4079   -5.8808   16.7136 C   0  0  0  0  0  0  0  0  0  0  0  0
   -9.4496   -5.9071   15.7180 N   0  0  0  0  0  0  0  0  0  0  0  0
   -9.1607   -7.0650   15.0778 C   0  0  0  0  0  0  0  0  0  0  0  0
   -9.8395   -8.2300   15.4133 C   0  0  0  0  0  0  0  0  0  0  0  0
  -10.8023   -8.2112   16.4151 C   0  0  0  0  0  0  0  0  0  0  0  0
  -11.4455   -9.3292   16.7429 N   0  0  0  0  0  0  0  0  0  0  0  0
   -9.3705   -9.2234   14.6280 N   0  0  0  0  0  0  0  0  0  0  0  0
   -8.4304   -8.7127   13.7985 C   0  0  0  0  0  0  0  0  0  0  0  0
   -8.2874   -7.3761   14.0625 N   0  0  0  0  0  0  0  0  0  0  0  0
  2  1  1  1  0  0  0
  2  3  1  0  0  0  0
  2  5  1  0  0  0  0
  3  4  1  0  0  0  0
  3 17  1  0  0  0  0
  5  6  1  0  0  0  0
  7  6  1  1  0  0  0
  7  8  1  0  0  0  0
  7  9  1  0  0  0  0
 10  9  1  1  0  0  0
 10 11  1  0  0  0  0
 10 12  1  0  0  0  0
 11 16  1  0  0  0  0
 12 13  1  6  0  0  0
 12 14  1  0  0  0  0
 14 15  1  6  0  0  0
 14 16  1  0  0  0  0
 16 27  1  1  0  0  0
 18 19  2  0  0  0  0
 18 23  1  0  0  0  0
 19 20  1  0  0  0  0
 20 21  2  0  0  0  0
 21 22  1  0  0  0  0
 21 27  1  0  0  0  0
 22 23  2  0  0  0  0
 22 25  1  0  0  0  0
 23 24  1  0  0  0  0
 25 26  2  0  0  0  0
 26 27  1  0  0  0  0
M  END
>  <CHROM.1>
-137.67049220,-159.39090798,-150.94166154,-169.17262344,-171.02698276,172.43125539
-17.43471688,-8.88311541,-4.28197002,13.60031492,1.48445126,1.03944159,-0.14841915

>  <Name>
ligand

>  <RI>
0

>  <Rbt.Current_Directory>
/home/itssahil/PROJECTS/Mol_Feturizer/New_Systems/rnas/3GX6

>  <Rbt.Executable>
rbdock ($Id: //depot/dev/client3/rdock/2013.1/src/exe/rbdock.cxx#4 $)

>  <Rbt.Library>
libRbt.so (2013.1, Build901 2013/11/27)

>  <Rbt.Parameter_File>
/export/apps/rDock/src/rDock_2013.1_src/data/scripts/dock_solv.prm

>  <Rbt.Receptor>
prm/blind_docking_100.prm

>  <SCORE>
-21.1144

>  <SCORE.INTER>
-13.6439

>  <SCORE.INTER.CONST>
1

>  <SCORE.INTER.POLAR>
0

>  <SCORE.INTER.ROT>
7

>  <SCORE.INTER.SOLV>
14.8696

>  <SCORE.INTER.VDW>
-22.3192

>  <SCORE.INTER.norm>
-0.505331

>  <SCORE.INTRA>
-7.47043

>  <SCORE.INTRA.DIHEDRAL>
-5.73579

>  <SCORE.INTRA.DIHEDRAL.0>
15.0182

>  <SCORE.INTRA.POLAR>
0

>  <SCORE.INTRA.POLAR.0>
0

>  <SCORE.INTRA.REPUL>
0

>  <SCORE.INTRA.REPUL.0>
0

>  <SCORE.INTRA.SOLV>
-1.46464

>  <SCORE.INTRA.SOLV.lig_0>
-47.9129

>  <SCORE.INTRA.VDW>
-3.87022

>  <SCORE.INTRA.VDW.0>
2.00851

>  <SCORE.INTRA.norm>
-0.276683

>  <SCORE.RESTR>
0

>  <SCORE.RESTR.CAVITY>
0

>  <SCORE.RESTR.norm>
0

>  <SCORE.SYSTEM>
0

>  <SCORE.SYSTEM.CONST>
0

>  <SCORE.SYSTEM.DIHEDRAL>
0

>  <SCORE.SYSTEM.SOLV>
0

>  <SCORE.SYSTEM.norm>
0

>  <SCORE.heavy>
27

>  <SCORE.norm>
-0.782013

>  <RMSD>
19.192

$$$$
ligand
 OpenBabel11021811483D
libRbt.so/2013.1/901 2013/11/27
 27 29  0  0  0  0  0  0  0  0999 V2000
   -7.9421    0.2253   17.7459 N   0  0  0  0  0  0  0  0  0  0  0  0
   -8.5932    0.7155   18.9578 C   0  0  2  0  0  0  0  0  0  0  0  0
   -9.7805   -0.1561   19.3586 C   0  0  0  0  0  0  0  0  0  0  0  0
   -9.7842   -0.7765   20.4242 O   0  0  0  0  0  0  0  0  0  0  0  0
   -9.0040    2.1767   18.8023 C   0  0  0  0  0  0  0  0  0  0  0  0
   -7.8309    3.1070   18.5349 C   0  0  0  0  0  0  0  0  0  0  0  0
   -8.2579    4.8643   18.6130 S   0  0  2  0  0  0  0  0  0  0  0  0
   -9.0378    4.9402   20.2447 C   0  0  0  0  0  0  0  0  0  0  0  0
   -9.7072    4.9156   17.5242 C   0  0  0  0  0  0  0  0  0  0  0  0
   -9.2770    5.3551   16.1321 C   0  0  1  0  0  0  0  0  0  0  0  0
   -8.4940    4.3309   15.5667 O   0  0  0  0  0  0  0  0  0  0  0  0
  -10.3991    5.5717   15.1342 C   0  0  1  0  0  0  0  0  0  0  0  0
  -10.7613    6.9331   15.0708 O   0  0  0  0  0  0  0  0  0  0  0  0
   -9.7784    5.1372   13.8220 C   0  0  1  0  0  0  0  0  0  0  0  0
   -9.4889    6.2863   13.0647 O   0  0  0  0  0  0  0  0  0  0  0  0
   -8.4824    4.4149   14.1646 C   0  0  2  0  0  0  0  0  0  0  0  0
  -10.7590   -0.2603   18.6188 O   0  0  0  0  0  0  0  0  0  0  0  0
  -10.0558   -0.5678   14.8526 N   0  0  0  0  0  0  0  0  0  0  0  0
  -10.2301    0.5059   15.7034 C   0  0  0  0  0  0  0  0  0  0  0  0
   -9.7476    1.7563   15.3660 N   0  0  0  0  0  0  0  0  0  0  0  0
   -9.0922    1.9431   14.1958 C   0  0  0  0  0  0  0  0  0  0  0  0
   -8.9148    0.8765   13.3232 C   0  0  0  0  0  0  0  0  0  0  0  0
   -9.3950   -0.3839   13.6573 C   0  0  0  0  0  0  0  0  0  0  0  0
   -9.2167   -1.4075   12.8257 N   0  0  0  0  0  0  0  0  0  0  0  0
   -8.2461    1.3325   12.2422 N   0  0  0  0  0  0  0  0  0  0  0  0
   -8.0142    2.6565   12.4029 C   0  0  0  0  0  0  0  0  0  0  0  0
   -8.5319    3.0525   13.6078 N   0  0  0  0  0  0  0  0  0  0  0  0
  2  1  1  6  0  0  0
  2  3  1  0  0  0  0
  2  5  1  0  0  0  0
  3  4  1  0  0  0  0
  3 17  1  0  0  0  0
  5  6  1  0  0  0  0
  7  6  1  1  0  0  0
  7  8  1  0  0  0  0
  7  9  1  0  0  0  0
 10  9  1  1  0  0  0
 10 11  1  0  0  0  0
 10 12  1  0  0  0  0
 11 16  1  0  0  0  0
 12 13  1  6  0  0  0
 12 14  1  0  0  0  0
 14 15  1  6  0  0  0
 14 16  1  0  0  0  0
 16 27  1  6  0  0  0
 18 19  2  0  0  0  0
 18 23  1  0  0  0  0
 19 20  1  0  0  0  0
 20 21  2  0  0  0  0
 21 22  1  0  0  0  0
 21 27  1  0  0  0  0
 22 23  2  0  0  0  0
 22 25  1  0  0  0  0
 23 24  1  0  0  0  0
 25 26  2  0  0  0  0
 26 27  1  0  0  0  0
M  END
>  <CHROM.1>
116.69877318,-60.23649028,-170.66705585,53.23001754,-96.89501485,68.49847851
27.78222857,-9.18538875,2.66486574,16.11521842,2.20734458,1.55463534,1.52844660

>  <Name>
ligand

>  <RI>
0

>  <Rbt.Current_Directory>
/home/itssahil/PROJECTS/Mol_Feturizer/New_Systems/rnas/3GX6

>  <Rbt.Executable>
rbdock ($Id: //depot/dev/client3/rdock/2013.1/src/exe/rbdock.cxx#4 $)

>  <Rbt.Library>
libRbt.so (2013.1, Build901 2013/11/27)

>  <Rbt.Parameter_File>
/export/apps/rDock/src/rDock_2013.1_src/data/scripts/dock_solv.prm

>  <Rbt.Receptor>
prm/blind_docking_100.prm

>  <SCORE>
-18.8869

>  <SCORE.INTER>
-9.10911

>  <SCORE.INTER.CONST>
1

>  <SCORE.INTER.POLAR>
0

>  <SCORE.INTER.ROT>
7

>  <SCORE.INTER.SOLV>
8.79484

>  <SCORE.INTER.VDW>
-17.271

>  <SCORE.INTER.norm>
-0.337374

>  <SCORE.INTRA>
-9.77776

>  <SCORE.INTRA.DIHEDRAL>
-9.23166

>  <SCORE.INTRA.DIHEDRAL.0>
15.0182

>  <SCORE.INTRA.POLAR>
0

>  <SCORE.INTRA.POLAR.0>
0

>  <SCORE.INTRA.REPUL>
0

>  <SCORE.INTRA.REPUL.0>
0

>  <SCORE.INTRA.SOLV>
0.0322676

>  <SCORE.INTRA.SOLV.lig_0>
-47.9129

>  <SCORE.INTRA.VDW>
-5.17807

>  <SCORE.INTRA.VDW.0>
2.00851

>  <SCORE.INTRA.norm>
-0.362139

>  <SCORE.RESTR>
0

>  <SCORE.RESTR.CAVITY>
0

>  <SCORE.RESTR.norm>
0

>  <SCORE.SYSTEM>
0

>  <SCORE.SYSTEM.CONST>
0

>  <SCORE.SYSTEM.DIHEDRAL>
0

>  <SCORE.SYSTEM.SOLV>
0

>  <SCORE.SYSTEM.norm>
0

>  <SCORE.heavy>
27

>  <SCORE.norm>
-0.699514

>  <RMSD>
19.210

$$$$
ligand
 OpenBabel11021811483D
libRbt.so/2013.1/901 2013/11/27
 27 29  0  0  0  0  0  0  0  0999 V2000
  -10.9782    7.1590   12.1330 N   0  0  0  0  0  0  0  0  0  0  0  0
  -11.4101    5.8121   11.7694 C   0  0  2  0  0  0  0  0  0  0  0  0
  -11.9389    5.7506   10.3388 C   0  0  0  0  0  0  0  0  0  0  0  0
  -11.6712    6.6350    9.5223 O   0  0  0  0  0  0  0  0  0  0  0  0
  -12.4379    5.2825   12.7649 C   0  0  0  0  0  0  0  0  0  0  0  0
  -12.6592    3.7814   12.6611 C   0  0  0  0  0  0  0  0  0  0  0  0
  -11.1802    2.7978   13.0093 S   0  0  2  0  0  0  0  0  0  0  0  0
  -10.3973    2.7936   11.3772 C   0  0  0  0  0  0  0  0  0  0  0  0
  -11.8834    1.1274   13.0698 C   0  0  0  0  0  0  0  0  0  0  0  0
  -10.7763    0.1058   12.8534 C   0  0  1  0  0  0  0  0  0  0  0  0
   -9.8322    0.2502   13.8876 O   0  0  0  0  0  0  0  0  0  0  0  0
  -11.2002   -1.3492   12.9250 C   0  0  1  0  0  0  0  0  0  0  0  0
  -11.4490   -1.8656   11.6365 O   0  0  0  0  0  0  0  0  0  0  0  0
   -9.9896   -2.0286   13.5324 C   0  0  1  0  0  0  0  0  0  0  0  0
   -9.3231   -2.7398   12.5186 O   0  0  0  0  0  0  0  0  0  0  0  0
   -9.0823   -0.9250   14.0593 C   0  0  2  0  0  0  0  0  0  0  0  0
  -12.6503    4.8146    9.9736 O   0  0  0  0  0  0  0  0  0  0  0  0
  -10.6281    0.1997   18.9706 N   0  0  0  0  0  0  0  0  0  0  0  0
  -11.1670    0.6533   17.7829 C   0  0  0  0  0  0  0  0  0  0  0  0
  -10.6326    0.2575   16.5713 N   0  0  0  0  0  0  0  0  0  0  0  0
   -9.5680   -0.5787   16.5345 C   0  0  0  0  0  0  0  0  0  0  0  0
   -9.0177   -1.0523   17.7192 C   0  0  0  0  0  0  0  0  0  0  0  0
   -9.5484   -0.6562   18.9408 C   0  0  0  0  0  0  0  0  0  0  0  0
   -9.0152   -1.1023   20.0756 N   0  0  0  0  0  0  0  0  0  0  0  0
   -7.9862   -1.8638   17.4015 N   0  0  0  0  0  0  0  0  0  0  0  0
   -7.8841   -1.9270   16.0531 C   0  0  0  0  0  0  0  0  0  0  0  0
   -8.8566   -1.1372   15.4989 N   0  0  0  0  0  0  0  0  0  0  0  0
  2  1  1  1  0  0  0
  2  3  1  0  0  0  0
  2  5  1  0  0  0  0
  3  4  1  0  0  0  0
  3 17  1  0  0  0  0
  5  6  1  0  0  0  0
  7  6  1  6  0  0  0
  7  8  1  0  0  0  0
  7  9  1  0  0  0  0
 10  9  1  1  0  0  0
 10 11  1  0  0  0  0
 10 12  1  0  0  0  0
 11 16  1  0  0  0  0
 12 13  1  6  0  0  0
 12 14  1  0  0  0  0
 14 15  1  6  0  0  0
 14 16  1  0  0  0  0
 16 27  1  1  0  0  0
 18 19  2  0  0  0  0
 18 23  1  0  0  0  0
 19 20  1  0  0  0  0
 20 21  2  0  0  0  0
 21 22  1  0  0  0  0
 21 27  1  0  0  0  0
 22 23  2  0  0  0  0
 22 25  1  0  0  0  0
 23 24  1  0  0  0  0
 25 26  2  0  0  0  0
 26 27  1  0  0  0  0
M  END
>  <CHROM.1>
18.50527175,-165.10631592,61.83231106,-85.38298896,159.71995901,60.99309689
19.10948576,-10.55168253,1.24160228,14.02765746,2.95867776,1.28921097,-2.12136192

>  <Name>
ligand

>  <RI>
0

>  <Rbt.Current_Directory>
/home/itssahil/PROJECTS/Mol_Feturizer/New_Systems/rnas/3GX6

>  <Rbt.Executable>
rbdock ($Id: //depot/dev/client3/rdock/2013.1/src/exe/rbdock.cxx#4 $)

>  <Rbt.Library>
libRbt.so (2013.1, Build901 2013/11/27)

>  <Rbt.Parameter_File>
/export/apps/rDock/src/rDock_2013.1_src/data/scripts/dock_solv.prm

>  <Rbt.Receptor>
prm/blind_docking_80.prm

>  <SCORE>
-21.3956

>  <SCORE.INTER>
-12.1292

>  <SCORE.INTER.CONST>
1

>  <SCORE.INTER.POLAR>
0

>  <SCORE.INTER.ROT>
7

>  <SCORE.INTER.SOLV>
15.6171

>  <SCORE.INTER.VDW>
-21.5585

>  <SCORE.INTER.norm>
-0.449229

>  <SCORE.INTRA>
-9.26642

>  <SCORE.INTRA.DIHEDRAL>
-9.76151

>  <SCORE.INTRA.DIHEDRAL.0>
15.0182

>  <SCORE.INTRA.POLAR>
0

>  <SCORE.INTRA.POLAR.0>
0

>  <SCORE.INTRA.REPUL>
0

>  <SCORE.INTRA.REPUL.0>
0

>  <SCORE.INTRA.SOLV>
-1.30242

>  <SCORE.INTRA.SOLV.lig_0>
-47.9129

>  <SCORE.INTRA.VDW>
-3.73446

>  <SCORE.INTRA.VDW.0>
2.00851

>  <SCORE.INTRA.norm>
-0.343201

>  <SCORE.RESTR>
0

>  <SCORE.RESTR.CAVITY>
0

>  <SCORE.RESTR.norm>
0

>  <SCORE.SYSTEM>
0

>  <SCORE.SYSTEM.CONST>
0

>  <SCORE.SYSTEM.DIHEDRAL>
0

>  <SCORE.SYSTEM.SOLV>
0

>  <SCORE.SYSTEM.norm>
0

>  <SCORE.heavy>
27

>  <SCORE.norm>
-0.79243

>  <RMSD>
19.358

$$$$
ligand
 OpenBabel11021811483D
libRbt.so/2013.1/901 2013/11/27
 27 29  0  0  0  0  0  0  0  0999 V2000
   -7.9550    4.3032   13.9258 N   0  0  0  0  0  0  0  0  0  0  0  0
   -6.6736    4.8005   13.4323 C   0  0  2  0  0  0  0  0  0  0  0  0
   -6.6829    4.9939   11.9182 C   0  0  0  0  0  0  0  0  0  0  0  0
   -5.8391    5.6996   11.3611 O   0  0  0  0  0  0  0  0  0  0  0  0
   -5.5309    3.8886   13.8690 C   0  0  0  0  0  0  0  0  0  0  0  0
   -5.2572    3.9395   15.3642 C   0  0  0  0  0  0  0  0  0  0  0  0
   -6.5557    3.1816   16.3721 S   0  0  2  0  0  0  0  0  0  0  0  0
   -5.7435    3.1576   17.9896 C   0  0  0  0  0  0  0  0  0  0  0  0
   -6.4078    1.4439   15.8749 C   0  0  0  0  0  0  0  0  0  0  0  0
   -7.5906    0.6595   16.4246 C   0  0  1  0  0  0  0  0  0  0  0  0
   -8.1665   -0.0714   15.3683 O   0  0  0  0  0  0  0  0  0  0  0  0
   -7.2574   -0.3849   17.4734 C   0  0  1  0  0  0  0  0  0  0  0  0
   -7.4430    0.1293   18.7734 O   0  0  0  0  0  0  0  0  0  0  0  0
   -8.2678   -1.4801   17.1984 C   0  0  1  0  0  0  0  0  0  0  0  0
   -9.2530   -1.4384   18.2010 O   0  0  0  0  0  0  0  0  0  0  0  0
   -8.9018   -1.1670   15.8498 C   0  0  2  0  0  0  0  0  0  0  0  0
   -7.5409    4.4502   11.2226 O   0  0  0  0  0  0  0  0  0  0  0  0
   -6.0625   -5.4773   14.7842 N   0  0  0  0  0  0  0  0  0  0  0  0
   -5.9118   -4.5966   15.8372 C   0  0  0  0  0  0  0  0  0  0  0  0
   -6.7496   -3.5050   15.9666 N   0  0  0  0  0  0  0  0  0  0  0  0
   -7.7281   -3.2829   15.0572 C   0  0  0  0  0  0  0  0  0  0  0  0
   -7.9003   -4.1629   13.9959 C   0  0  0  0  0  0  0  0  0  0  0  0
   -7.0598   -5.2609   13.8582 C   0  0  0  0  0  0  0  0  0  0  0  0
   -7.2188   -6.0984   12.8363 N   0  0  0  0  0  0  0  0  0  0  0  0
   -8.9368   -3.7184   13.2532 N   0  0  0  0  0  0  0  0  0  0  0  0
   -9.4307   -2.5959   13.8266 C   0  0  0  0  0  0  0  0  0  0  0  0
   -8.6943   -2.3110   14.9461 N   0  0  0  0  0  0  0  0  0  0  0  0
  2  1  1  6  0  0  0
  2  3  1  0  0  0  0
  2  5  1  0  0  0  0
  3  4  1  0  0  0  0
  3 17  1  0  0  0  0
  5  6  1  0  0  0  0
  7  6  1  6  0  0  0
  7  8  1  0  0  0  0
  7  9  1  0  0  0  0
 10  9  1  6  0  0  0
 10 11  1  0  0  0  0
 10 12  1  0  0  0  0
 11 16  1  0  0  0  0
 12 13  1  1  0  0  0
 12 14  1  0  0  0  0
 14 15  1  1  0  0  0
 14 16  1  0  0  0  0
 16 27  1  6  0  0  0
 18 19  2  0  0  0  0
 18 23  1  0  0  0  0
 19 20  1  0  0  0  0
 20 21  2  0  0  0  0
 21 22  1  0  0  0  0
 21 27  1  0  0  0  0
 22 23  2  0  0  0  0
 22 25  1  0  0  0  0
 23 24  1  0  0  0  0
 25 26  2  0  0  0  0
 26 27  1  0  0  0  0
M  END
>  <CHROM.1>
161.94471901,-69.22099424,69.96098164,169.89052398,-169.71788991,129.16694157
91.39996303,-7.24769411,0.09480654,15.08478570,0.04108240,-1.43595239,-1.65618279

>  <Name>
ligand

>  <RI>
0

>  <Rbt.Current_Directory>
/home/itssahil/PROJECTS/Mol_Feturizer/New_Systems/rnas/3GX6

>  <Rbt.Executable>
rbdock ($Id: //depot/dev/client3/rdock/2013.1/src/exe/rbdock.cxx#4 $)

>  <Rbt.Library>
libRbt.so (2013.1, Build901 2013/11/27)

>  <Rbt.Parameter_File>
/export/apps/rDock/src/rDock_2013.1_src/data/scripts/dock_solv.prm

>  <Rbt.Receptor>
prm/blind_docking_60.prm

>  <SCORE>
-16.8211

>  <SCORE.INTER>
-10.2436

>  <SCORE.INTER.CONST>
1

>  <SCORE.INTER.POLAR>
0

>  <SCORE.INTER.ROT>
7

>  <SCORE.INTER.SOLV>
9.92713

>  <SCORE.INTER.VDW>
-18.4048

>  <SCORE.INTER.norm>
-0.379391

>  <SCORE.INTRA>
-6.57749

>  <SCORE.INTRA.DIHEDRAL>
-5.21736

>  <SCORE.INTRA.DIHEDRAL.0>
15.0182

>  <SCORE.INTRA.POLAR>
0

>  <SCORE.INTRA.POLAR.0>
0

>  <SCORE.INTRA.REPUL>
0

>  <SCORE.INTRA.REPUL.0>
0

>  <SCORE.INTRA.SOLV>
0.865906

>  <SCORE.INTRA.SOLV.lig_0>
-47.9129

>  <SCORE.INTRA.VDW>
-4.40177

>  <SCORE.INTRA.VDW.0>
2.00851

>  <SCORE.INTRA.norm>
-0.243611

>  <SCORE.RESTR>
0

>  <SCORE.RESTR.CAVITY>
0

>  <SCORE.RESTR.norm>
0

>  <SCORE.SYSTEM>
0

>  <SCORE.SYSTEM.CONST>
0

>  <SCORE.SYSTEM.DIHEDRAL>
0

>  <SCORE.SYSTEM.SOLV>
0

>  <SCORE.SYSTEM.norm>
0

>  <SCORE.heavy>
27

>  <SCORE.norm>
-0.623002

>  <RMSD>
19.379

$$$$
ligand
 OpenBabel11021811483D
libRbt.so/2013.1/901 2013/11/27
 27 29  0  0  0  0  0  0  0  0999 V2000
   -8.5152    7.3073   10.9347 N   0  0  0  0  0  0  0  0  0  0  0  0
   -7.7664    6.2768   10.2203 C   0  0  2  0  0  0  0  0  0  0  0  0
   -8.6896    5.3110    9.4821 C   0  0  0  0  0  0  0  0  0  0  0  0
   -8.4047    4.8910    8.3583 O   0  0  0  0  0  0  0  0  0  0  0  0
   -6.8255    5.5342   11.1643 C   0  0  0  0  0  0  0  0  0  0  0  0
   -7.5258    4.9661   12.3890 C   0  0  0  0  0  0  0  0  0  0  0  0
   -7.5669    3.1571   12.4351 S   0  0  2  0  0  0  0  0  0  0  0  0
   -9.3296    2.8616   12.1485 C   0  0  0  0  0  0  0  0  0  0  0  0
   -7.4418    2.8548   14.2188 C   0  0  0  0  0  0  0  0  0  0  0  0
   -8.5669    3.5882   14.9349 C   0  0  1  0  0  0  0  0  0  0  0  0
   -9.1356    2.7127   15.8791 O   0  0  0  0  0  0  0  0  0  0  0  0
   -8.1508    4.8027   15.7435 C   0  0  1  0  0  0  0  0  0  0  0  0
   -8.3243    5.9875   14.9987 O   0  0  0  0  0  0  0  0  0  0  0  0
   -9.1121    4.7793   16.9146 C   0  0  1  0  0  0  0  0  0  0  0  0
  -10.0686    5.7928   16.7253 O   0  0  0  0  0  0  0  0  0  0  0  0
   -9.8002    3.4211   16.8937 C   0  0  2  0  0  0  0  0  0  0  0  0
   -9.7436    4.9357    9.9958 O   0  0  0  0  0  0  0  0  0  0  0  0
   -9.8148   -1.1385   19.5366 N   0  0  0  0  0  0  0  0  0  0  0  0
  -10.1352   -0.9211   18.2111 C   0  0  0  0  0  0  0  0  0  0  0  0
  -10.0803    0.3511   17.6737 N   0  0  0  0  0  0  0  0  0  0  0  0
   -9.7151    1.4033   18.4441 C   0  0  0  0  0  0  0  0  0  0  0  0
   -9.3809    1.2025   19.7777 C   0  0  0  0  0  0  0  0  0  0  0  0
   -9.4365   -0.0735   20.3251 C   0  0  0  0  0  0  0  0  0  0  0  0
   -9.1256   -0.2642   21.6050 N   0  0  0  0  0  0  0  0  0  0  0  0
   -9.0510    2.4003   20.3069 N   0  0  0  0  0  0  0  0  0  0  0  0
   -9.1516    3.3432   19.3408 C   0  0  0  0  0  0  0  0  0  0  0  0
   -9.5615    2.7437   18.1793 N   0  0  0  0  0  0  0  0  0  0  0  0
  2  1  1  1  0  0  0
  2  3  1  0  0  0  0
  2  5  1  0  0  0  0
  3  4  1  0  0  0  0
  3 17  1  0  0  0  0
  5  6  1  0  0  0  0
  7  6  1  1  0  0  0
  7  8  1  0  0  0  0
  7  9  1  0  0  0  0
 10  9  1  1  0  0  0
 10 11  1  0  0  0  0
 10 12  1  0  0  0  0
 11 16  1  0  0  0  0
 12 13  1  6  0  0  0
 12 14  1  0  0  0  0
 14 15  1  6  0  0  0
 14 16  1  0  0  0  0
 16 27  1  1  0  0  0
 18 19  2  0  0  0  0
 18 23  1  0  0  0  0
 19 20  1  0  0  0  0
 20 21  2  0  0  0  0
 21 22  1  0  0  0  0
 21 27  1  0  0  0  0
 22 23  2  0  0  0  0
 22 25  1  0  0  0  0
 23 24  1  0  0  0  0
 25 26  2  0  0  0  0
 26 27  1  0  0  0  0
M  END
>  <CHROM.1>
140.37518754,53.69950510,112.98880271,-110.06121929,56.16035971,134.82607187
-49.52473830,-8.83645174,3.33363407,15.17313697,-0.14412168,1.43889705,0.60028482

>  <Name>
ligand

>  <RI>
0

>  <Rbt.Current_Directory>
/home/itssahil/PROJECTS/Mol_Feturizer/New_Systems/rnas/3GX6

>  <Rbt.Executable>
rbdock ($Id: //depot/dev/client3/rdock/2013.1/src/exe/rbdock.cxx#4 $)

>  <Rbt.Library>
libRbt.so (2013.1, Build901 2013/11/27)

>  <Rbt.Parameter_File>
/export/apps/rDock/src/rDock_2013.1_src/data/scripts/dock_solv.prm

>  <Rbt.Receptor>
prm/blind_docking_40.prm

>  <SCORE>
-12.4123

>  <SCORE.INTER>
-9.92084

>  <SCORE.INTER.CONST>
1

>  <SCORE.INTER.POLAR>
0

>  <SCORE.INTER.ROT>
7

>  <SCORE.INTER.SOLV>
17.2379

>  <SCORE.INTER.VDW>
-20.6265

>  <SCORE.INTER.norm>
-0.367439

>  <SCORE.INTRA>
-2.49147

>  <SCORE.INTRA.DIHEDRAL>
1.67865

>  <SCORE.INTRA.DIHEDRAL.0>
15.0182

>  <SCORE.INTRA.POLAR>
0

>  <SCORE.INTRA.POLAR.0>
0

>  <SCORE.INTRA.REPUL>
0

>  <SCORE.INTRA.REPUL.0>
0

>  <SCORE.INTRA.SOLV>
-0.444072

>  <SCORE.INTRA.SOLV.lig_0>
-47.9129

>  <SCORE.INTRA.VDW>
-3.10876

>  <SCORE.INTRA.VDW.0>
2.00851

>  <SCORE.INTRA.norm>
-0.0922766

>  <SCORE.RESTR>
0

>  <SCORE.RESTR.CAVITY>
0

>  <SCORE.RESTR.norm>
0

>  <SCORE.SYSTEM>
0

>  <SCORE.SYSTEM.CONST>
0

>  <SCORE.SYSTEM.DIHEDRAL>
0

>  <SCORE.SYSTEM.SOLV>
0

>  <SCORE.SYSTEM.norm>
0

>  <SCORE.heavy>
27

>  <SCORE.norm>
-0.459715

>  <RMSD>
19.502

$$$$
ligand
 OpenBabel11021811483D
libRbt.so/2013.1/901 2013/11/27
 27 29  0  0  0  0  0  0  0  0999 V2000
   -5.5023   -5.6657   11.9068 N   0  0  0  0  0  0  0  0  0  0  0  0
   -6.8325   -5.9322   12.4476 C   0  0  2  0  0  0  0  0  0  0  0  0
   -7.0232   -7.4077   12.7887 C   0  0  0  0  0  0  0  0  0  0  0  0
   -7.7900   -7.7596   13.6880 O   0  0  0  0  0  0  0  0  0  0  0  0
   -7.9168   -5.4373   11.4951 C   0  0  0  0  0  0  0  0  0  0  0  0
   -7.9952   -3.9210   11.4072 C   0  0  0  0  0  0  0  0  0  0  0  0
   -8.2092   -3.1051   13.0088 S   0  0  2  0  0  0  0  0  0  0  0  0
   -9.8498   -3.7146   13.4708 C   0  0  0  0  0  0  0  0  0  0  0  0
   -8.5941   -1.4123   12.4846 C   0  0  0  0  0  0  0  0  0  0  0  0
   -8.4811   -0.4763   13.6794 C   0  0  1  0  0  0  0  0  0  0  0  0
   -8.7816    0.8297   13.2486 O   0  0  0  0  0  0  0  0  0  0  0  0
   -9.4542   -0.7367   14.8139 C   0  0  1  0  0  0  0  0  0  0  0  0
   -8.8570   -1.5250   15.8192 O   0  0  0  0  0  0  0  0  0  0  0  0
   -9.7405    0.6533   15.3446 C   0  0  1  0  0  0  0  0  0  0  0  0
   -9.0594    0.8127   16.5647 O   0  0  0  0  0  0  0  0  0  0  0  0
   -9.1891    1.6382   14.3226 C   0  0  2  0  0  0  0  0  0  0  0  0
   -6.4078   -8.2777   12.1724 O   0  0  0  0  0  0  0  0  0  0  0  0
  -11.2088    6.5060   14.3145 N   0  0  0  0  0  0  0  0  0  0  0  0
  -10.0498    6.0656   14.9225 C   0  0  0  0  0  0  0  0  0  0  0  0
   -9.6642    4.7419   14.8260 N   0  0  0  0  0  0  0  0  0  0  0  0
  -10.4230    3.8575   14.1361 C   0  0  0  0  0  0  0  0  0  0  0  0
  -11.5879    4.2842   13.5106 C   0  0  0  0  0  0  0  0  0  0  0  0
  -11.9829    5.6130   13.6057 C   0  0  0  0  0  0  0  0  0  0  0  0
  -13.1038    6.0195   13.0145 N   0  0  0  0  0  0  0  0  0  0  0  0
  -12.1417    3.2178   12.8944 N   0  0  0  0  0  0  0  0  0  0  0  0
  -11.3500    2.1391   13.1002 C   0  0  0  0  0  0  0  0  0  0  0  0
  -10.2797    2.5167   13.8673 N   0  0  0  0  0  0  0  0  0  0  0  0
  2  1  1  6  0  0  0
  2  3  1  0  0  0  0
  2  5  1  0  0  0  0
  3  4  1  0  0  0  0
  3 17  1  0  0  0  0
  5  6  1  0  0  0  0
  7  6  1  6  0  0  0
  7  8  1  0  0  0  0
  7  9  1  0  0  0  0
 10  9  1  6  0  0  0
 10 11  1  0  0  0  0
 10 12  1  0  0  0  0
 11 16  1  0  0  0  0
 12 13  1  1  0  0  0
 12 14  1  0  0  0  0
 14 15  1  1  0  0  0
 14 16  1  0  0  0  0
 16 27  1  6  0  0  0
 18 19  2  0  0  0  0
 18 23  1  0  0  0  0
 19 20  1  0  0  0  0
 20 21  2  0  0  0  0
 21 22  1  0  0  0  0
 21 27  1  0  0  0  0
 22 23  2  0  0  0  0
 22 25  1  0  0  0  0
 23 24  1  0  0  0  0
 25 26  2  0  0  0  0
 26 27  1  0  0  0  0
M  END
>  <CHROM.1>
151.15070788,-69.68995862,-54.94794910,-65.22004199,-166.31760623,179.90800442
-136.29573154,-9.20895535,-0.52967802,13.56850833,0.79433866,1.07574392,-2.29370902

>  <Name>
ligand

>  <RI>
0

>  <Rbt.Current_Directory>
/home/itssahil/PROJECTS/Mol_Feturizer/New_Systems/rnas/3GX6

>  <Rbt.Executable>
rbdock ($Id: //depot/dev/client3/rdock/2013.1/src/exe/rbdock.cxx#4 $)

>  <Rbt.Library>
libRbt.so (2013.1, Build901 2013/11/27)

>  <Rbt.Parameter_File>
/export/apps/rDock/src/rDock_2013.1_src/data/scripts/dock_solv.prm

>  <Rbt.Receptor>
prm/blind_docking_20.prm

>  <SCORE>
-19.9965

>  <SCORE.INTER>
-10.4685

>  <SCORE.INTER.CONST>
1

>  <SCORE.INTER.POLAR>
0

>  <SCORE.INTER.ROT>
7

>  <SCORE.INTER.SOLV>
24.1812

>  <SCORE.INTER.VDW>
-23.3061

>  <SCORE.INTER.norm>
-0.387722

>  <SCORE.INTRA>
-9.52798

>  <SCORE.INTRA.DIHEDRAL>
-10.0267

>  <SCORE.INTRA.DIHEDRAL.0>
15.0182

>  <SCORE.INTRA.POLAR>
0

>  <SCORE.INTRA.POLAR.0>
0

>  <SCORE.INTRA.REPUL>
0

>  <SCORE.INTRA.REPUL.0>
0

>  <SCORE.INTRA.SOLV>
-0.375646

>  <SCORE.INTRA.SOLV.lig_0>
-47.9129

>  <SCORE.INTRA.VDW>
-4.32681

>  <SCORE.INTRA.VDW.0>
2.00851

>  <SCORE.INTRA.norm>
-0.352888

>  <SCORE.RESTR>
0

>  <SCORE.RESTR.CAVITY>
0

>  <SCORE.RESTR.norm>
0

>  <SCORE.SYSTEM>
0

>  <SCORE.SYSTEM.CONST>
0

>  <SCORE.SYSTEM.DIHEDRAL>
0

>  <SCORE.SYSTEM.SOLV>
0

>  <SCORE.SYSTEM.norm>
0

>  <SCORE.heavy>
27

>  <SCORE.norm>
-0.74061

>  <RMSD>
19.628

$$$$
ligand
 OpenBabel11021811483D
libRbt.so/2013.1/901 2013/11/27
 27 29  0  0  0  0  0  0  0  0999 V2000
   -9.9554    7.4819   10.8214 N   0  0  0  0  0  0  0  0  0  0  0  0
  -10.5043    6.2498   10.2614 C   0  0  2  0  0  0  0  0  0  0  0  0
  -10.7620    6.3715    8.7618 C   0  0  0  0  0  0  0  0  0  0  0  0
  -10.9737    7.4679    8.2389 O   0  0  0  0  0  0  0  0  0  0  0  0
  -11.7648    5.8258   11.0093 C   0  0  0  0  0  0  0  0  0  0  0  0
  -11.4883    5.3165   12.4154 C   0  0  0  0  0  0  0  0  0  0  0  0
  -10.3746    3.8907   12.4715 S   0  0  2  0  0  0  0  0  0  0  0  0
  -11.3361    2.6858   11.5227 C   0  0  0  0  0  0  0  0  0  0  0  0
  -10.6473    3.3068   14.1665 C   0  0  0  0  0  0  0  0  0  0  0  0
   -9.8648    4.1831   15.1340 C   0  0  1  0  0  0  0  0  0  0  0  0
  -10.2660    3.8631   16.4449 O   0  0  0  0  0  0  0  0  0  0  0  0
   -8.3611    3.9812   15.1359 C   0  0  1  0  0  0  0  0  0  0  0  0
   -7.7242    4.9303   14.3098 O   0  0  0  0  0  0  0  0  0  0  0  0
   -7.9861    4.2182   16.5848 C   0  0  1  0  0  0  0  0  0  0  0  0
   -7.3653    5.4763   16.6836 O   0  0  0  0  0  0  0  0  0  0  0  0
   -9.2843    4.2285   17.3806 C   0  0  2  0  0  0  0  0  0  0  0  0
  -10.7684    5.3713    8.0441 O   0  0  0  0  0  0  0  0  0  0  0  0
  -10.4372   -0.7304   18.7428 N   0  0  0  0  0  0  0  0  0  0  0  0
  -10.7036   -0.0912   17.5480 C   0  0  0  0  0  0  0  0  0  0  0  0
  -10.3310    1.2259   17.3565 N   0  0  0  0  0  0  0  0  0  0  0  0
   -9.7025    1.9086   18.3428 C   0  0  0  0  0  0  0  0  0  0  0  0
   -9.4185    1.2794   19.5486 C   0  0  0  0  0  0  0  0  0  0  0  0
   -9.7926   -0.0438   19.7488 C   0  0  0  0  0  0  0  0  0  0  0  0
   -9.5290   -0.6433   20.9073 N   0  0  0  0  0  0  0  0  0  0  0  0
   -8.7892    2.1717   20.3433 N   0  0  0  0  0  0  0  0  0  0  0  0
   -8.6547    3.3359   19.6658 C   0  0  0  0  0  0  0  0  0  0  0  0
   -9.2145    3.1915   18.4238 N   0  0  0  0  0  0  0  0  0  0  0  0
  2  1  1  1  0  0  0
  2  3  1  0  0  0  0
  2  5  1  0  0  0  0
  3  4  1  0  0  0  0
  3 17  1  0  0  0  0
  5  6  1  0  0  0  0
  7  6  1  1  0  0  0
  7  8  1  0  0  0  0
  7  9  1  0  0  0  0
 10  9  1  6  0  0  0
 10 11  1  0  0  0  0
 10 12  1  0  0  0  0
 11 16  1  0  0  0  0
 12 13  1  6  0  0  0
 12 14  1  0  0  0  0
 14 15  1  6  0  0  0
 14 16  1  0  0  0  0
 16 27  1  1  0  0  0
 18 19  2  0  0  0  0
 18 23  1  0  0  0  0
 19 20  1  0  0  0  0
 20 21  2  0  0  0  0
 21 22  1  0  0  0  0
 21 27  1  0  0  0  0
 22 23  2  0  0  0  0
 22 25  1  0  0  0  0
 23 24  1  0  0  0  0
 25 26  2  0  0  0  0
 26 27  1  0  0  0  0
M  END
>  <CHROM.1>
-25.74734356,-70.82698684,-58.85182008,-61.33211954,-78.76461781,170.07656778
17.68346040,-9.87775353,3.66381363,14.92752817,-1.77901383,0.93553629,2.20492657

>  <Name>
ligand

>  <RI>
0

>  <Rbt.Current_Directory>
/home/itssahil/PROJECTS/Mol_Feturizer/New_Systems/rnas/3GX6

>  <Rbt.Executable>
rbdock ($Id: //depot/dev/client3/rdock/2013.1/src/exe/rbdock.cxx#4 $)

>  <Rbt.Library>
libRbt.so (2013.1, Build901 2013/11/27)

>  <Rbt.Parameter_File>
/export/apps/rDock/src/rDock_2013.1_src/data/scripts/dock_solv.prm

>  <Rbt.Receptor>
prm/blind_docking_60.prm

>  <SCORE>
-15.9867

>  <SCORE.INTER>
-5.70118

>  <SCORE.INTER.CONST>
1

>  <SCORE.INTER.POLAR>
0

>  <SCORE.INTER.ROT>
7

>  <SCORE.INTER.SOLV>
14.3491

>  <SCORE.INTER.VDW>
-16.8505

>  <SCORE.INTER.norm>
-0.211155

>  <SCORE.INTRA>
-10.2855

>  <SCORE.INTRA.DIHEDRAL>
-10.5687

>  <SCORE.INTRA.DIHEDRAL.0>
15.0182

>  <SCORE.INTRA.POLAR>
0

>  <SCORE.INTRA.POLAR.0>
0

>  <SCORE.INTRA.REPUL>
0

>  <SCORE.INTRA.REPUL.0>
0

>  <SCORE.INTRA.SOLV>
-0.530067

>  <SCORE.INTRA.SOLV.lig_0>
-47.9129

>  <SCORE.INTRA.VDW>
-4.7361

>  <SCORE.INTRA.VDW.0>
2.00851

>  <SCORE.INTRA.norm>
-0.380944

>  <SCORE.RESTR>
0

>  <SCORE.RESTR.CAVITY>
0

>  <SCORE.RESTR.norm>
0

>  <SCORE.SYSTEM>
0

>  <SCORE.SYSTEM.CONST>
0

>  <SCORE.SYSTEM.DIHEDRAL>
0

>  <SCORE.SYSTEM.SOLV>
0

>  <SCORE.SYSTEM.norm>
0

>  <SCORE.heavy>
27

>  <SCORE.norm>
-0.592098

>  <RMSD>
19.637

$$$$
ligand
 OpenBabel11021811483D
libRbt.so/2013.1/901 2013/11/27
 27 29  0  0  0  0  0  0  0  0999 V2000
   -7.4733   -5.9389   16.3197 N   0  0  0  0  0  0  0  0  0  0  0  0
   -8.1558   -4.8388   15.6439 C   0  0  2  0  0  0  0  0  0  0  0  0
   -9.3576   -5.3241   14.8376 C   0  0  0  0  0  0  0  0  0  0  0  0
  -10.0203   -4.5440   14.1500 O   0  0  0  0  0  0  0  0  0  0  0  0
   -7.1844   -4.0485   14.7723 C   0  0  0  0  0  0  0  0  0  0  0  0
   -6.4605   -4.9068   13.7464 C   0  0  0  0  0  0  0  0  0  0  0  0
   -7.4834   -5.3694   12.3266 S   0  0  2  0  0  0  0  0  0  0  0  0
   -6.3540   -6.4863   11.4585 C   0  0  0  0  0  0  0  0  0  0  0  0
   -7.3564   -3.8743   11.3083 C   0  0  0  0  0  0  0  0  0  0  0  0
   -8.6135   -3.0349   11.4856 C   0  0  1  0  0  0  0  0  0  0  0  0
   -8.6353   -2.5431   12.8044 O   0  0  0  0  0  0  0  0  0  0  0  0
   -8.7056   -1.7956   10.6152 C   0  0  1  0  0  0  0  0  0  0  0  0
   -9.4622   -2.0511    9.4529 O   0  0  0  0  0  0  0  0  0  0  0  0
   -9.4343   -0.8075   11.5032 C   0  0  1  0  0  0  0  0  0  0  0  0
  -10.7560   -0.6830   11.0391 O   0  0  0  0  0  0  0  0  0  0  0  0
   -9.4422   -1.3980   12.9068 C   0  0  2  0  0  0  0  0  0  0  0  0
   -9.6922   -6.5086   14.8633 O   0  0  0  0  0  0  0  0  0  0  0  0
   -7.1853    3.3285   13.4913 N   0  0  0  0  0  0  0  0  0  0  0  0
   -7.7066    2.7697   12.3411 C   0  0  0  0  0  0  0  0  0  0  0  0
   -8.2651    1.5057   12.3638 N   0  0  0  0  0  0  0  0  0  0  0  0
   -8.3038    0.7962   13.5166 C   0  0  0  0  0  0  0  0  0  0  0  0
   -7.7919    1.3456   14.6857 C   0  0  0  0  0  0  0  0  0  0  0  0
   -7.2265    2.6148   14.6694 C   0  0  0  0  0  0  0  0  0  0  0  0
   -6.7277    3.1370   15.7873 N   0  0  0  0  0  0  0  0  0  0  0  0
   -7.9617    0.4435   15.6762 N   0  0  0  0  0  0  0  0  0  0  0  0
   -8.5802   -0.6477   15.1670 C   0  0  0  0  0  0  0  0  0  0  0  0
   -8.8005   -0.4470   13.8299 N   0  0  0  0  0  0  0  0  0  0  0  0
  2  1  1  6  0  0  0
  2  3  1  0  0  0  0
  2  5  1  0  0  0  0
  3  4  1  0  0  0  0
  3 17  1  0  0  0  0
  5  6  1  0  0  0  0
  7  6  1  1  0  0  0
  7  8  1  0  0  0  0
  7  9  1  0  0  0  0
 10  9  1  6  0  0  0
 10 11  1  0  0  0  0
 10 12  1  0  0  0  0
 11 16  1  0  0  0  0
 12 13  1  6  0  0  0
 12 14  1  0  0  0  0
 14 15  1  6  0  0  0
 14 16  1  0  0  0  0
 16 27  1  1  0  0  0
 18 19  2  0  0  0  0
 18 23  1  0  0  0  0
 19 20  1  0  0  0  0
 20 21  2  0  0  0  0
 21 22  1  0  0  0  0
 21 27  1  0  0  0  0
 22 23  2  0  0  0  0
 22 25  1  0  0  0  0
 23 24  1  0  0  0  0
 25 26  2  0  0  0  0
 26 27  1  0  0  0  0
M  END
>  <CHROM.1>
-176.65568055,56.23165797,75.91816346,-174.53430382,-100.67188444,67.45747154
114.97985741,-8.25545523,-2.09645428,13.27167439,-1.64368848,-1.33876229
-0.04571782

>  <Name>
ligand

>  <RI>
0

>  <Rbt.Current_Directory>
/home/itssahil/PROJECTS/Mol_Feturizer/New_Systems/rnas/3GX6

>  <Rbt.Executable>
rbdock ($Id: //depot/dev/client3/rdock/2013.1/src/exe/rbdock.cxx#4 $)

>  <Rbt.Library>
libRbt.so (2013.1, Build901 2013/11/27)

>  <Rbt.Parameter_File>
/export/apps/rDock/src/rDock_2013.1_src/data/scripts/dock_solv.prm

>  <Rbt.Receptor>
prm/blind_docking_80.prm

>  <SCORE>
-18.8381

>  <SCORE.INTER>
-9.69173

>  <SCORE.INTER.CONST>
1

>  <SCORE.INTER.POLAR>
0

>  <SCORE.INTER.ROT>
7

>  <SCORE.INTER.SOLV>
7.60783

>  <SCORE.INTER.VDW>
-17.2638

>  <SCORE.INTER.norm>
-0.358953

>  <SCORE.INTRA>
-9.14636

>  <SCORE.INTRA.DIHEDRAL>
-7.71098

>  <SCORE.INTRA.DIHEDRAL.0>
15.0182

>  <SCORE.INTRA.POLAR>
0

>  <SCORE.INTRA.POLAR.0>
0

>  <SCORE.INTRA.REPUL>
0

>  <SCORE.INTRA.REPUL.0>
0

>  <SCORE.INTRA.SOLV>
-0.192607

>  <SCORE.INTRA.SOLV.lig_0>
-47.9129

>  <SCORE.INTRA.VDW>
-5.19456

>  <SCORE.INTRA.VDW.0>
2.00851

>  <SCORE.INTRA.norm>
-0.338754

>  <SCORE.RESTR>
0

>  <SCORE.RESTR.CAVITY>
0

>  <SCORE.RESTR.norm>
0

>  <SCORE.SYSTEM>
0

>  <SCORE.SYSTEM.CONST>
0

>  <SCORE.SYSTEM.DIHEDRAL>
0

>  <SCORE.SYSTEM.SOLV>
0

>  <SCORE.SYSTEM.norm>
0

>  <SCORE.heavy>
27

>  <SCORE.norm>
-0.697707

>  <RMSD>
19.712

$$$$
ligand
 OpenBabel11021811483D
libRbt.so/2013.1/901 2013/11/27
 27 29  0  0  0  0  0  0  0  0999 V2000
   -9.2527   -0.0325   11.7118 N   0  0  0  0  0  0  0  0  0  0  0  0
  -10.0081   -0.0308   12.9617 C   0  0  2  0  0  0  0  0  0  0  0  0
   -9.3458   -0.8990   14.0283 C   0  0  0  0  0  0  0  0  0  0  0  0
   -9.3453   -0.5614   15.2142 O   0  0  0  0  0  0  0  0  0  0  0  0
  -11.4557   -0.4504   12.7237 C   0  0  0  0  0  0  0  0  0  0  0  0
  -12.2491    0.5589   11.9083 C   0  0  0  0  0  0  0  0  0  0  0  0
  -12.5440    2.1243   12.7678 S   0  0  2  0  0  0  0  0  0  0  0  0
  -13.6100    2.9616   11.5681 C   0  0  0  0  0  0  0  0  0  0  0  0
  -10.9648    2.9720   12.4917 C   0  0  0  0  0  0  0  0  0  0  0  0
  -11.0506    4.3894   13.0395 C   0  0  1  0  0  0  0  0  0  0  0  0
  -10.8626    4.3374   14.4336 O   0  0  0  0  0  0  0  0  0  0  0  0
   -9.9853    5.3509   12.5470 C   0  0  1  0  0  0  0  0  0  0  0  0
  -10.4600    6.1160   11.4617 O   0  0  0  0  0  0  0  0  0  0  0  0
   -9.7486    6.2434   13.7483 C   0  0  1  0  0  0  0  0  0  0  0  0
  -10.3501    7.4905   13.5014 O   0  0  0  0  0  0  0  0  0  0  0  0
  -10.4309    5.5764   14.9350 C   0  0  2  0  0  0  0  0  0  0  0  0
   -8.7927   -1.9552   13.7215 O   0  0  0  0  0  0  0  0  0  0  0  0
   -9.5682    4.5943   20.0405 N   0  0  0  0  0  0  0  0  0  0  0  0
  -10.7789    4.7623   19.3980 C   0  0  0  0  0  0  0  0  0  0  0  0
  -10.8253    5.0187   18.0407 N   0  0  0  0  0  0  0  0  0  0  0  0
   -9.6805    5.1131   17.3235 C   0  0  0  0  0  0  0  0  0  0  0  0
   -8.4534    4.9384   17.9512 C   0  0  0  0  0  0  0  0  0  0  0  0
   -8.3993    4.6830   19.3160 C   0  0  0  0  0  0  0  0  0  0  0  0
   -7.2234    4.5252   19.9189 N   0  0  0  0  0  0  0  0  0  0  0  0
   -7.4874    5.0742   17.0174 N   0  0  0  0  0  0  0  0  0  0  0  0
   -8.0726    5.3114   15.8200 C   0  0  0  0  0  0  0  0  0  0  0  0
   -9.4317    5.3385   15.9902 N   0  0  0  0  0  0  0  0  0  0  0  0
  2  1  1  6  0  0  0
  2  3  1  0  0  0  0
  2  5  1  0  0  0  0
  3  4  1  0  0  0  0
  3 17  1  0  0  0  0
  5  6  1  0  0  0  0
  7  6  1  6  0  0  0
  7  8  1  0  0  0  0
  7  9  1  0  0  0  0
 10  9  1  6  0  0  0
 10 11  1  0  0  0  0
 10 12  1  0  0  0  0
 11 16  1  0  0  0  0
 12 13  1  6  0  0  0
 12 14  1  0  0  0  0
 14 15  1  6  0  0  0
 14 16  1  0  0  0  0
 16 27  1  1  0  0  0
 18 19  2  0  0  0  0
 18 23  1  0  0  0  0
 19 20  1  0  0  0  0
 20 21  2  0  0  0  0
 21 22  1  0  0  0  0
 21 27  1  0  0  0  0
 22 23  2  0  0  0  0
 22 25  1  0  0  0  0
 23 24  1  0  0  0  0
 25 26  2  0  0  0  0
 26 27  1  0  0  0  0
M  END
>  <CHROM.1>
142.53290861,-67.40046419,-67.78769981,-175.13690129,174.83038223,79.96781289
-86.46336762,-10.16380557,3.36486160,14.75124966,-2.29591986,-1.13745217
0.22326550

>  <Name>
ligand

>  <RI>
0

>  <Rbt.Current_Directory>
/home/itssahil/PROJECTS/Mol_Feturizer/New_Systems/rnas/3GX6

>  <Rbt.Executable>
rbdock ($Id: //depot/dev/client3/rdock/2013.1/src/exe/rbdock.cxx#4 $)

>  <Rbt.Library>
libRbt.so (2013.1, Build901 2013/11/27)

>  <Rbt.Parameter_File>
/export/apps/rDock/src/rDock_2013.1_src/data/scripts/dock_solv.prm

>  <Rbt.Receptor>
prm/blind_docking_100.prm

>  <SCORE>
-19.8094

>  <SCORE.INTER>
-10.8873

>  <SCORE.INTER.CONST>
1

>  <SCORE.INTER.POLAR>
0

>  <SCORE.INTER.ROT>
7

>  <SCORE.INTER.SOLV>
9.03534

>  <SCORE.INTER.VDW>
-18.5367

>  <SCORE.INTER.norm>
-0.403235

>  <SCORE.INTRA>
-8.92206

>  <SCORE.INTRA.DIHEDRAL>
-9.51109

>  <SCORE.INTRA.DIHEDRAL.0>
15.0182

>  <SCORE.INTRA.POLAR>
0

>  <SCORE.INTRA.POLAR.0>
0

>  <SCORE.INTRA.REPUL>
0

>  <SCORE.INTRA.REPUL.0>
0

>  <SCORE.INTRA.SOLV>
0.0591903

>  <SCORE.INTRA.SOLV.lig_0>
-47.9129

>  <SCORE.INTRA.VDW>
-4.19611

>  <SCORE.INTRA.VDW.0>
2.00851

>  <SCORE.INTRA.norm>
-0.330447

>  <SCORE.RESTR>
0

>  <SCORE.RESTR.CAVITY>
0

>  <SCORE.RESTR.norm>
0

>  <SCORE.SYSTEM>
0

>  <SCORE.SYSTEM.CONST>
0

>  <SCORE.SYSTEM.DIHEDRAL>
0

>  <SCORE.SYSTEM.SOLV>
0

>  <SCORE.SYSTEM.norm>
0

>  <SCORE.heavy>
27

>  <SCORE.norm>
-0.733682

>  <RMSD>
19.782

$$$$
ligand
 OpenBabel11021811483D
libRbt.so/2013.1/901 2013/11/27
 27 29  0  0  0  0  0  0  0  0999 V2000
   -9.5306    8.0573    9.6357 N   0  0  0  0  0  0  0  0  0  0  0  0
  -10.1281    7.0584   10.5177 C   0  0  2  0  0  0  0  0  0  0  0  0
  -11.3237    6.3672    9.8675 C   0  0  0  0  0  0  0  0  0  0  0  0
  -12.0356    5.5901   10.5075 O   0  0  0  0  0  0  0  0  0  0  0  0
  -10.5057    7.6746   11.8615 C   0  0  0  0  0  0  0  0  0  0  0  0
  -10.7999    6.6404   12.9371 C   0  0  0  0  0  0  0  0  0  0  0  0
   -9.3262    5.7968   13.5639 S   0  0  2  0  0  0  0  0  0  0  0  0
   -9.0327    4.6122   12.2271 C   0  0  0  0  0  0  0  0  0  0  0  0
  -10.0554    4.7263   14.8330 C   0  0  0  0  0  0  0  0  0  0  0  0
   -9.0003    3.7530   15.3389 C   0  0  1  0  0  0  0  0  0  0  0  0
   -8.0411    4.4799   16.0691 O   0  0  0  0  0  0  0  0  0  0  0  0
   -9.4927    2.6930   16.3064 C   0  0  1  0  0  0  0  0  0  0  0  0
   -9.7776    1.4880   15.6315 O   0  0  0  0  0  0  0  0  0  0  0  0
   -8.3105    2.5019   17.2348 C   0  0  1  0  0  0  0  0  0  0  0  0
   -7.6881    1.2815   16.9171 O   0  0  0  0  0  0  0  0  0  0  0  0
   -7.3467    3.6493   16.9641 C   0  0  2  0  0  0  0  0  0  0  0  0
  -11.5973    6.5700    8.6844 O   0  0  0  0  0  0  0  0  0  0  0  0
   -5.6971    3.4340   21.9648 N   0  0  0  0  0  0  0  0  0  0  0  0
   -5.7511    2.4092   21.0407 C   0  0  0  0  0  0  0  0  0  0  0  0
   -6.2178    2.6405   19.7604 N   0  0  0  0  0  0  0  0  0  0  0  0
   -6.6331    3.8773   19.3974 C   0  0  0  0  0  0  0  0  0  0  0  0
   -6.5780    4.9226   20.3111 C   0  0  0  0  0  0  0  0  0  0  0  0
   -6.1125    4.6965   21.6007 C   0  0  0  0  0  0  0  0  0  0  0  0
   -6.0687    5.6957   22.4786 N   0  0  0  0  0  0  0  0  0  0  0  0
   -7.0377    6.0341   19.6972 N   0  0  0  0  0  0  0  0  0  0  0  0
   -7.3630    5.7210   18.4210 C   0  0  0  0  0  0  0  0  0  0  0  0
   -7.1184    4.3886   18.2170 N   0  0  0  0  0  0  0  0  0  0  0  0
  2  1  1  6  0  0  0
  2  3  1  0  0  0  0
  2  5  1  0  0  0  0
  3  4  1  0  0  0  0
  3 17  1  0  0  0  0
  5  6  1  0  0  0  0
  7  6  1  6  0  0  0
  7  8  1  0  0  0  0
  7  9  1  0  0  0  0
 10  9  1  1  0  0  0
 10 11  1  0  0  0  0
 10 12  1  0  0  0  0
 11 16  1  0  0  0  0
 12 13  1  6  0  0  0
 12 14  1  0  0  0  0
 14 15  1  6  0  0  0
 14 16  1  0  0  0  0
 16 27  1  1  0  0  0
 18 19  2  0  0  0  0
 18 23  1  0  0  0  0
 19 20  1  0  0  0  0
 20 21  2  0  0  0  0
 21 22  1  0  0  0  0
 21 27  1  0  0  0  0
 22 23  2  0  0  0  0
 22 25  1  0  0  0  0
 23 24  1  0  0  0  0
 25 26  2  0  0  0  0
 26 27  1  0  0  0  0
M  END
>  <CHROM.1>
-172.76361550,-165.39368282,73.04759949,-78.33090725,170.86617415,69.06091988
170.82229391,-8.57294488,4.73558845,15.74861796,-2.68468957,1.12060772,2.90242660

>  <Name>
ligand

>  <RI>
0

>  <Rbt.Current_Directory>
/home/itssahil/PROJECTS/Mol_Feturizer/New_Systems/rnas/3GX6

>  <Rbt.Executable>
rbdock ($Id: //depot/dev/client3/rdock/2013.1/src/exe/rbdock.cxx#4 $)

>  <Rbt.Library>
libRbt.so (2013.1, Build901 2013/11/27)

>  <Rbt.Parameter_File>
/export/apps/rDock/src/rDock_2013.1_src/data/scripts/dock_solv.prm

>  <Rbt.Receptor>
prm/blind_docking_60.prm

>  <SCORE>
-16.4302

>  <SCORE.INTER>
-7.06028

>  <SCORE.INTER.CONST>
1

>  <SCORE.INTER.POLAR>
0

>  <SCORE.INTER.ROT>
7

>  <SCORE.INTER.SOLV>
6.78973

>  <SCORE.INTER.VDW>
-15.2368

>  <SCORE.INTER.norm>
-0.261492

>  <SCORE.INTRA>
-9.36988

>  <SCORE.INTRA.DIHEDRAL>
-9.84074

>  <SCORE.INTRA.DIHEDRAL.0>
15.0182

>  <SCORE.INTRA.POLAR>
0

>  <SCORE.INTRA.POLAR.0>
0

>  <SCORE.INTRA.REPUL>
0

>  <SCORE.INTRA.REPUL.0>
0

>  <SCORE.INTRA.SOLV>
-1.3054

>  <SCORE.INTRA.SOLV.lig_0>
-47.9129

>  <SCORE.INTRA.VDW>
-3.79681

>  <SCORE.INTRA.VDW.0>
2.00851

>  <SCORE.INTRA.norm>
-0.347032

>  <SCORE.RESTR>
0

>  <SCORE.RESTR.CAVITY>
0

>  <SCORE.RESTR.norm>
0

>  <SCORE.SYSTEM>
0

>  <SCORE.SYSTEM.CONST>
0

>  <SCORE.SYSTEM.DIHEDRAL>
0

>  <SCORE.SYSTEM.SOLV>
0

>  <SCORE.SYSTEM.norm>
0

>  <SCORE.heavy>
27

>  <SCORE.norm>
-0.608524

>  <RMSD>
19.837

$$$$
ligand
 OpenBabel11021811483D
libRbt.so/2013.1/901 2013/11/27
 27 29  0  0  0  0  0  0  0  0999 V2000
   -8.5543    0.2541   17.4163 N   0  0  0  0  0  0  0  0  0  0  0  0
   -8.2906    0.0431   15.9954 C   0  0  2  0  0  0  0  0  0  0  0  0
   -7.3524    1.1044   15.4268 C   0  0  0  0  0  0  0  0  0  0  0  0
   -6.1401    1.0678   15.6490 O   0  0  0  0  0  0  0  0  0  0  0  0
   -9.5934   -0.0284   15.2046 C   0  0  0  0  0  0  0  0  0  0  0  0
   -9.4829   -0.8590   13.9354 C   0  0  0  0  0  0  0  0  0  0  0  0
   -8.4551   -0.1017   12.6522 S   0  0  2  0  0  0  0  0  0  0  0  0
   -9.4860    1.3159   12.2004 C   0  0  0  0  0  0  0  0  0  0  0  0
   -8.7617   -1.2217   11.2594 C   0  0  0  0  0  0  0  0  0  0  0  0
   -7.7604   -2.3671   11.3032 C   0  0  1  0  0  0  0  0  0  0  0  0
   -7.7412   -2.8885   12.6107 O   0  0  0  0  0  0  0  0  0  0  0  0
   -8.0850   -3.5591   10.4225 C   0  0  1  0  0  0  0  0  0  0  0  0
   -7.4048   -3.4751    9.1901 O   0  0  0  0  0  0  0  0  0  0  0  0
   -7.5608   -4.7313   11.2268 C   0  0  1  0  0  0  0  0  0  0  0  0
   -6.3709   -5.1842   10.6294 O   0  0  0  0  0  0  0  0  0  0  0  0
   -7.2601   -4.2081   12.6248 C   0  0  2  0  0  0  0  0  0  0  0  0
   -7.7921    2.0240   14.7364 O   0  0  0  0  0  0  0  0  0  0  0  0
   -8.7719   -8.9883   14.2493 N   0  0  0  0  0  0  0  0  0  0  0  0
   -7.9557   -8.6699   13.1818 C   0  0  0  0  0  0  0  0  0  0  0  0
   -7.6596   -7.3515   12.8915 N   0  0  0  0  0  0  0  0  0  0  0  0
   -8.1716   -6.3531   13.6498 C   0  0  0  0  0  0  0  0  0  0  0  0
   -8.9878   -6.6546   14.7330 C   0  0  0  0  0  0  0  0  0  0  0  0
   -9.2917   -7.9779   15.0289 C   0  0  0  0  0  0  0  0  0  0  0  0
  -10.0812   -8.2660   16.0608 N   0  0  0  0  0  0  0  0  0  0  0  0
   -9.3505   -5.4913   15.3149 N   0  0  0  0  0  0  0  0  0  0  0  0
   -8.7723   -4.4704   14.6396 C   0  0  0  0  0  0  0  0  0  0  0  0
   -8.0374   -4.9855   13.6046 N   0  0  0  0  0  0  0  0  0  0  0  0
  2  1  1  1  0  0  0
  2  3  1  0  0  0  0
  2  5  1  0  0  0  0
  3  4  1  0  0  0  0
  3 17  1  0  0  0  0
  5  6  1  0  0  0  0
  7  6  1  1  0  0  0
  7  8  1  0  0  0  0
  7  9  1  0  0  0  0
 10  9  1  1  0  0  0
 10 11  1  0  0  0  0
 10 12  1  0  0  0  0
 11 16  1  0  0  0  0
 12 13  1  6  0  0  0
 12 14  1  0  0  0  0
 14 15  1  6  0  0  0
 14 16  1  0  0  0  0
 16 27  1  1  0  0  0
 18 19  2  0  0  0  0
 18 23  1  0  0  0  0
 19 20  1  0  0  0  0
 20 21  2  0  0  0  0
 21 22  1  0  0  0  0
 21 27  1  0  0  0  0
 22 23  2  0  0  0  0
 22 25  1  0  0  0  0
 23 24  1  0  0  0  0
 25 26  2  0  0  0  0
 26 27  1  0  0  0  0
M  END
>  <CHROM.1>
76.44529252,-152.75485836,-69.27940223,-68.19609427,-88.46739172,48.68960593
159.13149306,-8.24893915,-3.14000365,13.46750600,1.41930852,1.35089887,0.23008799

>  <Name>
ligand

>  <RI>
0

>  <Rbt.Current_Directory>
/home/itssahil/PROJECTS/Mol_Feturizer/New_Systems/rnas/3GX6

>  <Rbt.Executable>
rbdock ($Id: //depot/dev/client3/rdock/2013.1/src/exe/rbdock.cxx#4 $)

>  <Rbt.Library>
libRbt.so (2013.1, Build901 2013/11/27)

>  <Rbt.Parameter_File>
/export/apps/rDock/src/rDock_2013.1_src/data/scripts/dock_solv.prm

>  <Rbt.Receptor>
prm/blind_docking_80.prm

>  <SCORE>
-22.2883

>  <SCORE.INTER>
-13.4878

>  <SCORE.INTER.CONST>
1

>  <SCORE.INTER.POLAR>
0

>  <SCORE.INTER.ROT>
7

>  <SCORE.INTER.SOLV>
12.5442

>  <SCORE.INTER.VDW>
-21.4399

>  <SCORE.INTER.norm>
-0.499547

>  <SCORE.INTRA>
-8.80057

>  <SCORE.INTRA.DIHEDRAL>
-7.58425

>  <SCORE.INTRA.DIHEDRAL.0>
15.0182

>  <SCORE.INTRA.POLAR>
0

>  <SCORE.INTRA.POLAR.0>
0

>  <SCORE.INTRA.REPUL>
0

>  <SCORE.INTRA.REPUL.0>
0

>  <SCORE.INTRA.SOLV>
-1.50937

>  <SCORE.INTRA.SOLV.lig_0>
-47.9129

>  <SCORE.INTRA.VDW>
-4.25376

>  <SCORE.INTRA.VDW.0>
2.00851

>  <SCORE.INTRA.norm>
-0.325947

>  <SCORE.RESTR>
0

>  <SCORE.RESTR.CAVITY>
0

>  <SCORE.RESTR.norm>
0

>  <SCORE.SYSTEM>
0

>  <SCORE.SYSTEM.CONST>
0

>  <SCORE.SYSTEM.DIHEDRAL>
0

>  <SCORE.SYSTEM.SOLV>
0

>  <SCORE.SYSTEM.norm>
0

>  <SCORE.heavy>
27

>  <SCORE.norm>
-0.825494

>  <RMSD>
19.854

$$$$
ligand
 OpenBabel11021811483D
libRbt.so/2013.1/901 2013/11/27
 27 29  0  0  0  0  0  0  0  0999 V2000
   -9.4315   -0.5969   20.2616 N   0  0  0  0  0  0  0  0  0  0  0  0
   -9.1042   -0.7281   18.8443 C   0  0  2  0  0  0  0  0  0  0  0  0
   -7.7848   -0.0427   18.4989 C   0  0  0  0  0  0  0  0  0  0  0  0
   -7.2735   -0.1704   17.3842 O   0  0  0  0  0  0  0  0  0  0  0  0
  -10.2442   -0.2109   17.9721 C   0  0  0  0  0  0  0  0  0  0  0  0
  -10.7739    1.1445   18.4143 C   0  0  0  0  0  0  0  0  0  0  0  0
   -9.5452    2.4713   18.3362 S   0  0  2  0  0  0  0  0  0  0  0  0
  -10.5905    3.9075   18.6844 C   0  0  0  0  0  0  0  0  0  0  0  0
   -9.3169    2.6248   16.5437 C   0  0  0  0  0  0  0  0  0  0  0  0
   -7.8297    2.6983   16.2291 C   0  0  1  0  0  0  0  0  0  0  0  0
   -7.6733    2.7138   14.8301 O   0  0  0  0  0  0  0  0  0  0  0  0
   -7.1172    3.9500   16.7059 C   0  0  1  0  0  0  0  0  0  0  0  0
   -6.4866    3.7288   17.9477 O   0  0  0  0  0  0  0  0  0  0  0  0
   -6.0771    4.1827   15.6288 C   0  0  1  0  0  0  0  0  0  0  0  0
   -4.8189    3.8154   16.1386 O   0  0  0  0  0  0  0  0  0  0  0  0
   -6.4381    3.2725   14.4627 C   0  0  2  0  0  0  0  0  0  0  0  0
   -7.2014    0.6495   19.3332 O   0  0  0  0  0  0  0  0  0  0  0  0
   -9.4961    6.7465   11.9417 N   0  0  0  0  0  0  0  0  0  0  0  0
   -9.7015    6.1725   13.1807 C   0  0  0  0  0  0  0  0  0  0  0  0
   -8.7915    5.2693   13.6971 N   0  0  0  0  0  0  0  0  0  0  0  0
   -7.6869    4.9321   12.9900 C   0  0  0  0  0  0  0  0  0  0  0  0
   -7.4592    5.5060   11.7453 C   0  0  0  0  0  0  0  0  0  0  0  0
   -8.3712    6.4127   11.2190 C   0  0  0  0  0  0  0  0  0  0  0  0
   -8.1577    6.9550   10.0226 N   0  0  0  0  0  0  0  0  0  0  0  0
   -6.2986    5.0089   11.2660 N   0  0  0  0  0  0  0  0  0  0  0  0
   -5.7832    4.1539   12.1804 C   0  0  0  0  0  0  0  0  0  0  0  0
   -6.6298    4.0940   13.2557 N   0  0  0  0  0  0  0  0  0  0  0  0
  2  1  1  1  0  0  0
  2  3  1  0  0  0  0
  2  5  1  0  0  0  0
  3  4  1  0  0  0  0
  3 17  1  0  0  0  0
  5  6  1  0  0  0  0
  7  6  1  6  0  0  0
  7  8  1  0  0  0  0
  7  9  1  0  0  0  0
 10  9  1  6  0  0  0
 10 11  1  0  0  0  0
 10 12  1  0  0  0  0
 11 16  1  0  0  0  0
 12 13  1  1  0  0  0
 12 14  1  0  0  0  0
 14 15  1  1  0  0  0
 14 16  1  0  0  0  0
 16 27  1  6  0  0  0
 18 19  2  0  0  0  0
 18 23  1  0  0  0  0
 19 20  1  0  0  0  0
 20 21  2  0  0  0  0
 21 22  1  0  0  0  0
 21 27  1  0  0  0  0
 22 23  2  0  0  0  0
 22 25  1  0  0  0  0
 23 24  1  0  0  0  0
 25 26  2  0  0  0  0
 26 27  1  0  0  0  0
M  END
>  <CHROM.1>
172.07344242,47.30784372,62.00666969,172.04701309,-134.10428398,175.57057675
40.62117817,-8.06304485,3.18818506,15.70956596,1.72358934,-0.22241362,2.23421869

>  <Name>
ligand

>  <RI>
0

>  <Rbt.Current_Directory>
/home/itssahil/PROJECTS/Mol_Feturizer/New_Systems/rnas/3GX6

>  <Rbt.Executable>
rbdock ($Id: //depot/dev/client3/rdock/2013.1/src/exe/rbdock.cxx#4 $)

>  <Rbt.Library>
libRbt.so (2013.1, Build901 2013/11/27)

>  <Rbt.Parameter_File>
/export/apps/rDock/src/rDock_2013.1_src/data/scripts/dock_solv.prm

>  <Rbt.Receptor>
prm/blind_docking_40.prm

>  <SCORE>
-21.0123

>  <SCORE.INTER>
-11.3797

>  <SCORE.INTER.CONST>
1

>  <SCORE.INTER.POLAR>
0

>  <SCORE.INTER.ROT>
7

>  <SCORE.INTER.SOLV>
13.2816

>  <SCORE.INTER.VDW>
-20.2803

>  <SCORE.INTER.norm>
-0.42147

>  <SCORE.INTRA>
-9.63258

>  <SCORE.INTRA.DIHEDRAL>
-6.84936

>  <SCORE.INTRA.DIHEDRAL.0>
15.0182

>  <SCORE.INTRA.POLAR>
0

>  <SCORE.INTRA.POLAR.0>
0

>  <SCORE.INTRA.REPUL>
0

>  <SCORE.INTRA.REPUL.0>
0

>  <SCORE.INTRA.SOLV>
0.0963676

>  <SCORE.INTRA.SOLV.lig_0>
-47.9129

>  <SCORE.INTRA.VDW>
-6.25608

>  <SCORE.INTRA.VDW.0>
2.00851

>  <SCORE.INTRA.norm>
-0.356762

>  <SCORE.RESTR>
0

>  <SCORE.RESTR.CAVITY>
0

>  <SCORE.RESTR.norm>
0

>  <SCORE.SYSTEM>
0

>  <SCORE.SYSTEM.CONST>
0

>  <SCORE.SYSTEM.DIHEDRAL>
0

>  <SCORE.SYSTEM.SOLV>
0

>  <SCORE.SYSTEM.norm>
0

>  <SCORE.heavy>
27

>  <SCORE.norm>
-0.778232

>  <RMSD>
19.955

$$$$
ligand
 OpenBabel11021811483D
libRbt.so/2013.1/901 2013/11/27
 27 29  0  0  0  0  0  0  0  0999 V2000
   -9.5043    7.7129    9.1732 N   0  0  0  0  0  0  0  0  0  0  0  0
   -8.8153    7.0341   10.2675 C   0  0  2  0  0  0  0  0  0  0  0  0
   -7.7340    6.0849    9.7576 C   0  0  0  0  0  0  0  0  0  0  0  0
   -6.6789    5.9301   10.3766 O   0  0  0  0  0  0  0  0  0  0  0  0
   -9.8090    6.3104   11.1711 C   0  0  0  0  0  0  0  0  0  0  0  0
   -9.2522    5.9996   12.5518 C   0  0  0  0  0  0  0  0  0  0  0  0
  -10.2835    4.8700   13.5196 S   0  0  2  0  0  0  0  0  0  0  0  0
  -11.8738    5.7314   13.4440 C   0  0  0  0  0  0  0  0  0  0  0  0
   -9.7439    5.2684   15.2044 C   0  0  0  0  0  0  0  0  0  0  0  0
   -8.3712    4.6595   15.4517 C   0  0  1  0  0  0  0  0  0  0  0  0
   -7.9092    5.1034   16.7051 O   0  0  0  0  0  0  0  0  0  0  0  0
   -8.3297    3.1457   15.5446 C   0  0  1  0  0  0  0  0  0  0  0  0
   -7.9733    2.5743   14.3056 O   0  0  0  0  0  0  0  0  0  0  0  0
   -7.2384    2.8956   16.5656 C   0  0  1  0  0  0  0  0  0  0  0  0
   -6.0937    2.4363   15.8898 O   0  0  0  0  0  0  0  0  0  0  0  0
   -6.9360    4.2342   17.2253 C   0  0  2  0  0  0  0  0  0  0  0  0
   -7.8944    5.4572    8.7108 O   0  0  0  0  0  0  0  0  0  0  0  0
   -6.0771    6.3215   21.9877 N   0  0  0  0  0  0  0  0  0  0  0  0
   -5.6746    6.8074   20.7594 C   0  0  0  0  0  0  0  0  0  0  0  0
   -5.9855    6.1267   19.5974 N   0  0  0  0  0  0  0  0  0  0  0  0
   -6.6866    4.9693   19.6501 C   0  0  0  0  0  0  0  0  0  0  0  0
   -7.1074    4.4695   20.8763 C   0  0  0  0  0  0  0  0  0  0  0  0
   -6.7960    5.1474   22.0487 C   0  0  0  0  0  0  0  0  0  0  0  0
   -7.1909    4.6635   23.2238 N   0  0  0  0  0  0  0  0  0  0  0  0
   -7.7840    3.3236   20.6465 N   0  0  0  0  0  0  0  0  0  0  0  0
   -7.8149    3.0991   19.3118 C   0  0  0  0  0  0  0  0  0  0  0  0
   -7.1402    4.1091   18.6782 N   0  0  0  0  0  0  0  0  0  0  0  0
  2  1  1  6  0  0  0
  2  3  1  0  0  0  0
  2  5  1  0  0  0  0
  3  4  1  0  0  0  0
  3 17  1  0  0  0  0
  5  6  1  0  0  0  0
  7  6  1  6  0  0  0
  7  8  1  0  0  0  0
  7  9  1  0  0  0  0
 10  9  1  1  0  0  0
 10 11  1  0  0  0  0
 10 12  1  0  0  0  0
 11 16  1  0  0  0  0
 12 13  1  6  0  0  0
 12 14  1  0  0  0  0
 14 15  1  6  0  0  0
 14 16  1  0  0  0  0
 16 27  1  1  0  0  0
 18 19  2  0  0  0  0
 18 23  1  0  0  0  0
 19 20  1  0  0  0  0
 20 21  2  0  0  0  0
 21 22  1  0  0  0  0
 21 27  1  0  0  0  0
 22 23  2  0  0  0  0
 22 25  1  0  0  0  0
 23 24  1  0  0  0  0
 25 26  2  0  0  0  0
 26 27  1  0  0  0  0
M  END
>  <CHROM.1>
144.34292159,-160.10872745,-168.74492026,-53.88684314,-74.95885313,173.57170591
-83.22655834,-8.01236976,4.96441821,15.75832405,-2.86066550,1.35291887,2.97184814

>  <Name>
ligand

>  <RI>
0

>  <Rbt.Current_Directory>
/home/itssahil/PROJECTS/Mol_Feturizer/New_Systems/rnas/3GX6

>  <Rbt.Executable>
rbdock ($Id: //depot/dev/client3/rdock/2013.1/src/exe/rbdock.cxx#4 $)

>  <Rbt.Library>
libRbt.so (2013.1, Build901 2013/11/27)

>  <Rbt.Parameter_File>
/export/apps/rDock/src/rDock_2013.1_src/data/scripts/dock_solv.prm

>  <Rbt.Receptor>
prm/blind_docking_80.prm

>  <SCORE>
-17.6561

>  <SCORE.INTER>
-8.85556

>  <SCORE.INTER.CONST>
1

>  <SCORE.INTER.POLAR>
0

>  <SCORE.INTER.ROT>
7

>  <SCORE.INTER.SOLV>
4.82118

>  <SCORE.INTER.VDW>
-15.7774

>  <SCORE.INTER.norm>
-0.327984

>  <SCORE.INTRA>
-8.80054

>  <SCORE.INTRA.DIHEDRAL>
-9.12404

>  <SCORE.INTRA.DIHEDRAL.0>
15.0182

>  <SCORE.INTRA.POLAR>
0

>  <SCORE.INTRA.POLAR.0>
0

>  <SCORE.INTRA.REPUL>
0

>  <SCORE.INTRA.REPUL.0>
0

>  <SCORE.INTRA.SOLV>
-1.65875

>  <SCORE.INTRA.SOLV.lig_0>
-47.9129

>  <SCORE.INTRA.VDW>
-3.40915

>  <SCORE.INTRA.VDW.0>
2.00851

>  <SCORE.INTRA.norm>
-0.325946

>  <SCORE.RESTR>
0

>  <SCORE.RESTR.CAVITY>
0

>  <SCORE.RESTR.norm>
0

>  <SCORE.SYSTEM>
0

>  <SCORE.SYSTEM.CONST>
0

>  <SCORE.SYSTEM.DIHEDRAL>
0

>  <SCORE.SYSTEM.SOLV>
0

>  <SCORE.SYSTEM.norm>
0

>  <SCORE.heavy>
27

>  <SCORE.norm>
-0.65393

>  <RMSD>
20.166

$$$$
ligand
 OpenBabel11021811483D
libRbt.so/2013.1/901 2013/11/27
 27 29  0  0  0  0  0  0  0  0999 V2000
   -8.4237    1.3356   19.5930 N   0  0  0  0  0  0  0  0  0  0  0  0
   -9.3793    0.6184   18.7531 C   0  0  2  0  0  0  0  0  0  0  0  0
   -9.8322   -0.6899   19.3957 C   0  0  0  0  0  0  0  0  0  0  0  0
   -9.8769   -0.8155   20.6216 O   0  0  0  0  0  0  0  0  0  0  0  0
   -8.8090    0.3839   17.3576 C   0  0  0  0  0  0  0  0  0  0  0  0
   -8.4259    1.6687   16.6396 C   0  0  0  0  0  0  0  0  0  0  0  0
   -7.7608    1.4074   14.9766 S   0  0  2  0  0  0  0  0  0  0  0  0
   -7.5040    3.1210   14.4529 C   0  0  0  0  0  0  0  0  0  0  0  0
   -9.2691    0.9800   14.0652 C   0  0  0  0  0  0  0  0  0  0  0  0
   -8.8965    0.5000   12.6698 C   0  0  1  0  0  0  0  0  0  0  0  0
   -8.0765   -0.6371   12.7970 O   0  0  0  0  0  0  0  0  0  0  0  0
  -10.0525    0.0408   11.8012 C   0  0  1  0  0  0  0  0  0  0  0  0
  -10.4851    1.0775   10.9487 O   0  0  0  0  0  0  0  0  0  0  0  0
   -9.4431   -1.0820   10.9865 C   0  0  1  0  0  0  0  0  0  0  0  0
   -9.2315   -0.6169    9.6763 O   0  0  0  0  0  0  0  0  0  0  0  0
   -8.1039   -1.4170   11.6291 C   0  0  2  0  0  0  0  0  0  0  0  0
  -10.1581   -1.6506   18.6981 O   0  0  0  0  0  0  0  0  0  0  0  0
   -5.7548   -6.1049   11.0992 N   0  0  0  0  0  0  0  0  0  0  0  0
   -5.4054   -4.9055   10.5106 C   0  0  0  0  0  0  0  0  0  0  0  0
   -6.1388   -3.7605   10.7583 N   0  0  0  0  0  0  0  0  0  0  0  0
   -7.2146   -3.8022   11.5798 C   0  0  0  0  0  0  0  0  0  0  0  0
   -7.5760   -4.9981   12.1877 C   0  0  0  0  0  0  0  0  0  0  0  0
   -6.8448   -6.1537   11.9410 C   0  0  0  0  0  0  0  0  0  0  0  0
   -7.1969   -7.3011   12.5159 N   0  0  0  0  0  0  0  0  0  0  0  0
   -8.6643   -4.7621   12.9516 N   0  0  0  0  0  0  0  0  0  0  0  0
   -8.9855   -3.4506   12.8547 C   0  0  0  0  0  0  0  0  0  0  0  0
   -8.0976   -2.8397   12.0090 N   0  0  0  0  0  0  0  0  0  0  0  0
  2  1  1  1  0  0  0
  2  3  1  0  0  0  0
  2  5  1  0  0  0  0
  3  4  1  0  0  0  0
  3 17  1  0  0  0  0
  5  6  1  0  0  0  0
  7  6  1  1  0  0  0
  7  8  1  0  0  0  0
  7  9  1  0  0  0  0
 10  9  1  1  0  0  0
 10 11  1  0  0  0  0
 10 12  1  0  0  0  0
 11 16  1  0  0  0  0
 12 13  1  6  0  0  0
 12 14  1  0  0  0  0
 14 15  1  6  0  0  0
 14 16  1  0  0  0  0
 16 27  1  1  0  0  0
 18 19  2  0  0  0  0
 18 23  1  0  0  0  0
 19 20  1  0  0  0  0
 20 21  2  0  0  0  0
 21 22  1  0  0  0  0
 21 27  1  0  0  0  0
 22 23  2  0  0  0  0
 22 25  1  0  0  0  0
 23 24  1  0  0  0  0
 25 26  2  0  0  0  0
 26 27  1  0  0  0  0
M  END
>  <CHROM.1>
29.61698454,-58.39643772,-179.50249187,177.74561677,-170.99400925,60.29418078
-125.74082308,-8.36850259,-1.38743139,13.93691640,-2.59596920,1.32470282
-1.20074636

>  <Name>
ligand

>  <RI>
0

>  <Rbt.Current_Directory>
/home/itssahil/PROJECTS/Mol_Feturizer/New_Systems/rnas/3GX6

>  <Rbt.Executable>
rbdock ($Id: //depot/dev/client3/rdock/2013.1/src/exe/rbdock.cxx#4 $)

>  <Rbt.Library>
libRbt.so (2013.1, Build901 2013/11/27)

>  <Rbt.Parameter_File>
/export/apps/rDock/src/rDock_2013.1_src/data/scripts/dock_solv.prm

>  <Rbt.Receptor>
prm/blind_docking_80.prm

>  <SCORE>
-21.2834

>  <SCORE.INTER>
-11.6372

>  <SCORE.INTER.CONST>
1

>  <SCORE.INTER.POLAR>
0

>  <SCORE.INTER.ROT>
7

>  <SCORE.INTER.SOLV>
12.4423

>  <SCORE.INTER.VDW>
-20.1722

>  <SCORE.INTER.norm>
-0.431006

>  <SCORE.INTRA>
-9.64619

>  <SCORE.INTRA.DIHEDRAL>
-10.8713

>  <SCORE.INTRA.DIHEDRAL.0>
15.0182

>  <SCORE.INTRA.POLAR>
0

>  <SCORE.INTRA.POLAR.0>
0

>  <SCORE.INTRA.REPUL>
0

>  <SCORE.INTRA.REPUL.0>
0

>  <SCORE.INTRA.SOLV>
-1.1709

>  <SCORE.INTRA.SOLV.lig_0>
-47.9129

>  <SCORE.INTRA.VDW>
-3.62511

>  <SCORE.INTRA.VDW.0>
2.00851

>  <SCORE.INTRA.norm>
-0.357266

>  <SCORE.RESTR>
0

>  <SCORE.RESTR.CAVITY>
0

>  <SCORE.RESTR.norm>
0

>  <SCORE.SYSTEM>
0

>  <SCORE.SYSTEM.CONST>
0

>  <SCORE.SYSTEM.DIHEDRAL>
0

>  <SCORE.SYSTEM.SOLV>
0

>  <SCORE.SYSTEM.norm>
0

>  <SCORE.heavy>
27

>  <SCORE.norm>
-0.788273

>  <RMSD>
20.220

$$$$
ligand
 OpenBabel11021811483D
libRbt.so/2013.1/901 2013/11/27
 27 29  0  0  0  0  0  0  0  0999 V2000
   -7.6034   -8.2138   13.4280 N   0  0  0  0  0  0  0  0  0  0  0  0
   -7.3536   -6.7974   13.1742 C   0  0  2  0  0  0  0  0  0  0  0  0
   -6.5162   -6.5835   11.9160 C   0  0  0  0  0  0  0  0  0  0  0  0
   -5.3352   -6.2365   11.9884 O   0  0  0  0  0  0  0  0  0  0  0  0
   -6.7129   -6.1313   14.3882 C   0  0  0  0  0  0  0  0  0  0  0  0
   -6.6288   -4.6174   14.2703 C   0  0  0  0  0  0  0  0  0  0  0  0
   -8.0765   -3.7508   14.9257 S   0  0  2  0  0  0  0  0  0  0  0  0
   -8.2382   -4.5558   16.5389 C   0  0  0  0  0  0  0  0  0  0  0  0
   -9.4095   -4.5525   13.9937 C   0  0  0  0  0  0  0  0  0  0  0  0
   -9.6945   -3.7519   12.7311 C   0  0  1  0  0  0  0  0  0  0  0  0
  -10.0002   -2.4296   13.1048 O   0  0  0  0  0  0  0  0  0  0  0  0
   -8.5347   -3.6156   11.7624 C   0  0  1  0  0  0  0  0  0  0  0  0
   -8.6124   -4.5873   10.7434 O   0  0  0  0  0  0  0  0  0  0  0  0
   -8.7379   -2.2323   11.1783 C   0  0  1  0  0  0  0  0  0  0  0  0
   -9.2299   -2.3705    9.8681 O   0  0  0  0  0  0  0  0  0  0  0  0
   -9.7817   -1.5375   12.0422 C   0  0  2  0  0  0  0  0  0  0  0  0
   -7.0088   -6.7495   10.8000 O   0  0  0  0  0  0  0  0  0  0  0  0
   -9.3748    3.6940   11.5504 N   0  0  0  0  0  0  0  0  0  0  0  0
  -10.0865    2.8164   10.7564 C   0  0  0  0  0  0  0  0  0  0  0  0
  -10.0830    1.4612   11.0277 N   0  0  0  0  0  0  0  0  0  0  0  0
   -9.3759    0.9758   12.0757 C   0  0  0  0  0  0  0  0  0  0  0  0
   -8.6607    1.8446   12.8907 C   0  0  0  0  0  0  0  0  0  0  0  0
   -8.6577    3.2080   12.6221 C   0  0  0  0  0  0  0  0  0  0  0  0
   -7.9650    4.0388   13.3973 N   0  0  0  0  0  0  0  0  0  0  0  0
   -8.0607    1.1108   13.8525 N   0  0  0  0  0  0  0  0  0  0  0  0
   -8.3921   -0.1897   13.6753 C   0  0  0  0  0  0  0  0  0  0  0  0
   -9.2071   -0.2925   12.5791 N   0  0  0  0  0  0  0  0  0  0  0  0
  2  1  1  1  0  0  0
  2  3  1  0  0  0  0
  2  5  1  0  0  0  0
  3  4  1  0  0  0  0
  3 17  1  0  0  0  0
  5  6  1  0  0  0  0
  7  6  1  6  0  0  0
  7  8  1  0  0  0  0
  7  9  1  0  0  0  0
 10  9  1  1  0  0  0
 10 11  1  0  0  0  0
 10 12  1  0  0  0  0
 11 16  1  0  0  0  0
 12 13  1  6  0  0  0
 12 14  1  0  0  0  0
 14 15  1  6  0  0  0
 14 16  1  0  0  0  0
 16 27  1  1  0  0  0
 18 19  2  0  0  0  0
 18 23  1  0  0  0  0
 19 20  1  0  0  0  0
 20 21  2  0  0  0  0
 21 22  1  0  0  0  0
 21 27  1  0  0  0  0
 22 23  2  0  0  0  0
 22 25  1  0  0  0  0
 23 24  1  0  0  0  0
 25 26  2  0  0  0  0
 26 27  1  0  0  0  0
M  END
>  <CHROM.1>
-107.11922331,-170.91287715,90.07304849,49.00550906,-92.36341864,-56.33990758
-149.15010090,-8.38261700,-2.42013825,12.73764893,-0.58330984,-1.31497576
0.86673421

>  <Name>
ligand

>  <RI>
0

>  <Rbt.Current_Directory>
/home/itssahil/PROJECTS/Mol_Feturizer/New_Systems/rnas/3GX6

>  <Rbt.Executable>
rbdock ($Id: //depot/dev/client3/rdock/2013.1/src/exe/rbdock.cxx#4 $)

>  <Rbt.Library>
libRbt.so (2013.1, Build901 2013/11/27)

>  <Rbt.Parameter_File>
/export/apps/rDock/src/rDock_2013.1_src/data/scripts/dock_solv.prm

>  <Rbt.Receptor>
prm/blind_docking_20.prm

>  <SCORE>
-14.6481

>  <SCORE.INTER>
-6.7343

>  <SCORE.INTER.CONST>
1

>  <SCORE.INTER.POLAR>
0

>  <SCORE.INTER.ROT>
7

>  <SCORE.INTER.SOLV>
12.7594

>  <SCORE.INTER.VDW>
-17.0093

>  <SCORE.INTER.norm>
-0.249418

>  <SCORE.INTRA>
-7.91379

>  <SCORE.INTRA.DIHEDRAL>
-7.20744

>  <SCORE.INTRA.DIHEDRAL.0>
15.0182

>  <SCORE.INTRA.POLAR>
0

>  <SCORE.INTRA.POLAR.0>
0

>  <SCORE.INTRA.REPUL>
0

>  <SCORE.INTRA.REPUL.0>
0

>  <SCORE.INTRA.SOLV>
-0.615036

>  <SCORE.INTRA.SOLV.lig_0>
-47.9129

>  <SCORE.INTRA.VDW>
-4.00255

>  <SCORE.INTRA.VDW.0>
2.00851

>  <SCORE.INTRA.norm>
-0.293103

>  <SCORE.RESTR>
0

>  <SCORE.RESTR.CAVITY>
0

>  <SCORE.RESTR.norm>
0

>  <SCORE.SYSTEM>
0

>  <SCORE.SYSTEM.CONST>
0

>  <SCORE.SYSTEM.DIHEDRAL>
0

>  <SCORE.SYSTEM.SOLV>
0

>  <SCORE.SYSTEM.norm>
0

>  <SCORE.heavy>
27

>  <SCORE.norm>
-0.542522

>  <RMSD>
20.233

$$$$
ligand
 OpenBabel11021811483D
libRbt.so/2013.1/901 2013/11/27
 27 29  0  0  0  0  0  0  0  0999 V2000
  -10.0706    6.1969    9.9553 N   0  0  0  0  0  0  0  0  0  0  0  0
  -10.4469    7.4032   10.6876 C   0  0  2  0  0  0  0  0  0  0  0  0
   -9.5370    8.5813   10.3498 C   0  0  0  0  0  0  0  0  0  0  0  0
   -9.9793    9.5881    9.7921 O   0  0  0  0  0  0  0  0  0  0  0  0
  -10.4803    7.1399   12.1901 C   0  0  0  0  0  0  0  0  0  0  0  0
  -11.6056    6.2086   12.6136 C   0  0  0  0  0  0  0  0  0  0  0  0
  -11.3937    4.5014   12.0507 S   0  0  2  0  0  0  0  0  0  0  0  0
  -13.0945    3.8972   12.1877 C   0  0  0  0  0  0  0  0  0  0  0  0
  -10.6306    3.7483   13.5133 C   0  0  0  0  0  0  0  0  0  0  0  0
   -9.9226    2.4636   13.1078 C   0  0  1  0  0  0  0  0  0  0  0  0
   -9.1638    2.0113   14.2039 O   0  0  0  0  0  0  0  0  0  0  0  0
  -10.8264    1.2950   12.7620 C   0  0  1  0  0  0  0  0  0  0  0  0
  -11.0291    1.2097   11.3691 O   0  0  0  0  0  0  0  0  0  0  0  0
  -10.0361    0.0965   13.2467 C   0  0  1  0  0  0  0  0  0  0  0  0
   -9.5024   -0.5668   12.1273 O   0  0  0  0  0  0  0  0  0  0  0  0
   -8.9010    0.6349   14.1070 C   0  0  2  0  0  0  0  0  0  0  0  0
   -8.3375    8.5454   10.6247 O   0  0  0  0  0  0  0  0  0  0  0  0
  -10.4237    1.2756   19.1116 N   0  0  0  0  0  0  0  0  0  0  0  0
  -10.5318    2.1721   18.0668 C   0  0  0  0  0  0  0  0  0  0  0  0
  -10.0747    1.8405   16.8053 N   0  0  0  0  0  0  0  0  0  0  0  0
   -9.5096    0.6308   16.5793 C   0  0  0  0  0  0  0  0  0  0  0  0
   -9.4001   -0.2874   17.6163 C   0  0  0  0  0  0  0  0  0  0  0  0
   -9.8551    0.0404   18.8877 C   0  0  0  0  0  0  0  0  0  0  0  0
   -9.7415   -0.8355   19.8831 N   0  0  0  0  0  0  0  0  0  0  0  0
   -8.8146   -1.4003   17.1242 N   0  0  0  0  0  0  0  0  0  0  0  0
   -8.5696   -1.2141   15.8059 C   0  0  0  0  0  0  0  0  0  0  0  0
   -8.9941    0.0389   15.4504 N   0  0  0  0  0  0  0  0  0  0  0  0
  2  1  1  6  0  0  0
  2  3  1  0  0  0  0
  2  5  1  0  0  0  0
  3  4  1  0  0  0  0
  3 17  1  0  0  0  0
  5  6  1  0  0  0  0
  7  6  1  1  0  0  0
  7  8  1  0  0  0  0
  7  9  1  0  0  0  0
 10  9  1  1  0  0  0
 10 11  1  0  0  0  0
 10 12  1  0  0  0  0
 11 16  1  0  0  0  0
 12 13  1  6  0  0  0
 12 14  1  0  0  0  0
 14 15  1  6  0  0  0
 14 16  1  0  0  0  0
 16 27  1  1  0  0  0
 18 19  2  0  0  0  0
 18 23  1  0  0  0  0
 19 20  1  0  0  0  0
 20 21  2  0  0  0  0
 21 22  1  0  0  0  0
 21 27  1  0  0  0  0
 22 23  2  0  0  0  0
 22 25  1  0  0  0  0
 23 24  1  0  0  0  0
 25 26  2  0  0  0  0
 26 27  1  0  0  0  0
M  END
>  <CHROM.1>
115.93036433,-68.31585127,68.61436176,-160.41469563,-160.01833028,170.75417470
12.24880421,-10.10683918,2.94336104,13.87123791,2.98382565,-1.49883265,0.69938635

>  <Name>
ligand

>  <RI>
0

>  <Rbt.Current_Directory>
/home/itssahil/PROJECTS/Mol_Feturizer/New_Systems/rnas/3GX6

>  <Rbt.Executable>
rbdock ($Id: //depot/dev/client3/rdock/2013.1/src/exe/rbdock.cxx#4 $)

>  <Rbt.Library>
libRbt.so (2013.1, Build901 2013/11/27)

>  <Rbt.Parameter_File>
/export/apps/rDock/src/rDock_2013.1_src/data/scripts/dock_solv.prm

>  <Rbt.Receptor>
prm/blind_docking_80.prm

>  <SCORE>
-20.0875

>  <SCORE.INTER>
-11.8574

>  <SCORE.INTER.CONST>
1

>  <SCORE.INTER.POLAR>
0

>  <SCORE.INTER.ROT>
7

>  <SCORE.INTER.SOLV>
11.3578

>  <SCORE.INTER.VDW>
-19.9575

>  <SCORE.INTER.norm>
-0.439161

>  <SCORE.INTRA>
-8.23011

>  <SCORE.INTRA.DIHEDRAL>
-7.05472

>  <SCORE.INTRA.DIHEDRAL.0>
15.0182

>  <SCORE.INTRA.POLAR>
0

>  <SCORE.INTRA.POLAR.0>
0

>  <SCORE.INTRA.REPUL>
0

>  <SCORE.INTRA.REPUL.0>
0

>  <SCORE.INTRA.SOLV>
0.778274

>  <SCORE.INTRA.SOLV.lig_0>
-47.9129

>  <SCORE.INTRA.VDW>
-5.09189

>  <SCORE.INTRA.VDW.0>
2.00851

>  <SCORE.INTRA.norm>
-0.304819

>  <SCORE.RESTR>
0

>  <SCORE.RESTR.CAVITY>
0

>  <SCORE.RESTR.norm>
0

>  <SCORE.SYSTEM>
0

>  <SCORE.SYSTEM.CONST>
0

>  <SCORE.SYSTEM.DIHEDRAL>
0

>  <SCORE.SYSTEM.SOLV>
0

>  <SCORE.SYSTEM.norm>
0

>  <SCORE.heavy>
27

>  <SCORE.norm>
-0.74398

>  <RMSD>
20.323

$$$$
ligand
 OpenBabel11021811483D
libRbt.so/2013.1/901 2013/11/27
 27 29  0  0  0  0  0  0  0  0999 V2000
  -10.0489    7.2639   10.3529 N   0  0  0  0  0  0  0  0  0  0  0  0
   -8.6628    6.9860    9.9862 C   0  0  2  0  0  0  0  0  0  0  0  0
   -8.5688    6.0610    8.7755 C   0  0  0  0  0  0  0  0  0  0  0  0
   -7.5009    5.5316    8.4599 O   0  0  0  0  0  0  0  0  0  0  0  0
   -7.8868    6.4263   11.1746 C   0  0  0  0  0  0  0  0  0  0  0  0
   -8.3909    5.0683   11.6378 C   0  0  0  0  0  0  0  0  0  0  0  0
   -7.5894    4.4649   13.1444 S   0  0  2  0  0  0  0  0  0  0  0  0
   -5.9806    3.9648   12.4824 C   0  0  0  0  0  0  0  0  0  0  0  0
   -8.4043    2.8578   13.3485 C   0  0  0  0  0  0  0  0  0  0  0  0
   -8.2338    2.3846   14.7849 C   0  0  1  0  0  0  0  0  0  0  0  0
   -8.9368    1.1748   14.9389 O   0  0  0  0  0  0  0  0  0  0  0  0
   -6.8135    2.0562   15.2055 C   0  0  1  0  0  0  0  0  0  0  0  0
   -6.2173    3.1509   15.8649 O   0  0  0  0  0  0  0  0  0  0  0  0
   -7.0010    0.9056   16.1734 C   0  0  1  0  0  0  0  0  0  0  0  0
   -6.7982    1.3855   17.4797 O   0  0  0  0  0  0  0  0  0  0  0  0
   -8.4407    0.4330   16.0237 C   0  0  2  0  0  0  0  0  0  0  0  0
   -9.5617    5.8296    8.0854 O   0  0  0  0  0  0  0  0  0  0  0  0
   -8.1474   -4.5432   17.7345 N   0  0  0  0  0  0  0  0  0  0  0  0
   -8.1049   -3.3819   18.4806 C   0  0  0  0  0  0  0  0  0  0  0  0
   -8.1935   -2.1472   17.8658 N   0  0  0  0  0  0  0  0  0  0  0  0
   -8.3187   -2.0612   16.5201 C   0  0  0  0  0  0  0  0  0  0  0  0
   -8.3718   -3.2191   15.7539 C   0  0  0  0  0  0  0  0  0  0  0  0
   -8.2806   -4.4636   16.3653 C   0  0  0  0  0  0  0  0  0  0  0  0
   -8.3219   -5.5723   15.6303 N   0  0  0  0  0  0  0  0  0  0  0  0
   -8.5050   -2.8542   14.4605 N   0  0  0  0  0  0  0  0  0  0  0  0
   -8.5544   -1.5029   14.3945 C   0  0  0  0  0  0  0  0  0  0  0  0
   -8.4410   -0.9943   15.6615 N   0  0  0  0  0  0  0  0  0  0  0  0
  2  1  1  1  0  0  0
  2  3  1  0  0  0  0
  2  5  1  0  0  0  0
  3  4  1  0  0  0  0
  3 17  1  0  0  0  0
  5  6  1  0  0  0  0
  7  6  1  6  0  0  0
  7  8  1  0  0  0  0
  7  9  1  0  0  0  0
 10  9  1  6  0  0  0
 10 11  1  0  0  0  0
 10 12  1  0  0  0  0
 11 16  1  0  0  0  0
 12 13  1  1  0  0  0
 12 14  1  0  0  0  0
 14 15  1  1  0  0  0
 14 16  1  0  0  0  0
 16 27  1  6  0  0  0
 18 19  2  0  0  0  0
 18 23  1  0  0  0  0
 19 20  1  0  0  0  0
 20 21  2  0  0  0  0
 21 22  1  0  0  0  0
 21 27  1  0  0  0  0
 22 23  2  0  0  0  0
 22 25  1  0  0  0  0
 23 24  1  0  0  0  0
 25 26  2  0  0  0  0
 26 27  1  0  0  0  0
M  END
>  <CHROM.1>
-167.39507857,64.99872488,-174.32834179,-75.01559953,-161.00126139,176.73456016
-164.47578486,-8.04325165,1.57948740,13.99201377,1.62562642,-1.17476923,-0.57600320

>  <Name>
ligand

>  <RI>
0

>  <Rbt.Current_Directory>
/home/itssahil/PROJECTS/Mol_Feturizer/New_Systems/rnas/3GX6

>  <Rbt.Executable>
rbdock ($Id: //depot/dev/client3/rdock/2013.1/src/exe/rbdock.cxx#4 $)

>  <Rbt.Library>
libRbt.so (2013.1, Build901 2013/11/27)

>  <Rbt.Parameter_File>
/export/apps/rDock/src/rDock_2013.1_src/data/scripts/dock_solv.prm

>  <Rbt.Receptor>
prm/blind_docking_40.prm

>  <SCORE>
-16.8463

>  <SCORE.INTER>
-7.58319

>  <SCORE.INTER.CONST>
1

>  <SCORE.INTER.POLAR>
0

>  <SCORE.INTER.ROT>
7

>  <SCORE.INTER.SOLV>
7.34887

>  <SCORE.INTER.VDW>
-15.7718

>  <SCORE.INTER.norm>
-0.280859

>  <SCORE.INTRA>
-9.2631

>  <SCORE.INTRA.DIHEDRAL>
-9.58671

>  <SCORE.INTRA.DIHEDRAL.0>
15.0182

>  <SCORE.INTRA.POLAR>
0

>  <SCORE.INTRA.POLAR.0>
0

>  <SCORE.INTRA.REPUL>
0

>  <SCORE.INTRA.REPUL.0>
0

>  <SCORE.INTRA.SOLV>
-0.957099

>  <SCORE.INTRA.SOLV.lig_0>
-47.9129

>  <SCORE.INTRA.VDW>
-3.9912

>  <SCORE.INTRA.VDW.0>
2.00851

>  <SCORE.INTRA.norm>
-0.343078

>  <SCORE.RESTR>
0

>  <SCORE.RESTR.CAVITY>
0

>  <SCORE.RESTR.norm>
0

>  <SCORE.SYSTEM>
0

>  <SCORE.SYSTEM.CONST>
0

>  <SCORE.SYSTEM.DIHEDRAL>
0

>  <SCORE.SYSTEM.SOLV>
0

>  <SCORE.SYSTEM.norm>
0

>  <SCORE.heavy>
27

>  <SCORE.norm>
-0.623937

>  <RMSD>
20.367

$$$$
ligand
 OpenBabel11021811483D
libRbt.so/2013.1/901 2013/11/27
 27 29  0  0  0  0  0  0  0  0999 V2000
  -11.7666    5.0239   12.7038 N   0  0  0  0  0  0  0  0  0  0  0  0
  -11.2651    6.3951   12.7398 C   0  0  2  0  0  0  0  0  0  0  0  0
  -11.3428    7.0658   11.3708 C   0  0  0  0  0  0  0  0  0  0  0  0
  -11.7481    6.4504   10.3822 O   0  0  0  0  0  0  0  0  0  0  0  0
   -9.8474    6.4418   13.3019 C   0  0  0  0  0  0  0  0  0  0  0  0
   -9.7972    6.3424   14.8187 C   0  0  0  0  0  0  0  0  0  0  0  0
  -10.1645    4.6887   15.4563 S   0  0  2  0  0  0  0  0  0  0  0  0
   -9.8097    4.9289   17.2150 C   0  0  0  0  0  0  0  0  0  0  0  0
   -8.6920    3.7770   14.9185 C   0  0  0  0  0  0  0  0  0  0  0  0
   -8.7303    2.3701   15.4977 C   0  0  1  0  0  0  0  0  0  0  0  0
   -9.9160    1.7458   15.0664 O   0  0  0  0  0  0  0  0  0  0  0  0
   -7.6221    1.4400   15.0410 C   0  0  1  0  0  0  0  0  0  0  0  0
   -6.5656    1.4183   15.9747 O   0  0  0  0  0  0  0  0  0  0  0  0
   -8.3060    0.0885   14.9983 C   0  0  1  0  0  0  0  0  0  0  0  0
   -7.8704   -0.6656   16.1026 O   0  0  0  0  0  0  0  0  0  0  0  0
   -9.8019    0.3468   15.1179 C   0  0  2  0  0  0  0  0  0  0  0  0
  -10.9954    8.2381   11.2270 O   0  0  0  0  0  0  0  0  0  0  0  0
  -10.5663   -3.9239   12.1258 N   0  0  0  0  0  0  0  0  0  0  0  0
   -9.7707   -3.8010   13.2478 C   0  0  0  0  0  0  0  0  0  0  0  0
   -9.6815   -2.5957   13.9183 N   0  0  0  0  0  0  0  0  0  0  0  0
  -10.3716   -1.5165   13.4790 C   0  0  0  0  0  0  0  0  0  0  0  0
  -11.1839   -1.6234   12.3569 C   0  0  0  0  0  0  0  0  0  0  0  0
  -11.2761   -2.8315   11.6764 C   0  0  0  0  0  0  0  0  0  0  0  0
  -12.0468   -2.9311   10.5960 N   0  0  0  0  0  0  0  0  0  0  0  0
  -11.7560   -0.4190   12.1434 N   0  0  0  0  0  0  0  0  0  0  0  0
  -11.3405    0.4351   13.1080 C   0  0  0  0  0  0  0  0  0  0  0  0
  -10.4822   -0.2278   13.9451 N   0  0  0  0  0  0  0  0  0  0  0  0
  2  1  1  6  0  0  0
  2  3  1  0  0  0  0
  2  5  1  0  0  0  0
  3  4  1  0  0  0  0
  3 17  1  0  0  0  0
  5  6  1  0  0  0  0
  7  6  1  6  0  0  0
  7  8  1  0  0  0  0
  7  9  1  0  0  0  0
 10  9  1  6  0  0  0
 10 11  1  0  0  0  0
 10 12  1  0  0  0  0
 11 16  1  0  0  0  0
 12 13  1  1  0  0  0
 12 14  1  0  0  0  0
 14 15  1  1  0  0  0
 14 16  1  0  0  0  0
 16 27  1  6  0  0  0
 18 19  2  0  0  0  0
 18 23  1  0  0  0  0
 19 20  1  0  0  0  0
 20 21  2  0  0  0  0
 21 22  1  0  0  0  0
 21 27  1  0  0  0  0
 22 23  2  0  0  0  0
 22 25  1  0  0  0  0
 23 24  1  0  0  0  0
 25 26  2  0  0  0  0
 26 27  1  0  0  0  0
M  END
>  <CHROM.1>
-2.31036153,-78.78488299,72.90309465,173.39335624,173.73504092,58.01870667
165.73235144,-10.07345777,1.97730544,13.76589645,1.64520274,-0.96169638,0.07091911

>  <Name>
ligand

>  <RI>
0

>  <Rbt.Current_Directory>
/home/itssahil/PROJECTS/Mol_Feturizer/New_Systems/rnas/3GX6

>  <Rbt.Executable>
rbdock ($Id: //depot/dev/client3/rdock/2013.1/src/exe/rbdock.cxx#4 $)

>  <Rbt.Library>
libRbt.so (2013.1, Build901 2013/11/27)

>  <Rbt.Parameter_File>
/export/apps/rDock/src/rDock_2013.1_src/data/scripts/dock_solv.prm

>  <Rbt.Receptor>
prm/blind_docking_80.prm

>  <SCORE>
-20.4494

>  <SCORE.INTER>
-11.3288

>  <SCORE.INTER.CONST>
1

>  <SCORE.INTER.POLAR>
0

>  <SCORE.INTER.ROT>
7

>  <SCORE.INTER.SOLV>
10.7605

>  <SCORE.INTER.VDW>
-19.406

>  <SCORE.INTER.norm>
-0.419585

>  <SCORE.INTRA>
-9.12058

>  <SCORE.INTRA.DIHEDRAL>
-9.86669

>  <SCORE.INTRA.DIHEDRAL.0>
15.0182

>  <SCORE.INTRA.POLAR>
0

>  <SCORE.INTRA.POLAR.0>
0

>  <SCORE.INTRA.REPUL>
0.000531141

>  <SCORE.INTRA.REPUL.0>
0

>  <SCORE.INTRA.SOLV>
0.34826

>  <SCORE.INTRA.SOLV.lig_0>
-47.9129

>  <SCORE.INTRA.VDW>
-4.36402

>  <SCORE.INTRA.VDW.0>
2.00851

>  <SCORE.INTRA.norm>
-0.337799

>  <SCORE.RESTR>
0

>  <SCORE.RESTR.CAVITY>
0

>  <SCORE.RESTR.norm>
0

>  <SCORE.SYSTEM>
0

>  <SCORE.SYSTEM.CONST>
0

>  <SCORE.SYSTEM.DIHEDRAL>
0

>  <SCORE.SYSTEM.SOLV>
0

>  <SCORE.SYSTEM.norm>
0

>  <SCORE.heavy>
27

>  <SCORE.norm>
-0.757384

>  <RMSD>
20.367

$$$$
ligand
 OpenBabel11021811483D
libRbt.so/2013.1/901 2013/11/27
 27 29  0  0  0  0  0  0  0  0999 V2000
   -9.7521   -2.8820   10.9920 N   0  0  0  0  0  0  0  0  0  0  0  0
   -8.4013   -2.3427   10.8600 C   0  0  2  0  0  0  0  0  0  0  0  0
   -7.3397   -3.4344   10.9647 C   0  0  0  0  0  0  0  0  0  0  0  0
   -7.0859   -3.9746   12.0436 O   0  0  0  0  0  0  0  0  0  0  0  0
   -8.1572   -1.2308   11.8759 C   0  0  0  0  0  0  0  0  0  0  0  0
   -8.9516    0.0337   11.5876 C   0  0  0  0  0  0  0  0  0  0  0  0
   -8.5515    1.4157   12.6860 S   0  0  2  0  0  0  0  0  0  0  0  0
   -9.6199    1.0338   14.0963 C   0  0  0  0  0  0  0  0  0  0  0  0
   -9.4742    2.7621   11.8960 C   0  0  0  0  0  0  0  0  0  0  0  0
   -8.8456    4.0951   12.2758 C   0  0  1  0  0  0  0  0  0  0  0  0
   -9.0591    4.3097   13.6506 O   0  0  0  0  0  0  0  0  0  0  0  0
   -7.3407    4.1854   12.1053 C   0  0  1  0  0  0  0  0  0  0  0  0
   -7.0082    4.7787   10.8700 O   0  0  0  0  0  0  0  0  0  0  0  0
   -6.9210    5.0899   13.2462 C   0  0  1  0  0  0  0  0  0  0  0  0
   -6.6050    6.3545   12.7182 O   0  0  0  0  0  0  0  0  0  0  0  0
   -8.1206    5.2131   14.1760 C   0  0  2  0  0  0  0  0  0  0  0  0
   -6.7105   -3.7938    9.9694 O   0  0  0  0  0  0  0  0  0  0  0  0
   -9.6580    4.3268   19.1385 N   0  0  0  0  0  0  0  0  0  0  0  0
  -10.4150    4.7957   18.0829 C   0  0  0  0  0  0  0  0  0  0  0  0
   -9.8477    4.9745   16.8354 N   0  0  0  0  0  0  0  0  0  0  0  0
   -8.5379    4.6957   16.6338 C   0  0  0  0  0  0  0  0  0  0  0  0
   -7.7627    4.2149   17.6818 C   0  0  0  0  0  0  0  0  0  0  0  0
   -8.3259    4.0353   18.9394 C   0  0  0  0  0  0  0  0  0  0  0  0
   -7.5809    3.5839   19.9455 N   0  0  0  0  0  0  0  0  0  0  0  0
   -6.5120    4.0141   17.2138 N   0  0  0  0  0  0  0  0  0  0  0  0
   -6.4841    4.3380   15.8996 C   0  0  0  0  0  0  0  0  0  0  0  0
   -7.7309    4.7620   15.5226 N   0  0  0  0  0  0  0  0  0  0  0  0
  2  1  1  1  0  0  0
  2  3  1  0  0  0  0
  2  5  1  0  0  0  0
  3  4  1  0  0  0  0
  3 17  1  0  0  0  0
  5  6  1  0  0  0  0
  7  6  1  6  0  0  0
  7  8  1  0  0  0  0
  7  9  1  0  0  0  0
 10  9  1  1  0  0  0
 10 11  1  0  0  0  0
 10 12  1  0  0  0  0
 11 16  1  0  0  0  0
 12 13  1  6  0  0  0
 12 14  1  0  0  0  0
 14 15  1  6  0  0  0
 14 16  1  0  0  0  0
 16 27  1  1  0  0  0
 18 19  2  0  0  0  0
 18 23  1  0  0  0  0
 19 20  1  0  0  0  0
 20 21  2  0  0  0  0
 21 22  1  0  0  0  0
 21 27  1  0  0  0  0
 22 23  2  0  0  0  0
 22 25  1  0  0  0  0
 23 24  1  0  0  0  0
 25 26  2  0  0  0  0
 26 27  1  0  0  0  0
M  END
>  <CHROM.1>
-72.17713992,-69.50734054,-174.28754162,-84.38259246,-156.34280061,-67.73586901
-65.58468169,-8.18058827,2.31596010,13.97041237,1.36034394,-1.41817087,-2.65148328

>  <Name>
ligand

>  <RI>
0

>  <Rbt.Current_Directory>
/home/itssahil/PROJECTS/Mol_Feturizer/New_Systems/rnas/3GX6

>  <Rbt.Executable>
rbdock ($Id: //depot/dev/client3/rdock/2013.1/src/exe/rbdock.cxx#4 $)

>  <Rbt.Library>
libRbt.so (2013.1, Build901 2013/11/27)

>  <Rbt.Parameter_File>
/export/apps/rDock/src/rDock_2013.1_src/data/scripts/dock_solv.prm

>  <Rbt.Receptor>
prm/blind_docking_100.prm

>  <SCORE>
-17.7443

>  <SCORE.INTER>
-9.18572

>  <SCORE.INTER.CONST>
1

>  <SCORE.INTER.POLAR>
0

>  <SCORE.INTER.ROT>
7

>  <SCORE.INTER.SOLV>
9.00523

>  <SCORE.INTER.VDW>
-17.3922

>  <SCORE.INTER.norm>
-0.340212

>  <SCORE.INTRA>
-8.55857

>  <SCORE.INTRA.DIHEDRAL>
-7.9678

>  <SCORE.INTRA.DIHEDRAL.0>
15.0182

>  <SCORE.INTRA.POLAR>
0

>  <SCORE.INTRA.POLAR.0>
0

>  <SCORE.INTRA.REPUL>
0

>  <SCORE.INTRA.REPUL.0>
0

>  <SCORE.INTRA.SOLV>
-1.01407

>  <SCORE.INTRA.SOLV.lig_0>
-47.9129

>  <SCORE.INTRA.VDW>
-4.06764

>  <SCORE.INTRA.VDW.0>
2.00851

>  <SCORE.INTRA.norm>
-0.316984

>  <SCORE.RESTR>
0

>  <SCORE.RESTR.CAVITY>
0

>  <SCORE.RESTR.norm>
0

>  <SCORE.SYSTEM>
0

>  <SCORE.SYSTEM.CONST>
0

>  <SCORE.SYSTEM.DIHEDRAL>
0

>  <SCORE.SYSTEM.SOLV>
0

>  <SCORE.SYSTEM.norm>
0

>  <SCORE.heavy>
27

>  <SCORE.norm>
-0.657196

>  <RMSD>
20.463

$$$$
ligand
 OpenBabel11021811483D
libRbt.so/2013.1/901 2013/11/27
 27 29  0  0  0  0  0  0  0  0999 V2000
   -7.2249    3.9798   18.7662 N   0  0  0  0  0  0  0  0  0  0  0  0
   -6.0926    3.1348   18.3962 C   0  0  2  0  0  0  0  0  0  0  0  0
   -4.7590    3.8492   18.5992 C   0  0  0  0  0  0  0  0  0  0  0  0
   -3.7520    3.5075   17.9750 O   0  0  0  0  0  0  0  0  0  0  0  0
   -6.2380    2.6252   16.9655 C   0  0  0  0  0  0  0  0  0  0  0  0
   -6.2668    3.7383   15.9295 C   0  0  0  0  0  0  0  0  0  0  0  0
   -6.7577    3.1873   14.2767 S   0  0  2  0  0  0  0  0  0  0  0  0
   -6.9129    4.7809   13.4323 C   0  0  0  0  0  0  0  0  0  0  0  0
   -8.4984    2.7635   14.5575 C   0  0  0  0  0  0  0  0  0  0  0  0
   -9.0372    2.0157   13.3464 C   0  0  1  0  0  0  0  0  0  0  0  0
   -8.2173    0.8946   13.1175 O   0  0  0  0  0  0  0  0  0  0  0  0
  -10.4340    1.4422   13.4948 C   0  0  1  0  0  0  0  0  0  0  0  0
  -11.3975    2.3140   12.9469 O   0  0  0  0  0  0  0  0  0  0  0  0
  -10.3671    0.1647   12.6827 C   0  0  1  0  0  0  0  0  0  0  0  0
  -11.0646    0.3662   11.4783 O   0  0  0  0  0  0  0  0  0  0  0  0
   -8.8965   -0.0904   12.3816 C   0  0  2  0  0  0  0  0  0  0  0  0
   -4.6628    4.7811   19.3978 O   0  0  0  0  0  0  0  0  0  0  0  0
   -6.6766   -4.7609   11.3649 N   0  0  0  0  0  0  0  0  0  0  0  0
   -6.8389   -3.6902   10.5080 C   0  0  0  0  0  0  0  0  0  0  0  0
   -7.4510   -2.5292   10.9412 N   0  0  0  0  0  0  0  0  0  0  0  0
   -7.9044   -2.4292   12.2133 C   0  0  0  0  0  0  0  0  0  0  0  0
   -7.7423   -3.4931   13.0921 C   0  0  0  0  0  0  0  0  0  0  0  0
   -7.1302   -4.6642   12.6626 C   0  0  0  0  0  0  0  0  0  0  0  0
   -6.9836   -5.6866   13.5018 N   0  0  0  0  0  0  0  0  0  0  0  0
   -8.2691   -3.1315   14.2818 N   0  0  0  0  0  0  0  0  0  0  0  0
   -8.7410   -1.8667   14.1803 C   0  0  0  0  0  0  0  0  0  0  0  0
   -8.5232   -1.4151   12.9054 N   0  0  0  0  0  0  0  0  0  0  0  0
  2  1  1  6  0  0  0
  2  3  1  0  0  0  0
  2  5  1  0  0  0  0
  3  4  1  0  0  0  0
  3 17  1  0  0  0  0
  5  6  1  0  0  0  0
  7  6  1  1  0  0  0
  7  8  1  0  0  0  0
  7  9  1  0  0  0  0
 10  9  1  1  0  0  0
 10 11  1  0  0  0  0
 10 12  1  0  0  0  0
 11 16  1  0  0  0  0
 12 13  1  6  0  0  0
 12 14  1  0  0  0  0
 14 15  1  6  0  0  0
 14 16  1  0  0  0  0
 16 27  1  1  0  0  0
 18 19  2  0  0  0  0
 18 23  1  0  0  0  0
 19 20  1  0  0  0  0
 20 21  2  0  0  0  0
 21 22  1  0  0  0  0
 21 27  1  0  0  0  0
 22 23  2  0  0  0  0
 22 25  1  0  0  0  0
 23 24  1  0  0  0  0
 25 26  2  0  0  0  0
 26 27  1  0  0  0  0
M  END
>  <CHROM.1>
-156.59348116,61.67713212,-168.73719562,171.87266375,-168.98376245,55.87583234
-119.25641479,-7.61899626,0.61819854,14.24354094,-1.23201821,0.72626931,-2.73360086

>  <Name>
ligand

>  <RI>
0

>  <Rbt.Current_Directory>
/home/itssahil/PROJECTS/Mol_Feturizer/New_Systems/rnas/3GX6

>  <Rbt.Executable>
rbdock ($Id: //depot/dev/client3/rdock/2013.1/src/exe/rbdock.cxx#4 $)

>  <Rbt.Library>
libRbt.so (2013.1, Build901 2013/11/27)

>  <Rbt.Parameter_File>
/export/apps/rDock/src/rDock_2013.1_src/data/scripts/dock_solv.prm

>  <Rbt.Receptor>
prm/blind_docking_100.prm

>  <SCORE>
-21.3503

>  <SCORE.INTER>
-12.0991

>  <SCORE.INTER.CONST>
1

>  <SCORE.INTER.POLAR>
0

>  <SCORE.INTER.ROT>
7

>  <SCORE.INTER.SOLV>
6.37326

>  <SCORE.INTER.VDW>
-18.4572

>  <SCORE.INTER.norm>
-0.448116

>  <SCORE.INTRA>
-9.25113

>  <SCORE.INTRA.DIHEDRAL>
-10.2783

>  <SCORE.INTRA.DIHEDRAL.0>
15.0182

>  <SCORE.INTRA.POLAR>
0

>  <SCORE.INTRA.POLAR.0>
0

>  <SCORE.INTRA.REPUL>
0

>  <SCORE.INTRA.REPUL.0>
0

>  <SCORE.INTRA.SOLV>
-1.07473

>  <SCORE.INTRA.SOLV.lig_0>
-47.9129

>  <SCORE.INTRA.VDW>
-3.57463

>  <SCORE.INTRA.VDW.0>
2.00851

>  <SCORE.INTRA.norm>
-0.342635

>  <SCORE.RESTR>
0

>  <SCORE.RESTR.CAVITY>
0

>  <SCORE.RESTR.norm>
0

>  <SCORE.SYSTEM>
0

>  <SCORE.SYSTEM.CONST>
0

>  <SCORE.SYSTEM.DIHEDRAL>
0

>  <SCORE.SYSTEM.SOLV>
0

>  <SCORE.SYSTEM.norm>
0

>  <SCORE.heavy>
27

>  <SCORE.norm>
-0.790751

>  <RMSD>
20.525

$$$$
ligand
 OpenBabel11021811483D
libRbt.so/2013.1/901 2013/11/27
 27 29  0  0  0  0  0  0  0  0999 V2000
  -11.4392    4.9310   10.1953 N   0  0  0  0  0  0  0  0  0  0  0  0
  -11.8254    5.9673   11.1491 C   0  0  2  0  0  0  0  0  0  0  0  0
  -11.0547    7.2652   10.9226 C   0  0  0  0  0  0  0  0  0  0  0  0
  -10.5452    7.5209    9.8293 O   0  0  0  0  0  0  0  0  0  0  0  0
  -11.6704    5.4720   12.5839 C   0  0  0  0  0  0  0  0  0  0  0  0
  -10.2494    5.0511   12.9257 C   0  0  0  0  0  0  0  0  0  0  0  0
  -10.0503    4.4585   14.6243 S   0  0  2  0  0  0  0  0  0  0  0  0
  -10.0133    6.0319   15.5185 C   0  0  0  0  0  0  0  0  0  0  0  0
   -8.2940    4.0067   14.6282 C   0  0  0  0  0  0  0  0  0  0  0  0
   -8.0235    3.0434   15.7750 C   0  0  1  0  0  0  0  0  0  0  0  0
   -8.8018    1.8875   15.5753 O   0  0  0  0  0  0  0  0  0  0  0  0
   -6.5996    2.5303   15.8814 C   0  0  1  0  0  0  0  0  0  0  0  0
   -5.8578    3.2912   16.8084 O   0  0  0  0  0  0  0  0  0  0  0  0
   -6.7831    1.1174   16.3971 C   0  0  1  0  0  0  0  0  0  0  0  0
   -6.4176    1.0884   17.7549 O   0  0  0  0  0  0  0  0  0  0  0  0
   -8.2634    0.7871   16.2624 C   0  0  2  0  0  0  0  0  0  0  0  0
  -10.9225    8.0824   11.8339 O   0  0  0  0  0  0  0  0  0  0  0  0
   -8.5825   -1.1572   11.3743 N   0  0  0  0  0  0  0  0  0  0  0  0
   -8.4297    0.1603   11.7589 C   0  0  0  0  0  0  0  0  0  0  0  0
   -8.3661    0.4996   13.0972 N   0  0  0  0  0  0  0  0  0  0  0  0
   -8.4579   -0.4582   14.0502 C   0  0  0  0  0  0  0  0  0  0  0  0
   -8.6033   -1.7900   13.6821 C   0  0  0  0  0  0  0  0  0  0  0  0
   -8.6707   -2.1379   12.3385 C   0  0  0  0  0  0  0  0  0  0  0  0
   -8.8196   -3.4126   11.9863 N   0  0  0  0  0  0  0  0  0  0  0  0
   -8.6613   -2.5280   14.8115 N   0  0  0  0  0  0  0  0  0  0  0  0
   -8.5391   -1.7008   15.8762 C   0  0  0  0  0  0  0  0  0  0  0  0
   -8.4116   -0.4141   15.4236 N   0  0  0  0  0  0  0  0  0  0  0  0
  2  1  1  6  0  0  0
  2  3  1  0  0  0  0
  2  5  1  0  0  0  0
  3  4  1  0  0  0  0
  3 17  1  0  0  0  0
  5  6  1  0  0  0  0
  7  6  1  6  0  0  0
  7  8  1  0  0  0  0
  7  9  1  0  0  0  0
 10  9  1  6  0  0  0
 10 11  1  0  0  0  0
 10 12  1  0  0  0  0
 11 16  1  0  0  0  0
 12 13  1  1  0  0  0
 12 14  1  0  0  0  0
 14 15  1  1  0  0  0
 14 16  1  0  0  0  0
 16 27  1  6  0  0  0
 18 19  2  0  0  0  0
 18 23  1  0  0  0  0
 19 20  1  0  0  0  0
 20 21  2  0  0  0  0
 21 22  1  0  0  0  0
 21 27  1  0  0  0  0
 22 23  2  0  0  0  0
 22 25  1  0  0  0  0
 23 24  1  0  0  0  0
 25 26  2  0  0  0  0
 26 27  1  0  0  0  0
M  END
>  <CHROM.1>
22.53045730,59.28525095,-179.90791152,-78.21404549,-160.09248742,60.90844729
28.09143141,-9.02576455,2.43182357,13.87850530,2.35462965,-1.06888169,0.35700372

>  <Name>
ligand

>  <RI>
0

>  <Rbt.Current_Directory>
/home/itssahil/PROJECTS/Mol_Feturizer/New_Systems/rnas/3GX6

>  <Rbt.Executable>
rbdock ($Id: //depot/dev/client3/rdock/2013.1/src/exe/rbdock.cxx#4 $)

>  <Rbt.Library>
libRbt.so (2013.1, Build901 2013/11/27)

>  <Rbt.Parameter_File>
/export/apps/rDock/src/rDock_2013.1_src/data/scripts/dock_solv.prm

>  <Rbt.Receptor>
prm/blind_docking_20.prm

>  <SCORE>
-22.2522

>  <SCORE.INTER>
-12.6005

>  <SCORE.INTER.CONST>
1

>  <SCORE.INTER.POLAR>
0

>  <SCORE.INTER.ROT>
7

>  <SCORE.INTER.SOLV>
7.16099

>  <SCORE.INTER.VDW>
-19.054

>  <SCORE.INTER.norm>
-0.466686

>  <SCORE.INTRA>
-9.66314

>  <SCORE.INTRA.DIHEDRAL>
-9.51668

>  <SCORE.INTRA.DIHEDRAL.0>
15.0182

>  <SCORE.INTRA.POLAR>
0

>  <SCORE.INTRA.POLAR.0>
0

>  <SCORE.INTRA.REPUL>
0

>  <SCORE.INTRA.REPUL.0>
0

>  <SCORE.INTRA.SOLV>
-1.12613

>  <SCORE.INTRA.SOLV.lig_0>
-47.9129

>  <SCORE.INTRA.VDW>
-4.34173

>  <SCORE.INTRA.VDW.0>
2.00851

>  <SCORE.INTRA.norm>
-0.357894

>  <SCORE.RESTR>
0.0114325

>  <SCORE.RESTR.CAVITY>
0.0114325

>  <SCORE.RESTR.norm>
0.000423427

>  <SCORE.SYSTEM>
0

>  <SCORE.SYSTEM.CONST>
0

>  <SCORE.SYSTEM.DIHEDRAL>
0

>  <SCORE.SYSTEM.SOLV>
0

>  <SCORE.SYSTEM.norm>
0

>  <SCORE.heavy>
27

>  <SCORE.norm>
-0.824156

>  <RMSD>
20.578

$$$$
ligand
 OpenBabel11021811483D
libRbt.so/2013.1/901 2013/11/27
 27 29  0  0  0  0  0  0  0  0999 V2000
   -8.3375    3.5301   19.1586 N   0  0  0  0  0  0  0  0  0  0  0  0
   -9.1631    4.4488   18.3794 C   0  0  2  0  0  0  0  0  0  0  0  0
  -10.6531    4.1822   18.5767 C   0  0  0  0  0  0  0  0  0  0  0  0
  -11.1147    3.0431   18.4785 O   0  0  0  0  0  0  0  0  0  0  0  0
   -8.7815    4.4051   16.9028 C   0  0  0  0  0  0  0  0  0  0  0  0
   -9.4991    5.4512   16.0639 C   0  0  0  0  0  0  0  0  0  0  0  0
   -9.4868    5.0997   14.2883 S   0  0  2  0  0  0  0  0  0  0  0  0
  -10.3737    6.5477   13.6611 C   0  0  0  0  0  0  0  0  0  0  0  0
  -10.7703    3.8232   14.1807 C   0  0  0  0  0  0  0  0  0  0  0  0
  -10.9990    3.4596   12.7206 C   0  0  1  0  0  0  0  0  0  0  0  0
   -9.9267    2.6547   12.2916 O   0  0  0  0  0  0  0  0  0  0  0  0
  -12.2365    2.6296   12.4351 C   0  0  1  0  0  0  0  0  0  0  0  0
  -13.3121    3.4495   12.0358 O   0  0  0  0  0  0  0  0  0  0  0  0
  -11.7987    1.7485   11.2827 C   0  0  1  0  0  0  0  0  0  0  0  0
  -12.3975    2.2277   10.1038 O   0  0  0  0  0  0  0  0  0  0  0  0
  -10.2858    1.8824   11.1746 C   0  0  2  0  0  0  0  0  0  0  0  0
  -11.4260    5.1053   18.8338 O   0  0  0  0  0  0  0  0  0  0  0  0
   -8.7985   -1.9777   14.4401 N   0  0  0  0  0  0  0  0  0  0  0  0
   -9.3930   -0.7730   14.7599 C   0  0  0  0  0  0  0  0  0  0  0  0
   -9.7186    0.1353   13.7704 N   0  0  0  0  0  0  0  0  0  0  0  0
   -9.4535   -0.1440   12.4721 C   0  0  0  0  0  0  0  0  0  0  0  0
   -8.8635   -1.3547   12.1305 C   0  0  0  0  0  0  0  0  0  0  0  0
   -8.5311   -2.2713   13.1205 C   0  0  0  0  0  0  0  0  0  0  0  0
   -7.9573   -3.4268   12.7939 N   0  0  0  0  0  0  0  0  0  0  0  0
   -8.7189   -1.3808   10.7881 N   0  0  0  0  0  0  0  0  0  0  0  0
   -9.2163   -0.2305   10.2763 C   0  0  0  0  0  0  0  0  0  0  0  0
   -9.6765    0.5482   11.3053 N   0  0  0  0  0  0  0  0  0  0  0  0
  2  1  1  1  0  0  0
  2  3  1  0  0  0  0
  2  5  1  0  0  0  0
  3  4  1  0  0  0  0
  3 17  1  0  0  0  0
  5  6  1  0  0  0  0
  7  6  1  1  0  0  0
  7  8  1  0  0  0  0
  7  9  1  0  0  0  0
 10  9  1  1  0  0  0
 10 11  1  0  0  0  0
 10 12  1  0  0  0  0
 11 16  1  0  0  0  0
 12 13  1  6  0  0  0
 12 14  1  0  0  0  0
 14 15  1  6  0  0  0
 14 16  1  0  0  0  0
 16 27  1  1  0  0  0
 18 19  2  0  0  0  0
 18 23  1  0  0  0  0
 19 20  1  0  0  0  0
 20 21  2  0  0  0  0
 21 22  1  0  0  0  0
 21 27  1  0  0  0  0
 22 23  2  0  0  0  0
 22 25  1  0  0  0  0
 23 24  1  0  0  0  0
 25 26  2  0  0  0  0
 26 27  1  0  0  0  0
M  END
>  <CHROM.1>
-49.14909014,-173.58645747,-161.51161241,-178.71164234,175.51319598,75.59590971
33.54263199,-10.05939672,2.20003704,13.98885818,-1.72048767,1.10081705,-2.21164270

>  <Name>
ligand

>  <RI>
0

>  <Rbt.Current_Directory>
/home/itssahil/PROJECTS/Mol_Feturizer/New_Systems/rnas/3GX6

>  <Rbt.Executable>
rbdock ($Id: //depot/dev/client3/rdock/2013.1/src/exe/rbdock.cxx#4 $)

>  <Rbt.Library>
libRbt.so (2013.1, Build901 2013/11/27)

>  <Rbt.Parameter_File>
/export/apps/rDock/src/rDock_2013.1_src/data/scripts/dock_solv.prm

>  <Rbt.Receptor>
prm/blind_docking_100.prm

>  <SCORE>
-20.2677

>  <SCORE.INTER>
-9.57544

>  <SCORE.INTER.CONST>
1

>  <SCORE.INTER.POLAR>
0

>  <SCORE.INTER.ROT>
7

>  <SCORE.INTER.SOLV>
9.28571

>  <SCORE.INTER.VDW>
-17.7455

>  <SCORE.INTER.norm>
-0.354646

>  <SCORE.INTRA>
-10.6923

>  <SCORE.INTRA.DIHEDRAL>
-9.33763

>  <SCORE.INTRA.DIHEDRAL.0>
15.0182

>  <SCORE.INTRA.POLAR>
0

>  <SCORE.INTRA.POLAR.0>
0

>  <SCORE.INTRA.REPUL>
0

>  <SCORE.INTRA.REPUL.0>
0

>  <SCORE.INTRA.SOLV>
-1.81148

>  <SCORE.INTRA.SOLV.lig_0>
-47.9129

>  <SCORE.INTRA.VDW>
-5.11771

>  <SCORE.INTRA.VDW.0>
2.00851

>  <SCORE.INTRA.norm>
-0.39601

>  <SCORE.RESTR>
0

>  <SCORE.RESTR.CAVITY>
0

>  <SCORE.RESTR.norm>
0

>  <SCORE.SYSTEM>
0

>  <SCORE.SYSTEM.CONST>
0

>  <SCORE.SYSTEM.DIHEDRAL>
0

>  <SCORE.SYSTEM.SOLV>
0

>  <SCORE.SYSTEM.norm>
0

>  <SCORE.heavy>
27

>  <SCORE.norm>
-0.750656

>  <RMSD>
20.595

$$$$
ligand
 OpenBabel11021811483D
libRbt.so/2013.1/901 2013/11/27
 27 29  0  0  0  0  0  0  0  0999 V2000
  -10.9763    5.9134    9.9066 N   0  0  0  0  0  0  0  0  0  0  0  0
  -11.4991    6.6509   11.0536 C   0  0  2  0  0  0  0  0  0  0  0  0
  -10.6389    7.8665   11.3889 C   0  0  0  0  0  0  0  0  0  0  0  0
  -10.3049    8.1094   12.5507 O   0  0  0  0  0  0  0  0  0  0  0  0
  -11.6611    5.7342   12.2625 C   0  0  0  0  0  0  0  0  0  0  0  0
  -10.3977    4.9601   12.6052 C   0  0  0  0  0  0  0  0  0  0  0  0
  -10.5024    4.0398   14.1603 S   0  0  2  0  0  0  0  0  0  0  0  0
  -10.1356    5.3571   15.3464 C   0  0  0  0  0  0  0  0  0  0  0  0
   -8.9294    3.1380   14.1338 C   0  0  0  0  0  0  0  0  0  0  0  0
   -9.0342    1.9143   15.0327 C   0  0  1  0  0  0  0  0  0  0  0  0
   -9.3845    0.8081   14.2357 O   0  0  0  0  0  0  0  0  0  0  0  0
   -7.7511    1.4943   15.7249 C   0  0  1  0  0  0  0  0  0  0  0  0
   -7.6901    2.0165   17.0334 O   0  0  0  0  0  0  0  0  0  0  0  0
   -7.8670   -0.0158   15.7727 C   0  0  1  0  0  0  0  0  0  0  0  0
   -8.1733   -0.3970   17.0913 O   0  0  0  0  0  0  0  0  0  0  0  0
   -9.0181   -0.3994   14.8526 C   0  0  2  0  0  0  0  0  0  0  0  0
  -10.2653    8.6335   10.5014 O   0  0  0  0  0  0  0  0  0  0  0  0
   -7.1478   -5.2111   13.7922 N   0  0  0  0  0  0  0  0  0  0  0  0
   -7.5359   -4.6982   15.0142 C   0  0  0  0  0  0  0  0  0  0  0  0
   -8.0056   -3.4023   15.1160 N   0  0  0  0  0  0  0  0  0  0  0  0
   -8.0865   -2.6164   14.0161 C   0  0  0  0  0  0  0  0  0  0  0  0
   -7.7086   -3.1181   12.7768 C   0  0  0  0  0  0  0  0  0  0  0  0
   -7.2330   -4.4191   12.6677 C   0  0  0  0  0  0  0  0  0  0  0  0
   -6.8620   -4.8964   11.4821 N   0  0  0  0  0  0  0  0  0  0  0  0
   -7.8937   -2.1429   11.8612 N   0  0  0  0  0  0  0  0  0  0  0  0
   -8.3926   -1.0507   12.4863 C   0  0  0  0  0  0  0  0  0  0  0  0
   -8.5193   -1.3258   13.8224 N   0  0  0  0  0  0  0  0  0  0  0  0
  2  1  1  6  0  0  0
  2  3  1  0  0  0  0
  2  5  1  0  0  0  0
  3  4  1  0  0  0  0
  3 17  1  0  0  0  0
  5  6  1  0  0  0  0
  7  6  1  6  0  0  0
  7  8  1  0  0  0  0
  7  9  1  0  0  0  0
 10  9  1  6  0  0  0
 10 11  1  0  0  0  0
 10 12  1  0  0  0  0
 11 16  1  0  0  0  0
 12 13  1  1  0  0  0
 12 14  1  0  0  0  0
 14 15  1  1  0  0  0
 14 16  1  0  0  0  0
 16 27  1  6  0  0  0
 18 19  2  0  0  0  0
 18 23  1  0  0  0  0
 19 20  1  0  0  0  0
 20 21  2  0  0  0  0
 21 22  1  0  0  0  0
 21 27  1  0  0  0  0
 22 23  2  0  0  0  0
 22 25  1  0  0  0  0
 23 24  1  0  0  0  0
 25 26  2  0  0  0  0
 26 27  1  0  0  0  0
M  END
>  <CHROM.1>
-133.80042988,52.77595818,172.26948677,-81.83561036,-157.73007013,95.06195956
-178.73826290,-9.04921848,1.49819595,13.63485211,2.89422079,-1.27195477,1.13823278

>  <Name>
ligand

>  <RI>
0

>  <Rbt.Current_Directory>
/home/itssahil/PROJECTS/Mol_Feturizer/New_Systems/rnas/3GX6

>  <Rbt.Executable>
rbdock ($Id: //depot/dev/client3/rdock/2013.1/src/exe/rbdock.cxx#4 $)

>  <Rbt.Library>
libRbt.so (2013.1, Build901 2013/11/27)

>  <Rbt.Parameter_File>
/export/apps/rDock/src/rDock_2013.1_src/data/scripts/dock_solv.prm

>  <Rbt.Receptor>
prm/blind_docking_20.prm

>  <SCORE>
-16.4852

>  <SCORE.INTER>
-9.61454

>  <SCORE.INTER.CONST>
1

>  <SCORE.INTER.POLAR>
0

>  <SCORE.INTER.ROT>
7

>  <SCORE.INTER.SOLV>
8.89415

>  <SCORE.INTER.VDW>
-17.6411

>  <SCORE.INTER.norm>
-0.356094

>  <SCORE.INTRA>
-6.87065

>  <SCORE.INTRA.DIHEDRAL>
-5.28323

>  <SCORE.INTRA.DIHEDRAL.0>
15.0182

>  <SCORE.INTRA.POLAR>
0

>  <SCORE.INTRA.POLAR.0>
0

>  <SCORE.INTRA.REPUL>
0

>  <SCORE.INTRA.REPUL.0>
0

>  <SCORE.INTRA.SOLV>
-1.15012

>  <SCORE.INTRA.SOLV.lig_0>
-47.9129

>  <SCORE.INTRA.VDW>
-3.65398

>  <SCORE.INTRA.VDW.0>
2.00851

>  <SCORE.INTRA.norm>
-0.254469

>  <SCORE.RESTR>
0

>  <SCORE.RESTR.CAVITY>
0

>  <SCORE.RESTR.norm>
0

>  <SCORE.SYSTEM>
0

>  <SCORE.SYSTEM.CONST>
0

>  <SCORE.SYSTEM.DIHEDRAL>
0

>  <SCORE.SYSTEM.SOLV>
0

>  <SCORE.SYSTEM.norm>
0

>  <SCORE.heavy>
27

>  <SCORE.norm>
-0.610563

>  <RMSD>
20.670

$$$$
ligand
 OpenBabel11021811483D
libRbt.so/2013.1/901 2013/11/27
 27 29  0  0  0  0  0  0  0  0999 V2000
   -7.2247   -4.0714    9.7925 N   0  0  0  0  0  0  0  0  0  0  0  0
   -6.7400   -4.4086   11.1283 C   0  0  2  0  0  0  0  0  0  0  0  0
   -6.3103   -5.8700   11.2259 C   0  0  0  0  0  0  0  0  0  0  0  0
   -6.7737   -6.7223   10.4648 O   0  0  0  0  0  0  0  0  0  0  0  0
   -7.7815   -4.0636   12.1886 C   0  0  0  0  0  0  0  0  0  0  0  0
   -8.1393   -2.5858   12.2233 C   0  0  0  0  0  0  0  0  0  0  0  0
   -9.4940   -2.1872   13.3555 S   0  0  2  0  0  0  0  0  0  0  0  0
  -10.8690   -3.0272   12.5306 C   0  0  0  0  0  0  0  0  0  0  0  0
   -9.8167   -0.4587   12.9120 C   0  0  0  0  0  0  0  0  0  0  0  0
   -8.7646    0.4323   13.5565 C   0  0  1  0  0  0  0  0  0  0  0  0
   -8.5376    1.5333   12.7093 O   0  0  0  0  0  0  0  0  0  0  0  0
   -9.1504    1.0491   14.8878 C   0  0  1  0  0  0  0  0  0  0  0  0
   -8.6538    0.2817   15.9616 O   0  0  0  0  0  0  0  0  0  0  0  0
   -8.4626    2.3988   14.8515 C   0  0  1  0  0  0  0  0  0  0  0  0
   -7.3471    2.3528   15.7067 O   0  0  0  0  0  0  0  0  0  0  0  0
   -7.9955    2.6176   13.4188 C   0  0  2  0  0  0  0  0  0  0  0  0
   -5.4926   -6.2272   12.0741 O   0  0  0  0  0  0  0  0  0  0  0  0
  -12.4165    5.3405   12.5153 N   0  0  0  0  0  0  0  0  0  0  0  0
  -12.2893    4.0814   13.0681 C   0  0  0  0  0  0  0  0  0  0  0  0
  -11.0425    3.5084   13.2331 N   0  0  0  0  0  0  0  0  0  0  0  0
   -9.9278    4.1747   12.8493 C   0  0  0  0  0  0  0  0  0  0  0  0
  -10.0355    5.4460   12.2991 C   0  0  0  0  0  0  0  0  0  0  0  0
  -11.2861    6.0270   12.1279 C   0  0  0  0  0  0  0  0  0  0  0  0
  -11.3898    7.2408   11.5921 N   0  0  0  0  0  0  0  0  0  0  0  0
   -8.7892    5.8816   12.0154 N   0  0  0  0  0  0  0  0  0  0  0  0
   -7.9022    4.9289   12.3872 C   0  0  0  0  0  0  0  0  0  0  0  0
   -8.5897    3.8638   12.9066 N   0  0  0  0  0  0  0  0  0  0  0  0
  2  1  1  6  0  0  0
  2  3  1  0  0  0  0
  2  5  1  0  0  0  0
  3  4  1  0  0  0  0
  3 17  1  0  0  0  0
  5  6  1  0  0  0  0
  7  6  1  6  0  0  0
  7  8  1  0  0  0  0
  7  9  1  0  0  0  0
 10  9  1  6  0  0  0
 10 11  1  0  0  0  0
 10 12  1  0  0  0  0
 11 16  1  0  0  0  0
 12 13  1  1  0  0  0
 12 14  1  0  0  0  0
 14 15  1  1  0  0  0
 14 16  1  0  0  0  0
 16 27  1  6  0  0  0
 18 19  2  0  0  0  0
 18 23  1  0  0  0  0
 19 20  1  0  0  0  0
 20 21  2  0  0  0  0
 21 22  1  0  0  0  0
 21 27  1  0  0  0  0
 22 23  2  0  0  0  0
 22 25  1  0  0  0  0
 23 24  1  0  0  0  0
 25 26  2  0  0  0  0
 26 27  1  0  0  0  0
M  END
>  <CHROM.1>
-24.61518884,-60.45618063,174.02721970,-66.69269851,-78.37521987,148.03397184
56.85243564,-8.91272114,0.51707587,12.78657035,1.03142630,0.97275927,-2.56618784

>  <Name>
ligand

>  <RI>
0

>  <Rbt.Current_Directory>
/home/itssahil/PROJECTS/Mol_Feturizer/New_Systems/rnas/3GX6

>  <Rbt.Executable>
rbdock ($Id: //depot/dev/client3/rdock/2013.1/src/exe/rbdock.cxx#4 $)

>  <Rbt.Library>
libRbt.so (2013.1, Build901 2013/11/27)

>  <Rbt.Parameter_File>
/export/apps/rDock/src/rDock_2013.1_src/data/scripts/dock_solv.prm

>  <Rbt.Receptor>
prm/blind_docking_20.prm

>  <SCORE>
-17.5628

>  <SCORE.INTER>
-8.06491

>  <SCORE.INTER.CONST>
1

>  <SCORE.INTER.POLAR>
0

>  <SCORE.INTER.ROT>
7

>  <SCORE.INTER.SOLV>
16.825

>  <SCORE.INTER.VDW>
-19.2516

>  <SCORE.INTER.norm>
-0.2987

>  <SCORE.INTRA>
-9.49793

>  <SCORE.INTRA.DIHEDRAL>
-8.54302

>  <SCORE.INTRA.DIHEDRAL.0>
15.0182

>  <SCORE.INTRA.POLAR>
0

>  <SCORE.INTRA.POLAR.0>
0

>  <SCORE.INTRA.REPUL>
0

>  <SCORE.INTRA.REPUL.0>
0

>  <SCORE.INTRA.SOLV>
-0.989522

>  <SCORE.INTRA.SOLV.lig_0>
-47.9129

>  <SCORE.INTRA.VDW>
-4.73166

>  <SCORE.INTRA.VDW.0>
2.00851

>  <SCORE.INTRA.norm>
-0.351775

>  <SCORE.RESTR>
0

>  <SCORE.RESTR.CAVITY>
0

>  <SCORE.RESTR.norm>
0

>  <SCORE.SYSTEM>
0

>  <SCORE.SYSTEM.CONST>
0

>  <SCORE.SYSTEM.DIHEDRAL>
0

>  <SCORE.SYSTEM.SOLV>
0

>  <SCORE.SYSTEM.norm>
0

>  <SCORE.heavy>
27

>  <SCORE.norm>
-0.650476

>  <RMSD>
20.689

$$$$
ligand
 OpenBabel11021811483D
libRbt.so/2013.1/901 2013/11/27
 27 29  0  0  0  0  0  0  0  0999 V2000
   -8.9589    6.3320    9.4105 N   0  0  0  0  0  0  0  0  0  0  0  0
  -10.3887    6.0735    9.5581 C   0  0  2  0  0  0  0  0  0  0  0  0
  -11.1047    6.0480    8.2103 C   0  0  0  0  0  0  0  0  0  0  0  0
  -10.4986    6.2831    7.1626 O   0  0  0  0  0  0  0  0  0  0  0  0
  -11.0289    7.0807   10.5086 C   0  0  0  0  0  0  0  0  0  0  0  0
  -10.5769    6.9188   11.9517 C   0  0  0  0  0  0  0  0  0  0  0  0
  -11.0211    5.3238   12.6831 S   0  0  2  0  0  0  0  0  0  0  0  0
  -12.8184    5.5049   12.7985 C   0  0  0  0  0  0  0  0  0  0  0  0
  -10.5266    5.5858   14.4080 C   0  0  0  0  0  0  0  0  0  0  0  0
   -9.0374    5.3072   14.5538 C   0  0  1  0  0  0  0  0  0  0  0  0
   -8.6247    5.7580   15.8218 O   0  0  0  0  0  0  0  0  0  0  0  0
   -8.6351    3.8447   14.5198 C   0  0  1  0  0  0  0  0  0  0  0  0
   -8.2230    3.4654   13.2256 O   0  0  0  0  0  0  0  0  0  0  0  0
   -7.4609    3.7909   15.4760 C   0  0  1  0  0  0  0  0  0  0  0  0
   -6.2793    3.6686   14.7231 O   0  0  0  0  0  0  0  0  0  0  0  0
   -7.4468    5.1123   16.2324 C   0  0  2  0  0  0  0  0  0  0  0  0
  -12.3080    5.7961    8.1449 O   0  0  0  0  0  0  0  0  0  0  0  0
   -5.5502    2.3771   20.3187 N   0  0  0  0  0  0  0  0  0  0  0  0
   -5.1422    2.3318   19.0002 C   0  0  0  0  0  0  0  0  0  0  0  0
   -5.7556    3.1220   18.0465 N   0  0  0  0  0  0  0  0  0  0  0  0
   -6.7702    3.9490   18.3938 C   0  0  0  0  0  0  0  0  0  0  0  0
   -7.1886    4.0144   19.7171 C   0  0  0  0  0  0  0  0  0  0  0  0
   -6.5780    3.2207   20.6806 C   0  0  0  0  0  0  0  0  0  0  0  0
   -6.9853    3.2765   21.9463 N   0  0  0  0  0  0  0  0  0  0  0  0
   -8.1959    4.9109   19.7893 N   0  0  0  0  0  0  0  0  0  0  0  0
   -8.4099    5.4223   18.5543 C   0  0  0  0  0  0  0  0  0  0  0  0
   -7.5352    4.8383   17.6766 N   0  0  0  0  0  0  0  0  0  0  0  0
  2  1  1  6  0  0  0
  2  3  1  0  0  0  0
  2  5  1  0  0  0  0
  3  4  1  0  0  0  0
  3 17  1  0  0  0  0
  5  6  1  0  0  0  0
  7  6  1  6  0  0  0
  7  8  1  0  0  0  0
  7  9  1  0  0  0  0
 10  9  1  1  0  0  0
 10 11  1  0  0  0  0
 10 12  1  0  0  0  0
 11 16  1  0  0  0  0
 12 13  1  6  0  0  0
 12 14  1  0  0  0  0
 14 15  1  6  0  0  0
 14 16  1  0  0  0  0
 16 27  1  1  0  0  0
 18 19  2  0  0  0  0
 18 23  1  0  0  0  0
 19 20  1  0  0  0  0
 20 21  2  0  0  0  0
 21 22  1  0  0  0  0
 21 27  1  0  0  0  0
 22 23  2  0  0  0  0
 22 25  1  0  0  0  0
 23 24  1  0  0  0  0
 25 26  2  0  0  0  0
 26 27  1  0  0  0  0
M  END
>  <CHROM.1>
-2.85032458,-68.27066551,-62.54341702,-69.25852941,-83.60854870,168.89690793
162.59741308,-8.80166966,4.84174833,14.68934459,-2.02513744,-0.46717686,1.60300590

>  <Name>
ligand

>  <RI>
0

>  <Rbt.Current_Directory>
/home/itssahil/PROJECTS/Mol_Feturizer/New_Systems/rnas/3GX6

>  <Rbt.Executable>
rbdock ($Id: //depot/dev/client3/rdock/2013.1/src/exe/rbdock.cxx#4 $)

>  <Rbt.Library>
libRbt.so (2013.1, Build901 2013/11/27)

>  <Rbt.Parameter_File>
/export/apps/rDock/src/rDock_2013.1_src/data/scripts/dock_solv.prm

>  <Rbt.Receptor>
prm/blind_docking_60.prm

>  <SCORE>
-18.3648

>  <SCORE.INTER>
-8.55908

>  <SCORE.INTER.CONST>
1

>  <SCORE.INTER.POLAR>
0

>  <SCORE.INTER.ROT>
7

>  <SCORE.INTER.SOLV>
5.87576

>  <SCORE.INTER.VDW>
-15.9313

>  <SCORE.INTER.norm>
-0.317003

>  <SCORE.INTRA>
-9.80573

>  <SCORE.INTRA.DIHEDRAL>
-10.4394

>  <SCORE.INTRA.DIHEDRAL.0>
15.0182

>  <SCORE.INTRA.POLAR>
0

>  <SCORE.INTRA.POLAR.0>
0

>  <SCORE.INTRA.REPUL>
0

>  <SCORE.INTRA.REPUL.0>
0

>  <SCORE.INTRA.SOLV>
-0.534152

>  <SCORE.INTRA.SOLV.lig_0>
-47.9129

>  <SCORE.INTRA.VDW>
-4.31898

>  <SCORE.INTRA.VDW.0>
2.00851

>  <SCORE.INTRA.norm>
-0.363175

>  <SCORE.RESTR>
0

>  <SCORE.RESTR.CAVITY>
0

>  <SCORE.RESTR.norm>
0

>  <SCORE.SYSTEM>
0

>  <SCORE.SYSTEM.CONST>
0

>  <SCORE.SYSTEM.DIHEDRAL>
0

>  <SCORE.SYSTEM.SOLV>
0

>  <SCORE.SYSTEM.norm>
0

>  <SCORE.heavy>
27

>  <SCORE.norm>
-0.680178

>  <RMSD>
20.774

$$$$
ligand
 OpenBabel11021811483D
libRbt.so/2013.1/901 2013/11/27
 27 29  0  0  0  0  0  0  0  0999 V2000
   -8.9579   -1.4542   19.4470 N   0  0  0  0  0  0  0  0  0  0  0  0
   -8.9894   -0.3090   18.5412 C   0  0  2  0  0  0  0  0  0  0  0  0
   -8.7677    1.0079   19.2806 C   0  0  0  0  0  0  0  0  0  0  0  0
   -9.2449    1.1970   20.4018 O   0  0  0  0  0  0  0  0  0  0  0  0
  -10.2873   -0.2844   17.7394 C   0  0  0  0  0  0  0  0  0  0  0  0
  -10.3475    0.8473   16.7252 C   0  0  0  0  0  0  0  0  0  0  0  0
   -9.5083    0.4769   15.1648 S   0  0  2  0  0  0  0  0  0  0  0  0
   -7.7811    0.5094   15.7054 C   0  0  0  0  0  0  0  0  0  0  0  0
   -9.6437    2.0723   14.3134 C   0  0  0  0  0  0  0  0  0  0  0  0
  -11.0690    2.2575   13.8127 C   0  0  1  0  0  0  0  0  0  0  0  0
  -11.1981    3.5697   13.3197 O   0  0  0  0  0  0  0  0  0  0  0  0
  -11.4787    1.3719   12.6508 C   0  0  1  0  0  0  0  0  0  0  0  0
  -12.1605    0.2250   13.1073 O   0  0  0  0  0  0  0  0  0  0  0  0
  -12.4215    2.2576   11.8618 C   0  0  1  0  0  0  0  0  0  0  0  0
  -13.7375    1.8123   12.0801 O   0  0  0  0  0  0  0  0  0  0  0  0
  -12.2651    3.6690   12.4115 C   0  0  2  0  0  0  0  0  0  0  0  0
   -8.1092    1.9120   18.7662 O   0  0  0  0  0  0  0  0  0  0  0  0
  -10.2159    8.3341   11.0651 N   0  0  0  0  0  0  0  0  0  0  0  0
  -10.4311    7.8323   12.3335 C   0  0  0  0  0  0  0  0  0  0  0  0
  -10.9855    6.5785   12.5092 N   0  0  0  0  0  0  0  0  0  0  0  0
  -11.3296    5.8269   11.4365 C   0  0  0  0  0  0  0  0  0  0  0  0
  -11.1126    6.3117   10.1526 C   0  0  0  0  0  0  0  0  0  0  0  0
  -10.5581    7.5725    9.9687 C   0  0  0  0  0  0  0  0  0  0  0  0
  -10.3591    8.0406    8.7389 N   0  0  0  0  0  0  0  0  0  0  0  0
  -11.5323    5.3719    9.2785 N   0  0  0  0  0  0  0  0  0  0  0  0
  -11.9899    4.3054    9.9755 C   0  0  0  0  0  0  0  0  0  0  0  0
  -11.8716    4.5692   11.3146 N   0  0  0  0  0  0  0  0  0  0  0  0
  2  1  1  1  0  0  0
  2  3  1  0  0  0  0
  2  5  1  0  0  0  0
  3  4  1  0  0  0  0
  3 17  1  0  0  0  0
  5  6  1  0  0  0  0
  7  6  1  1  0  0  0
  7  8  1  0  0  0  0
  7  9  1  0  0  0  0
 10  9  1  6  0  0  0
 10 11  1  0  0  0  0
 10 12  1  0  0  0  0
 11 16  1  0  0  0  0
 12 13  1  1  0  0  0
 12 14  1  0  0  0  0
 14 15  1  1  0  0  0
 14 16  1  0  0  0  0
 16 27  1  6  0  0  0
 18 19  2  0  0  0  0
 18 23  1  0  0  0  0
 19 20  1  0  0  0  0
 20 21  2  0  0  0  0
 21 22  1  0  0  0  0
 21 27  1  0  0  0  0
 22 23  2  0  0  0  0
 22 25  1  0  0  0  0
 23 24  1  0  0  0  0
 25 26  2  0  0  0  0
 26 27  1  0  0  0  0
M  END
>  <CHROM.1>
-37.78679510,-177.01823536,82.83040605,-70.72758693,-75.08014575,172.11163959
-50.28119373,-10.54374574,2.95809601,13.94357274,-1.20341567,-0.96138914
-0.59852382

>  <Name>
ligand

>  <RI>
0

>  <Rbt.Current_Directory>
/home/itssahil/PROJECTS/Mol_Feturizer/New_Systems/rnas/3GX6

>  <Rbt.Executable>
rbdock ($Id: //depot/dev/client3/rdock/2013.1/src/exe/rbdock.cxx#4 $)

>  <Rbt.Library>
libRbt.so (2013.1, Build901 2013/11/27)

>  <Rbt.Parameter_File>
/export/apps/rDock/src/rDock_2013.1_src/data/scripts/dock_solv.prm

>  <Rbt.Receptor>
prm/blind_docking_100.prm

>  <SCORE>
-17.4824

>  <SCORE.INTER>
-7.98904

>  <SCORE.INTER.CONST>
1

>  <SCORE.INTER.POLAR>
0

>  <SCORE.INTER.ROT>
7

>  <SCORE.INTER.SOLV>
12.0563

>  <SCORE.INTER.VDW>
-17.6114

>  <SCORE.INTER.norm>
-0.29589

>  <SCORE.INTRA>
-9.49336

>  <SCORE.INTRA.DIHEDRAL>
-9.71006

>  <SCORE.INTRA.DIHEDRAL.0>
15.0182

>  <SCORE.INTRA.POLAR>
0

>  <SCORE.INTRA.POLAR.0>
0

>  <SCORE.INTRA.REPUL>
0

>  <SCORE.INTRA.REPUL.0>
0

>  <SCORE.INTRA.SOLV>
-1.27452

>  <SCORE.INTRA.SOLV.lig_0>
-47.9129

>  <SCORE.INTRA.VDW>
-4.00107

>  <SCORE.INTRA.VDW.0>
2.00851

>  <SCORE.INTRA.norm>
-0.351606

>  <SCORE.RESTR>
0

>  <SCORE.RESTR.CAVITY>
0

>  <SCORE.RESTR.norm>
0

>  <SCORE.SYSTEM>
0

>  <SCORE.SYSTEM.CONST>
0

>  <SCORE.SYSTEM.DIHEDRAL>
0

>  <SCORE.SYSTEM.SOLV>
0

>  <SCORE.SYSTEM.norm>
0

>  <SCORE.heavy>
27

>  <SCORE.norm>
-0.647496

>  <RMSD>
20.820

$$$$
ligand
 OpenBabel11021811483D
libRbt.so/2013.1/901 2013/11/27
 27 29  0  0  0  0  0  0  0  0999 V2000
   -7.5233   -5.2855   15.0093 N   0  0  0  0  0  0  0  0  0  0  0  0
   -8.3673   -5.9262   14.0042 C   0  0  2  0  0  0  0  0  0  0  0  0
   -8.5285   -7.4214   14.2654 C   0  0  0  0  0  0  0  0  0  0  0  0
   -7.6901   -8.2319   13.8649 O   0  0  0  0  0  0  0  0  0  0  0  0
   -7.8364   -5.6616   12.5985 C   0  0  0  0  0  0  0  0  0  0  0  0
   -7.8060   -4.1855   12.2338 C   0  0  0  0  0  0  0  0  0  0  0  0
   -9.4340   -3.3943   12.2486 S   0  0  2  0  0  0  0  0  0  0  0  0
  -10.2148   -4.2241   10.8420 C   0  0  0  0  0  0  0  0  0  0  0  0
   -9.0377   -1.7767   11.5310 C   0  0  0  0  0  0  0  0  0  0  0  0
   -8.6041   -0.8264   12.6379 C   0  0  1  0  0  0  0  0  0  0  0  0
   -8.1298    0.3583   12.0438 O   0  0  0  0  0  0  0  0  0  0  0  0
   -9.7022   -0.3676   13.5790 C   0  0  1  0  0  0  0  0  0  0  0  0
   -9.7278   -1.1576   14.7468 O   0  0  0  0  0  0  0  0  0  0  0  0
   -9.2903    1.0503   13.9194 C   0  0  1  0  0  0  0  0  0  0  0  0
   -8.7807    1.0630   15.2302 O   0  0  0  0  0  0  0  0  0  0  0  0
   -8.1881    1.4364   12.9423 C   0  0  2  0  0  0  0  0  0  0  0  0
   -9.5064   -7.8481   14.8796 O   0  0  0  0  0  0  0  0  0  0  0  0
   -6.6965    6.0239   10.8197 N   0  0  0  0  0  0  0  0  0  0  0  0
   -5.9153    5.0976   11.4821 C   0  0  0  0  0  0  0  0  0  0  0  0
   -6.4733    3.9367   11.9832 N   0  0  0  0  0  0  0  0  0  0  0  0
   -7.7975    3.6952   11.8343 C   0  0  0  0  0  0  0  0  0  0  0  0
   -8.5976    4.6117   11.1631 C   0  0  0  0  0  0  0  0  0  0  0  0
   -8.0436    5.7821   10.6591 C   0  0  0  0  0  0  0  0  0  0  0  0
   -8.8120    6.6643   10.0247 N   0  0  0  0  0  0  0  0  0  0  0  0
   -9.8587    4.1288   11.1497 N   0  0  0  0  0  0  0  0  0  0  0  0
   -9.8699    2.9292   11.7769 C   0  0  0  0  0  0  0  0  0  0  0  0
   -8.6011    2.6439   12.2075 N   0  0  0  0  0  0  0  0  0  0  0  0
  2  1  1  1  0  0  0
  2  3  1  0  0  0  0
  2  5  1  0  0  0  0
  3  4  1  0  0  0  0
  3 17  1  0  0  0  0
  5  6  1  0  0  0  0
  7  6  1  6  0  0  0
  7  8  1  0  0  0  0
  7  9  1  0  0  0  0
 10  9  1  6  0  0  0
 10 11  1  0  0  0  0
 10 12  1  0  0  0  0
 11 16  1  0  0  0  0
 12 13  1  1  0  0  0
 12 14  1  0  0  0  0
 14 15  1  1  0  0  0
 14 16  1  0  0  0  0
 16 27  1  6  0  0  0
 18 19  2  0  0  0  0
 18 23  1  0  0  0  0
 19 20  1  0  0  0  0
 20 21  2  0  0  0  0
 21 22  1  0  0  0  0
 21 27  1  0  0  0  0
 22 23  2  0  0  0  0
 22 25  1  0  0  0  0
 23 24  1  0  0  0  0
 25 26  2  0  0  0  0
 26 27  1  0  0  0  0
M  END
>  <CHROM.1>
-84.67523510,-61.16433677,-61.17982246,-67.75273947,-87.50034370,172.11393481
-105.00312264,-8.54502776,-0.55989447,12.61219084,-1.91022787,-1.41250491
-0.54124103

>  <Name>
ligand

>  <RI>
0

>  <Rbt.Current_Directory>
/home/itssahil/PROJECTS/Mol_Feturizer/New_Systems/rnas/3GX6

>  <Rbt.Executable>
rbdock ($Id: //depot/dev/client3/rdock/2013.1/src/exe/rbdock.cxx#4 $)

>  <Rbt.Library>
libRbt.so (2013.1, Build901 2013/11/27)

>  <Rbt.Parameter_File>
/export/apps/rDock/src/rDock_2013.1_src/data/scripts/dock_solv.prm

>  <Rbt.Receptor>
prm/blind_docking_20.prm

>  <SCORE>
-19.9372

>  <SCORE.INTER>
-10.4612

>  <SCORE.INTER.CONST>
1

>  <SCORE.INTER.POLAR>
0

>  <SCORE.INTER.ROT>
7

>  <SCORE.INTER.SOLV>
8.44824

>  <SCORE.INTER.VDW>
-18.0569

>  <SCORE.INTER.norm>
-0.387453

>  <SCORE.INTRA>
-9.47599

>  <SCORE.INTRA.DIHEDRAL>
-10.59

>  <SCORE.INTRA.DIHEDRAL.0>
15.0182

>  <SCORE.INTRA.POLAR>
0

>  <SCORE.INTRA.POLAR.0>
0

>  <SCORE.INTRA.REPUL>
0

>  <SCORE.INTRA.REPUL.0>
0

>  <SCORE.INTRA.SOLV>
-0.482879

>  <SCORE.INTRA.SOLV.lig_0>
-47.9129

>  <SCORE.INTRA.VDW>
-3.93954

>  <SCORE.INTRA.VDW.0>
2.00851

>  <SCORE.INTRA.norm>
-0.350963

>  <SCORE.RESTR>
0

>  <SCORE.RESTR.CAVITY>
0

>  <SCORE.RESTR.norm>
0

>  <SCORE.SYSTEM>
0

>  <SCORE.SYSTEM.CONST>
0

>  <SCORE.SYSTEM.DIHEDRAL>
0

>  <SCORE.SYSTEM.SOLV>
0

>  <SCORE.SYSTEM.norm>
0

>  <SCORE.heavy>
27

>  <SCORE.norm>
-0.738416

>  <RMSD>
20.858

$$$$
ligand
 OpenBabel11021811483D
libRbt.so/2013.1/901 2013/11/27
 27 29  0  0  0  0  0  0  0  0999 V2000
   -8.0457   -2.9352   13.0263 N   0  0  0  0  0  0  0  0  0  0  0  0
   -9.4464   -2.7087   13.3723 C   0  0  2  0  0  0  0  0  0  0  0  0
  -10.3927   -3.4296   12.4159 C   0  0  0  0  0  0  0  0  0  0  0  0
   -9.9825   -3.9144   11.3589 O   0  0  0  0  0  0  0  0  0  0  0  0
   -9.7560   -1.2163   13.4406 C   0  0  0  0  0  0  0  0  0  0  0  0
   -8.9552   -0.4830   14.5056 C   0  0  0  0  0  0  0  0  0  0  0  0
   -9.3200    1.2870   14.6063 S   0  0  2  0  0  0  0  0  0  0  0  0
   -8.5025    1.8766   13.1028 C   0  0  0  0  0  0  0  0  0  0  0  0
   -8.1403    1.8102   15.8803 C   0  0  0  0  0  0  0  0  0  0  0  0
   -8.3901    3.2702   16.2301 C   0  0  1  0  0  0  0  0  0  0  0  0
   -7.9606    4.0640   15.1498 O   0  0  0  0  0  0  0  0  0  0  0  0
   -9.8423    3.6587   16.4348 C   0  0  1  0  0  0  0  0  0  0  0  0
  -10.1819    3.6362   17.8033 O   0  0  0  0  0  0  0  0  0  0  0  0
   -9.8935    5.0791   15.9097 C   0  0  1  0  0  0  0  0  0  0  0  0
   -9.9724    5.9562   17.0061 O   0  0  0  0  0  0  0  0  0  0  0  0
   -8.5903    5.3196   15.1596 C   0  0  2  0  0  0  0  0  0  0  0  0
  -11.5902   -3.5362   12.6813 O   0  0  0  0  0  0  0  0  0  0  0  0
   -6.8283    5.7499   10.2113 N   0  0  0  0  0  0  0  0  0  0  0  0
   -6.1456    5.2954   11.3223 C   0  0  0  0  0  0  0  0  0  0  0  0
   -6.7635    5.2498   12.5577 N   0  0  0  0  0  0  0  0  0  0  0  0
   -8.0481    5.6559   12.6948 C   0  0  0  0  0  0  0  0  0  0  0  0
   -8.7536    6.1083   11.5866 C   0  0  0  0  0  0  0  0  0  0  0  0
   -8.1377    6.1592   10.3420 C   0  0  0  0  0  0  0  0  0  0  0  0
   -8.8107    6.6015    9.2825 N   0  0  0  0  0  0  0  0  0  0  0  0
   -9.9978    6.4391   11.9943 N   0  0  0  0  0  0  0  0  0  0  0  0
  -10.0989    6.1914   13.3214 C   0  0  0  0  0  0  0  0  0  0  0  0
   -8.9003    5.7051   13.7726 N   0  0  0  0  0  0  0  0  0  0  0  0
  2  1  1  6  0  0  0
  2  3  1  0  0  0  0
  2  5  1  0  0  0  0
  3  4  1  0  0  0  0
  3 17  1  0  0  0  0
  5  6  1  0  0  0  0
  7  6  1  6  0  0  0
  7  8  1  0  0  0  0
  7  9  1  0  0  0  0
 10  9  1  6  0  0  0
 10 11  1  0  0  0  0
 10 12  1  0  0  0  0
 11 16  1  0  0  0  0
 12 13  1  1  0  0  0
 12 14  1  0  0  0  0
 14 15  1  1  0  0  0
 14 16  1  0  0  0  0
 16 27  1  6  0  0  0
 18 19  2  0  0  0  0
 18 23  1  0  0  0  0
 19 20  1  0  0  0  0
 20 21  2  0  0  0  0
 21 22  1  0  0  0  0
 21 27  1  0  0  0  0
 22 23  2  0  0  0  0
 22 25  1  0  0  0  0
 23 24  1  0  0  0  0
 25 26  2  0  0  0  0
 26 27  1  0  0  0  0
M  END
>  <CHROM.1>
-12.48612103,-61.76754481,-179.60325553,-73.19589724,-173.85575810,-71.63521156
-47.95742216,-8.99115010,2.68516794,13.63080624,-2.21734521,1.32165557,0.61946919

>  <Name>
ligand

>  <RI>
0

>  <Rbt.Current_Directory>
/home/itssahil/PROJECTS/Mol_Feturizer/New_Systems/rnas/3GX6

>  <Rbt.Executable>
rbdock ($Id: //depot/dev/client3/rdock/2013.1/src/exe/rbdock.cxx#4 $)

>  <Rbt.Library>
libRbt.so (2013.1, Build901 2013/11/27)

>  <Rbt.Parameter_File>
/export/apps/rDock/src/rDock_2013.1_src/data/scripts/dock_solv.prm

>  <Rbt.Receptor>
prm/blind_docking_40.prm

>  <SCORE>
-18.2452

>  <SCORE.INTER>
-8.50605

>  <SCORE.INTER.CONST>
1

>  <SCORE.INTER.POLAR>
0

>  <SCORE.INTER.ROT>
7

>  <SCORE.INTER.SOLV>
11.2922

>  <SCORE.INTER.VDW>
-17.7014

>  <SCORE.INTER.norm>
-0.315039

>  <SCORE.INTRA>
-9.73918

>  <SCORE.INTRA.DIHEDRAL>
-10.6895

>  <SCORE.INTRA.DIHEDRAL.0>
15.0182

>  <SCORE.INTRA.POLAR>
0

>  <SCORE.INTRA.POLAR.0>
0

>  <SCORE.INTRA.REPUL>
0

>  <SCORE.INTRA.REPUL.0>
0

>  <SCORE.INTRA.SOLV>
-0.877619

>  <SCORE.INTRA.SOLV.lig_0>
-47.9129

>  <SCORE.INTRA.VDW>
-3.9556

>  <SCORE.INTRA.VDW.0>
2.00851

>  <SCORE.INTRA.norm>
-0.36071

>  <SCORE.RESTR>
0

>  <SCORE.RESTR.CAVITY>
0

>  <SCORE.RESTR.norm>
0

>  <SCORE.SYSTEM>
0

>  <SCORE.SYSTEM.CONST>
0

>  <SCORE.SYSTEM.DIHEDRAL>
0

>  <SCORE.SYSTEM.SOLV>
0

>  <SCORE.SYSTEM.norm>
0

>  <SCORE.heavy>
27

>  <SCORE.norm>
-0.675749

>  <RMSD>
20.866

$$$$
ligand
 OpenBabel11021811483D
libRbt.so/2013.1/901 2013/11/27
 27 29  0  0  0  0  0  0  0  0999 V2000
  -13.0859    4.5831   11.0366 N   0  0  0  0  0  0  0  0  0  0  0  0
  -12.4940    3.9550   12.2148 C   0  0  2  0  0  0  0  0  0  0  0  0
  -12.0670    4.9865   13.2558 C   0  0  0  0  0  0  0  0  0  0  0  0
  -12.4424    6.1587   13.1821 O   0  0  0  0  0  0  0  0  0  0  0  0
  -11.3319    3.0477   11.8223 C   0  0  0  0  0  0  0  0  0  0  0  0
  -10.2317    3.7725   11.0624 C   0  0  0  0  0  0  0  0  0  0  0  0
   -9.1680    4.7939   12.1119 S   0  0  2  0  0  0  0  0  0  0  0  0
   -8.2177    5.6803   10.8519 C   0  0  0  0  0  0  0  0  0  0  0  0
   -7.9562    3.5668   12.6725 C   0  0  0  0  0  0  0  0  0  0  0  0
   -8.6474    2.5468   13.5658 C   0  0  1  0  0  0  0  0  0  0  0  0
   -8.9772    1.4242   12.7832 O   0  0  0  0  0  0  0  0  0  0  0  0
   -7.8073    1.9879   14.6988 C   0  0  1  0  0  0  0  0  0  0  0  0
   -8.0526    2.6854   15.8996 O   0  0  0  0  0  0  0  0  0  0  0  0
   -8.2997    0.5598   14.8173 C   0  0  1  0  0  0  0  0  0  0  0  0
   -9.1053    0.4608   15.9658 O   0  0  0  0  0  0  0  0  0  0  0  0
   -9.1421    0.2794   13.5802 C   0  0  2  0  0  0  0  0  0  0  0  0
  -11.3320    4.6663   14.1901 O   0  0  0  0  0  0  0  0  0  0  0  0
   -7.6283   -4.7600   13.8772 N   0  0  0  0  0  0  0  0  0  0  0  0
   -8.1598   -3.9698   14.8772 C   0  0  0  0  0  0  0  0  0  0  0  0
   -8.5034   -2.6547   14.6267 N   0  0  0  0  0  0  0  0  0  0  0  0
   -8.3181   -2.1225   13.3953 C   0  0  0  0  0  0  0  0  0  0  0  0
   -7.7925   -2.9049   12.3744 C   0  0  0  0  0  0  0  0  0  0  0  0
   -7.4424   -4.2270   12.6200 C   0  0  0  0  0  0  0  0  0  0  0  0
   -6.9300   -4.9734   11.6446 N   0  0  0  0  0  0  0  0  0  0  0  0
   -7.7204   -2.1416   11.2628 N   0  0  0  0  0  0  0  0  0  0  0  0
   -8.2012   -0.9094   11.5514 C   0  0  0  0  0  0  0  0  0  0  0  0
   -8.5768   -0.8792   12.8685 N   0  0  0  0  0  0  0  0  0  0  0  0
  2  1  1  6  0  0  0
  2  3  1  0  0  0  0
  2  5  1  0  0  0  0
  3  4  1  0  0  0  0
  3 17  1  0  0  0  0
  5  6  1  0  0  0  0
  7  6  1  6  0  0  0
  7  8  1  0  0  0  0
  7  9  1  0  0  0  0
 10  9  1  6  0  0  0
 10 11  1  0  0  0  0
 10 12  1  0  0  0  0
 11 16  1  0  0  0  0
 12 13  1  1  0  0  0
 12 14  1  0  0  0  0
 14 15  1  1  0  0  0
 14 16  1  0  0  0  0
 16 27  1  6  0  0  0
 18 19  2  0  0  0  0
 18 23  1  0  0  0  0
 19 20  1  0  0  0  0
 20 21  2  0  0  0  0
 21 22  1  0  0  0  0
 21 27  1  0  0  0  0
 22 23  2  0  0  0  0
 22 25  1  0  0  0  0
 23 24  1  0  0  0  0
 25 26  2  0  0  0  0
 26 27  1  0  0  0  0
M  END
>  <CHROM.1>
13.34802702,57.86655085,76.41382326,-170.70473199,-66.60752087,96.85981478
167.22181282,-9.20387261,1.25792089,13.04366443,2.85947285,-1.19687497,1.17466722

>  <Name>
ligand

>  <RI>
0

>  <Rbt.Current_Directory>
/home/itssahil/PROJECTS/Mol_Feturizer/New_Systems/rnas/3GX6

>  <Rbt.Executable>
rbdock ($Id: //depot/dev/client3/rdock/2013.1/src/exe/rbdock.cxx#4 $)

>  <Rbt.Library>
libRbt.so (2013.1, Build901 2013/11/27)

>  <Rbt.Parameter_File>
/export/apps/rDock/src/rDock_2013.1_src/data/scripts/dock_solv.prm

>  <Rbt.Receptor>
prm/blind_docking_60.prm

>  <SCORE>
-17.8433

>  <SCORE.INTER>
-9.52708

>  <SCORE.INTER.CONST>
1

>  <SCORE.INTER.POLAR>
0

>  <SCORE.INTER.ROT>
7

>  <SCORE.INTER.SOLV>
8.20768

>  <SCORE.INTER.VDW>
-17.354

>  <SCORE.INTER.norm>
-0.352855

>  <SCORE.INTRA>
-8.31618

>  <SCORE.INTRA.DIHEDRAL>
-6.42209

>  <SCORE.INTRA.DIHEDRAL.0>
15.0182

>  <SCORE.INTRA.POLAR>
0

>  <SCORE.INTRA.POLAR.0>
0

>  <SCORE.INTRA.REPUL>
0

>  <SCORE.INTRA.REPUL.0>
0

>  <SCORE.INTRA.SOLV>
-0.374701

>  <SCORE.INTRA.SOLV.lig_0>
-47.9129

>  <SCORE.INTRA.VDW>
-4.91778

>  <SCORE.INTRA.VDW.0>
2.00851

>  <SCORE.INTRA.norm>
-0.308007

>  <SCORE.RESTR>
0

>  <SCORE.RESTR.CAVITY>
0

>  <SCORE.RESTR.norm>
0

>  <SCORE.SYSTEM>
0

>  <SCORE.SYSTEM.CONST>
0

>  <SCORE.SYSTEM.DIHEDRAL>
0

>  <SCORE.SYSTEM.SOLV>
0

>  <SCORE.SYSTEM.norm>
0

>  <SCORE.heavy>
27

>  <SCORE.norm>
-0.660862

>  <RMSD>
20.872

$$$$
ligand
 OpenBabel11021811483D
libRbt.so/2013.1/901 2013/11/27
 27 29  0  0  0  0  0  0  0  0999 V2000
   -5.8776    4.0808   17.2468 N   0  0  0  0  0  0  0  0  0  0  0  0
   -6.7802    3.0246   16.7965 C   0  0  2  0  0  0  0  0  0  0  0  0
   -6.0644    1.9985   15.9221 C   0  0  0  0  0  0  0  0  0  0  0  0
   -6.5345    0.8720   15.7474 O   0  0  0  0  0  0  0  0  0  0  0  0
   -7.9937    3.6129   16.0829 C   0  0  0  0  0  0  0  0  0  0  0  0
   -7.6402    4.3470   14.7988 C   0  0  0  0  0  0  0  0  0  0  0  0
   -7.2911    3.2508   13.4014 S   0  0  2  0  0  0  0  0  0  0  0  0
   -7.1733    4.4586   12.0584 C   0  0  0  0  0  0  0  0  0  0  0  0
   -8.9334    2.5435   13.0995 C   0  0  0  0  0  0  0  0  0  0  0  0
   -8.8499    1.5454   11.9536 C   0  0  1  0  0  0  0  0  0  0  0  0
   -8.0107    0.4865   12.3489 O   0  0  0  0  0  0  0  0  0  0  0  0
  -10.1550    0.8740   11.5691 C   0  0  1  0  0  0  0  0  0  0  0  0
  -10.7625    1.5380   10.4834 O   0  0  0  0  0  0  0  0  0  0  0  0
   -9.7149   -0.5138   11.1495 C   0  0  1  0  0  0  0  0  0  0  0  0
   -9.7803   -0.5962    9.7471 O   0  0  0  0  0  0  0  0  0  0  0  0
   -8.2695   -0.6738   11.6009 C   0  0  2  0  0  0  0  0  0  0  0  0
   -4.9964    2.2766   15.3766 O   0  0  0  0  0  0  0  0  0  0  0  0
   -6.2476   -5.4833   12.3465 N   0  0  0  0  0  0  0  0  0  0  0  0
   -6.0693   -4.6424   11.2658 C   0  0  0  0  0  0  0  0  0  0  0  0
   -6.6809   -3.4035   11.2302 N   0  0  0  0  0  0  0  0  0  0  0  0
   -7.4684   -3.0002   12.2554 C   0  0  0  0  0  0  0  0  0  0  0  0
   -7.6526   -3.8293   13.3550 C   0  0  0  0  0  0  0  0  0  0  0  0
   -7.0428   -5.0773   13.3962 C   0  0  0  0  0  0  0  0  0  0  0  0
   -7.2270   -5.8752   14.4453 N   0  0  0  0  0  0  0  0  0  0  0  0
   -8.4649   -3.1904   14.2242 N   0  0  0  0  0  0  0  0  0  0  0  0
   -8.7815   -1.9785   13.7105 C   0  0  0  0  0  0  0  0  0  0  0  0
   -8.1724   -1.8430   12.4909 N   0  0  0  0  0  0  0  0  0  0  0  0
  2  1  1  6  0  0  0
  2  3  1  0  0  0  0
  2  5  1  0  0  0  0
  3  4  1  0  0  0  0
  3 17  1  0  0  0  0
  5  6  1  0  0  0  0
  7  6  1  1  0  0  0
  7  8  1  0  0  0  0
  7  9  1  0  0  0  0
 10  9  1  1  0  0  0
 10 11  1  0  0  0  0
 10 12  1  0  0  0  0
 11 16  1  0  0  0  0
 12 13  1  6  0  0  0
 12 14  1  0  0  0  0
 14 15  1  6  0  0  0
 14 16  1  0  0  0  0
 16 27  1  1  0  0  0
 18 19  2  0  0  0  0
 18 23  1  0  0  0  0
 19 20  1  0  0  0  0
 20 21  2  0  0  0  0
 21 22  1  0  0  0  0
 21 27  1  0  0  0  0
 22 23  2  0  0  0  0
 22 25  1  0  0  0  0
 23 24  1  0  0  0  0
 25 26  2  0  0  0  0
 26 27  1  0  0  0  0
M  END
>  <CHROM.1>
160.15745187,64.15777544,77.20636098,171.87621804,-178.70405390,63.65295448
-131.19434016,-7.71686455,0.07321836,13.25972008,-1.49459822,0.97234510,-2.90135810

>  <Name>
ligand

>  <RI>
0

>  <Rbt.Current_Directory>
/home/itssahil/PROJECTS/Mol_Feturizer/New_Systems/rnas/3GX6

>  <Rbt.Executable>
rbdock ($Id: //depot/dev/client3/rdock/2013.1/src/exe/rbdock.cxx#4 $)

>  <Rbt.Library>
libRbt.so (2013.1, Build901 2013/11/27)

>  <Rbt.Parameter_File>
/export/apps/rDock/src/rDock_2013.1_src/data/scripts/dock_solv.prm

>  <Rbt.Receptor>
prm/blind_docking_100.prm

>  <SCORE>
-19.8455

>  <SCORE.INTER>
-9.28726

>  <SCORE.INTER.CONST>
1

>  <SCORE.INTER.POLAR>
0

>  <SCORE.INTER.ROT>
7

>  <SCORE.INTER.SOLV>
10.9649

>  <SCORE.INTER.VDW>
-18.1131

>  <SCORE.INTER.norm>
-0.343973

>  <SCORE.INTRA>
-10.5583

>  <SCORE.INTRA.DIHEDRAL>
-10.3994

>  <SCORE.INTRA.DIHEDRAL.0>
15.0182

>  <SCORE.INTRA.POLAR>
0

>  <SCORE.INTRA.POLAR.0>
0

>  <SCORE.INTRA.REPUL>
0

>  <SCORE.INTRA.REPUL.0>
0

>  <SCORE.INTRA.SOLV>
-0.765083

>  <SCORE.INTRA.SOLV.lig_0>
-47.9129

>  <SCORE.INTRA.VDW>
-4.97603

>  <SCORE.INTRA.VDW.0>
2.00851

>  <SCORE.INTRA.norm>
-0.391047

>  <SCORE.RESTR>
0

>  <SCORE.RESTR.CAVITY>
0

>  <SCORE.RESTR.norm>
0

>  <SCORE.SYSTEM>
0

>  <SCORE.SYSTEM.CONST>
0

>  <SCORE.SYSTEM.DIHEDRAL>
0

>  <SCORE.SYSTEM.SOLV>
0

>  <SCORE.SYSTEM.norm>
0

>  <SCORE.heavy>
27

>  <SCORE.norm>
-0.73502

>  <RMSD>
21.004

$$$$
ligand
 OpenBabel11021811483D
libRbt.so/2013.1/901 2013/11/27
 27 29  0  0  0  0  0  0  0  0999 V2000
   -9.8681    4.9099    8.8117 N   0  0  0  0  0  0  0  0  0  0  0  0
  -10.6510    3.6941    9.0162 C   0  0  2  0  0  0  0  0  0  0  0  0
  -10.4130    2.6708    7.9089 C   0  0  0  0  0  0  0  0  0  0  0  0
  -10.3574    1.4644    8.1578 O   0  0  0  0  0  0  0  0  0  0  0  0
  -12.1344    4.0198    9.1625 C   0  0  0  0  0  0  0  0  0  0  0  0
  -12.4307    4.9791   10.3049 C   0  0  0  0  0  0  0  0  0  0  0  0
  -12.4162    4.1989   11.9381 S   0  0  2  0  0  0  0  0  0  0  0  0
  -12.6570    5.6478   12.9960 C   0  0  0  0  0  0  0  0  0  0  0  0
  -10.6426    3.8905   12.1570 C   0  0  0  0  0  0  0  0  0  0  0  0
  -10.4020    3.2842   13.5321 C   0  0  1  0  0  0  0  0  0  0  0  0
  -10.9737    1.9980   13.5550 O   0  0  0  0  0  0  0  0  0  0  0  0
   -8.9491    3.0621   13.9083 C   0  0  1  0  0  0  0  0  0  0  0  0
   -8.4591    4.1348   14.6816 O   0  0  0  0  0  0  0  0  0  0  0  0
   -9.0017    1.7997   14.7447 C   0  0  1  0  0  0  0  0  0  0  0  0
   -8.8294    2.1531   16.0950 O   0  0  0  0  0  0  0  0  0  0  0  0
  -10.3870    1.1985   14.5498 C   0  0  2  0  0  0  0  0  0  0  0  0
  -10.2663    3.0336    6.7416 O   0  0  0  0  0  0  0  0  0  0  0  0
   -8.1418   -3.5292   15.1686 N   0  0  0  0  0  0  0  0  0  0  0  0
   -7.9932   -2.4057   15.9577 C   0  0  0  0  0  0  0  0  0  0  0  0
   -8.6599   -1.2354   15.6477 N   0  0  0  0  0  0  0  0  0  0  0  0
   -9.4654   -1.1749   14.5608 C   0  0  0  0  0  0  0  0  0  0  0  0
   -9.6338   -2.2978   13.7600 C   0  0  0  0  0  0  0  0  0  0  0  0
   -8.9645   -3.4769   14.0643 C   0  0  0  0  0  0  0  0  0  0  0  0
   -9.1185   -4.5496   13.2918 N   0  0  0  0  0  0  0  0  0  0  0  0
  -10.4830   -1.9714   12.7621 N   0  0  0  0  0  0  0  0  0  0  0  0
  -10.8656   -0.6828   12.9230 C   0  0  0  0  0  0  0  0  0  0  0  0
  -10.2453   -0.1731   14.0330 N   0  0  0  0  0  0  0  0  0  0  0  0
  2  1  1  6  0  0  0
  2  3  1  0  0  0  0
  2  5  1  0  0  0  0
  3  4  1  0  0  0  0
  3 17  1  0  0  0  0
  5  6  1  0  0  0  0
  7  6  1  6  0  0  0
  7  8  1  0  0  0  0
  7  9  1  0  0  0  0
 10  9  1  6  0  0  0
 10 11  1  0  0  0  0
 10 12  1  0  0  0  0
 11 16  1  0  0  0  0
 12 13  1  1  0  0  0
 12 14  1  0  0  0  0
 14 15  1  1  0  0  0
 14 16  1  0  0  0  0
 16 27  1  6  0  0  0
 18 19  2  0  0  0  0
 18 23  1  0  0  0  0
 19 20  1  0  0  0  0
 20 21  2  0  0  0  0
 21 22  1  0  0  0  0
 21 27  1  0  0  0  0
 22 23  2  0  0  0  0
 22 25  1  0  0  0  0
 23 24  1  0  0  0  0
 25 26  2  0  0  0  0
 26 27  1  0  0  0  0
M  END
>  <CHROM.1>
141.98272163,-57.82136658,-78.07704522,175.35151828,177.24714640,67.40439220
164.50053479,-10.21494695,1.52263601,12.53388474,-3.04121227,-1.28908637
1.00648028

>  <Name>
ligand

>  <RI>
0

>  <Rbt.Current_Directory>
/home/itssahil/PROJECTS/Mol_Feturizer/New_Systems/rnas/3GX6

>  <Rbt.Executable>
rbdock ($Id: //depot/dev/client3/rdock/2013.1/src/exe/rbdock.cxx#4 $)

>  <Rbt.Library>
libRbt.so (2013.1, Build901 2013/11/27)

>  <Rbt.Parameter_File>
/export/apps/rDock/src/rDock_2013.1_src/data/scripts/dock_solv.prm

>  <Rbt.Receptor>
prm/blind_docking_100.prm

>  <SCORE>
-17.5723

>  <SCORE.INTER>
-8.08078

>  <SCORE.INTER.CONST>
1

>  <SCORE.INTER.POLAR>
0

>  <SCORE.INTER.ROT>
7

>  <SCORE.INTER.SOLV>
9.29419

>  <SCORE.INTER.VDW>
-16.7519

>  <SCORE.INTER.norm>
-0.299288

>  <SCORE.INTRA>
-9.49147

>  <SCORE.INTRA.DIHEDRAL>
-10.3179

>  <SCORE.INTRA.DIHEDRAL.0>
15.0182

>  <SCORE.INTRA.POLAR>
0

>  <SCORE.INTRA.POLAR.0>
0

>  <SCORE.INTRA.REPUL>
0

>  <SCORE.INTRA.REPUL.0>
0

>  <SCORE.INTRA.SOLV>
0.153957

>  <SCORE.INTRA.SOLV.lig_0>
-47.9129

>  <SCORE.INTRA.VDW>
-4.40949

>  <SCORE.INTRA.VDW.0>
2.00851

>  <SCORE.INTRA.norm>
-0.351536

>  <SCORE.RESTR>
0

>  <SCORE.RESTR.CAVITY>
0

>  <SCORE.RESTR.norm>
0

>  <SCORE.SYSTEM>
0

>  <SCORE.SYSTEM.CONST>
0

>  <SCORE.SYSTEM.DIHEDRAL>
0

>  <SCORE.SYSTEM.SOLV>
0

>  <SCORE.SYSTEM.norm>
0

>  <SCORE.heavy>
27

>  <SCORE.norm>
-0.650824

>  <RMSD>
21.037

$$$$
ligand
 OpenBabel11021811483D
libRbt.so/2013.1/901 2013/11/27
 27 29  0  0  0  0  0  0  0  0999 V2000
   -8.3795    0.7044   20.2823 N   0  0  0  0  0  0  0  0  0  0  0  0
   -9.2116    1.2622   19.2196 C   0  0  2  0  0  0  0  0  0  0  0  0
  -10.3518    0.3223   18.8368 C   0  0  0  0  0  0  0  0  0  0  0  0
  -11.3186    0.7257   18.1865 O   0  0  0  0  0  0  0  0  0  0  0  0
   -8.3666    1.6344   18.0050 C   0  0  0  0  0  0  0  0  0  0  0  0
   -7.3045    2.6801   18.3075 C   0  0  0  0  0  0  0  0  0  0  0  0
   -6.0356    2.8267   17.0252 S   0  0  2  0  0  0  0  0  0  0  0  0
   -4.6616    3.4921   17.9978 C   0  0  0  0  0  0  0  0  0  0  0  0
   -6.6010    4.3101   16.1486 C   0  0  0  0  0  0  0  0  0  0  0  0
   -7.8431    3.9732   15.3362 C   0  0  1  0  0  0  0  0  0  0  0  0
   -8.1915    5.1024   14.5713 O   0  0  0  0  0  0  0  0  0  0  0  0
   -7.6821    2.8590   14.3191 C   0  0  1  0  0  0  0  0  0  0  0  0
   -8.1209    1.6273   14.8473 O   0  0  0  0  0  0  0  0  0  0  0  0
   -8.5926    3.2938   13.1887 C   0  0  1  0  0  0  0  0  0  0  0  0
   -9.7482    2.4927   13.2150 O   0  0  0  0  0  0  0  0  0  0  0  0
   -8.9728    4.7430   13.4608 C   0  0  2  0  0  0  0  0  0  0  0  0
  -10.3292   -0.8608   19.1766 O   0  0  0  0  0  0  0  0  0  0  0  0
  -10.1282    8.8497   10.3663 N   0  0  0  0  0  0  0  0  0  0  0  0
  -10.8447    8.3663   11.4434 C   0  0  0  0  0  0  0  0  0  0  0  0
  -10.3957    7.2670   12.1506 N   0  0  0  0  0  0  0  0  0  0  0  0
   -9.2469    6.6462   11.7919 C   0  0  0  0  0  0  0  0  0  0  0  0
   -8.5082    7.1235   10.7163 C   0  0  0  0  0  0  0  0  0  0  0  0
   -8.9552    8.2266    9.9992 C   0  0  0  0  0  0  0  0  0  0  0  0
   -8.2524    8.6779    8.9631 N   0  0  0  0  0  0  0  0  0  0  0  0
   -7.4187    6.3372   10.5805 N   0  0  0  0  0  0  0  0  0  0  0  0
   -7.4432    5.3919   11.5492 C   0  0  0  0  0  0  0  0  0  0  0  0
   -8.5688    5.5681   12.3100 N   0  0  0  0  0  0  0  0  0  0  0  0
  2  1  1  1  0  0  0
  2  3  1  0  0  0  0
  2  5  1  0  0  0  0
  3  4  1  0  0  0  0
  3 17  1  0  0  0  0
  5  6  1  0  0  0  0
  7  6  1  1  0  0  0
  7  8  1  0  0  0  0
  7  9  1  0  0  0  0
 10  9  1  6  0  0  0
 10 11  1  0  0  0  0
 10 12  1  0  0  0  0
 11 16  1  0  0  0  0
 12 13  1  1  0  0  0
 12 14  1  0  0  0  0
 14 15  1  1  0  0  0
 14 16  1  0  0  0  0
 16 27  1  6  0  0  0
 18 19  2  0  0  0  0
 18 23  1  0  0  0  0
 19 20  1  0  0  0  0
 20 21  2  0  0  0  0
 21 22  1  0  0  0  0
 21 27  1  0  0  0  0
 22 23  2  0  0  0  0
 22 25  1  0  0  0  0
 23 24  1  0  0  0  0
 25 26  2  0  0  0  0
 26 27  1  0  0  0  0
M  END
>  <CHROM.1>
163.77258882,-60.57037561,165.18401608,-155.18824679,-72.73334494,-174.69824416
-103.64346637,-8.45141010,4.03902995,14.73956474,-1.52390845,-0.24715221
-0.87971330

>  <Name>
ligand

>  <RI>
0

>  <Rbt.Current_Directory>
/home/itssahil/PROJECTS/Mol_Feturizer/New_Systems/rnas/3GX6

>  <Rbt.Executable>
rbdock ($Id: //depot/dev/client3/rdock/2013.1/src/exe/rbdock.cxx#4 $)

>  <Rbt.Library>
libRbt.so (2013.1, Build901 2013/11/27)

>  <Rbt.Parameter_File>
/export/apps/rDock/src/rDock_2013.1_src/data/scripts/dock_solv.prm

>  <Rbt.Receptor>
prm/blind_docking_100.prm

>  <SCORE>
-22.064

>  <SCORE.INTER>
-13.0251

>  <SCORE.INTER.CONST>
1

>  <SCORE.INTER.POLAR>
0

>  <SCORE.INTER.ROT>
7

>  <SCORE.INTER.SOLV>
8.30077

>  <SCORE.INTER.VDW>
-19.717

>  <SCORE.INTER.norm>
-0.48241

>  <SCORE.INTRA>
-9.03892

>  <SCORE.INTRA.DIHEDRAL>
-8.33873

>  <SCORE.INTRA.DIHEDRAL.0>
15.0182

>  <SCORE.INTRA.POLAR>
0

>  <SCORE.INTRA.POLAR.0>
0

>  <SCORE.INTRA.REPUL>
0

>  <SCORE.INTRA.REPUL.0>
0

>  <SCORE.INTRA.SOLV>
-0.700935

>  <SCORE.INTRA.SOLV.lig_0>
-47.9129

>  <SCORE.INTRA.VDW>
-4.51908

>  <SCORE.INTRA.VDW.0>
2.00851

>  <SCORE.INTRA.norm>
-0.334775

>  <SCORE.RESTR>
0

>  <SCORE.RESTR.CAVITY>
0

>  <SCORE.RESTR.norm>
0

>  <SCORE.SYSTEM>
0

>  <SCORE.SYSTEM.CONST>
0

>  <SCORE.SYSTEM.DIHEDRAL>
0

>  <SCORE.SYSTEM.SOLV>
0

>  <SCORE.SYSTEM.norm>
0

>  <SCORE.heavy>
27

>  <SCORE.norm>
-0.817185

>  <RMSD>
21.072

$$$$
ligand
 OpenBabel11021811483D
libRbt.so/2013.1/901 2013/11/27
 27 29  0  0  0  0  0  0  0  0999 V2000
   -7.7779    3.6306   16.5818 N   0  0  0  0  0  0  0  0  0  0  0  0
   -8.1526    2.4732   15.7738 C   0  0  2  0  0  0  0  0  0  0  0  0
   -7.0199    1.4544   15.6789 C   0  0  0  0  0  0  0  0  0  0  0  0
   -7.2363    0.2475   15.8088 O   0  0  0  0  0  0  0  0  0  0  0  0
   -8.6281    2.9061   14.3901 C   0  0  0  0  0  0  0  0  0  0  0  0
   -9.8645    3.7909   14.4275 C   0  0  0  0  0  0  0  0  0  0  0  0
  -10.4420    4.3111   12.7928 S   0  0  2  0  0  0  0  0  0  0  0  0
  -11.8079    5.4033   13.2596 C   0  0  0  0  0  0  0  0  0  0  0  0
  -11.3396    2.8294   12.2567 C   0  0  0  0  0  0  0  0  0  0  0  0
  -10.4644    2.0260   11.3055 C   0  0  1  0  0  0  0  0  0  0  0  0
   -9.4609    1.3883   12.0591 O   0  0  0  0  0  0  0  0  0  0  0  0
  -11.1594    0.8986   10.5653 C   0  0  1  0  0  0  0  0  0  0  0  0
  -11.5667    1.3148    9.2809 O   0  0  0  0  0  0  0  0  0  0  0  0
  -10.0759   -0.1545   10.4513 C   0  0  1  0  0  0  0  0  0  0  0  0
   -9.6111   -0.1727    9.1241 O   0  0  0  0  0  0  0  0  0  0  0  0
   -8.9465    0.2719   11.3793 C   0  0  2  0  0  0  0  0  0  0  0  0
   -5.8626    1.8216   15.4750 O   0  0  0  0  0  0  0  0  0  0  0  0
   -6.8103   -4.4651   12.2584 N   0  0  0  0  0  0  0  0  0  0  0  0
   -6.8201   -3.7398   11.0833 C   0  0  0  0  0  0  0  0  0  0  0  0
   -7.4335   -2.5025   11.0256 N   0  0  0  0  0  0  0  0  0  0  0  0
   -8.0379   -1.9875   12.1224 C   0  0  0  0  0  0  0  0  0  0  0  0
   -8.0308   -2.6990   13.3158 C   0  0  0  0  0  0  0  0  0  0  0  0
   -7.4183   -3.9447   13.3802 C   0  0  0  0  0  0  0  0  0  0  0  0
   -7.4198   -4.6303   14.5209 N   0  0  0  0  0  0  0  0  0  0  0  0
   -8.6869   -1.9648   14.2399 N   0  0  0  0  0  0  0  0  0  0  0  0
   -9.0902   -0.8067   13.6664 C   0  0  0  0  0  0  0  0  0  0  0  0
   -8.6963   -0.8029   12.3543 N   0  0  0  0  0  0  0  0  0  0  0  0
  2  1  1  1  0  0  0
  2  3  1  0  0  0  0
  2  5  1  0  0  0  0
  3  4  1  0  0  0  0
  3 17  1  0  0  0  0
  5  6  1  0  0  0  0
  7  6  1  1  0  0  0
  7  8  1  0  0  0  0
  7  9  1  0  0  0  0
 10  9  1  1  0  0  0
 10 11  1  0  0  0  0
 10 12  1  0  0  0  0
 11 16  1  0  0  0  0
 12 13  1  6  0  0  0
 12 14  1  0  0  0  0
 14 15  1  6  0  0  0
 14 16  1  0  0  0  0
 16 27  1  1  0  0  0
 18 19  2  0  0  0  0
 18 23  1  0  0  0  0
 19 20  1  0  0  0  0
 20 21  2  0  0  0  0
 21 22  1  0  0  0  0
 21 27  1  0  0  0  0
 22 23  2  0  0  0  0
 22 25  1  0  0  0  0
 23 24  1  0  0  0  0
 25 26  2  0  0  0  0
 26 27  1  0  0  0  0
M  END
>  <CHROM.1>
135.82273440,-61.63945630,-179.93314988,-176.28141549,-100.33994964,74.10483266
-170.96494390,-8.91251738,0.53101720,12.89529403,-2.21173958,0.92819913,-2.51210964

>  <Name>
ligand

>  <RI>
0

>  <Rbt.Current_Directory>
/home/itssahil/PROJECTS/Mol_Feturizer/New_Systems/rnas/3GX6

>  <Rbt.Executable>
rbdock ($Id: //depot/dev/client3/rdock/2013.1/src/exe/rbdock.cxx#4 $)

>  <Rbt.Library>
libRbt.so (2013.1, Build901 2013/11/27)

>  <Rbt.Parameter_File>
/export/apps/rDock/src/rDock_2013.1_src/data/scripts/dock_solv.prm

>  <Rbt.Receptor>
prm/blind_docking_100.prm

>  <SCORE>
-18.1012

>  <SCORE.INTER>
-7.79876

>  <SCORE.INTER.CONST>
1

>  <SCORE.INTER.POLAR>
0

>  <SCORE.INTER.ROT>
7

>  <SCORE.INTER.SOLV>
6.19815

>  <SCORE.INTER.VDW>
-15.5319

>  <SCORE.INTER.norm>
-0.288843

>  <SCORE.INTRA>
-10.3025

>  <SCORE.INTRA.DIHEDRAL>
-8.33066

>  <SCORE.INTRA.DIHEDRAL.0>
15.0182

>  <SCORE.INTRA.POLAR>
0

>  <SCORE.INTRA.POLAR.0>
0

>  <SCORE.INTRA.REPUL>
0

>  <SCORE.INTRA.REPUL.0>
0

>  <SCORE.INTRA.SOLV>
-0.985472

>  <SCORE.INTRA.SOLV.lig_0>
-47.9129

>  <SCORE.INTRA.VDW>
-5.6444

>  <SCORE.INTRA.VDW.0>
2.00851

>  <SCORE.INTRA.norm>
-0.381573

>  <SCORE.RESTR>
0

>  <SCORE.RESTR.CAVITY>
0

>  <SCORE.RESTR.norm>
0

>  <SCORE.SYSTEM>
0

>  <SCORE.SYSTEM.CONST>
0

>  <SCORE.SYSTEM.DIHEDRAL>
0

>  <SCORE.SYSTEM.SOLV>
0

>  <SCORE.SYSTEM.norm>
0

>  <SCORE.heavy>
27

>  <SCORE.norm>
-0.670416

>  <RMSD>
21.074

$$$$
ligand
 OpenBabel11021811483D
libRbt.so/2013.1/901 2013/11/27
 27 29  0  0  0  0  0  0  0  0999 V2000
  -11.4680    2.8561   12.4613 N   0  0  0  0  0  0  0  0  0  0  0  0
  -11.5711    4.0718   13.2639 C   0  0  2  0  0  0  0  0  0  0  0  0
  -12.6871    4.9880   12.7688 C   0  0  0  0  0  0  0  0  0  0  0  0
  -13.4939    4.6064   11.9180 O   0  0  0  0  0  0  0  0  0  0  0  0
  -10.2336    4.8041   13.3174 C   0  0  0  0  0  0  0  0  0  0  0  0
   -9.5991    5.0003   11.9492 C   0  0  0  0  0  0  0  0  0  0  0  0
   -8.0243    5.8915   11.9938 S   0  0  2  0  0  0  0  0  0  0  0  0
   -7.7675    6.1926   10.2275 C   0  0  0  0  0  0  0  0  0  0  0  0
   -6.8656    4.5292   12.2937 C   0  0  0  0  0  0  0  0  0  0  0  0
   -6.9673    4.0913   13.7478 C   0  0  1  0  0  0  0  0  0  0  0  0
   -7.9654    3.1033   13.8439 O   0  0  0  0  0  0  0  0  0  0  0  0
   -5.7267    3.4372   14.3264 C   0  0  1  0  0  0  0  0  0  0  0  0
   -4.9431    4.3759   15.0290 O   0  0  0  0  0  0  0  0  0  0  0  0
   -6.2965    2.4131   15.2868 C   0  0  1  0  0  0  0  0  0  0  0  0
   -6.1127    2.8834   16.5994 O   0  0  0  0  0  0  0  0  0  0  0  0
   -7.7860    2.3090   14.9884 C   0  0  2  0  0  0  0  0  0  0  0  0
  -12.7994    6.1324   13.2084 O   0  0  0  0  0  0  0  0  0  0  0  0
   -9.0107   -1.1338   11.1906 N   0  0  0  0  0  0  0  0  0  0  0  0
   -8.7585    0.2182   11.0660 C   0  0  0  0  0  0  0  0  0  0  0  0
   -8.4516    0.9818   12.1764 N   0  0  0  0  0  0  0  0  0  0  0  0
   -8.3990    0.4126   13.4040 C   0  0  0  0  0  0  0  0  0  0  0  0
   -8.6413   -0.9480   13.5477 C   0  0  0  0  0  0  0  0  0  0  0  0
   -8.9531   -1.7211   12.4359 C   0  0  0  0  0  0  0  0  0  0  0  0
   -9.1945   -3.0224   12.5751 N   0  0  0  0  0  0  0  0  0  0  0  0
   -8.5186   -1.2546   14.8571 N   0  0  0  0  0  0  0  0  0  0  0  0
   -8.1896   -0.1307   15.5362 C   0  0  0  0  0  0  0  0  0  0  0  0
   -8.1105    0.9126   14.6519 N   0  0  0  0  0  0  0  0  0  0  0  0
  2  1  1  6  0  0  0
  2  3  1  0  0  0  0
  2  5  1  0  0  0  0
  3  4  1  0  0  0  0
  3 17  1  0  0  0  0
  5  6  1  0  0  0  0
  7  6  1  6  0  0  0
  7  8  1  0  0  0  0
  7  9  1  0  0  0  0
 10  9  1  6  0  0  0
 10 11  1  0  0  0  0
 10 12  1  0  0  0  0
 11 16  1  0  0  0  0
 12 13  1  1  0  0  0
 12 14  1  0  0  0  0
 14 15  1  1  0  0  0
 14 16  1  0  0  0  0
 16 27  1  6  0  0  0
 18 19  2  0  0  0  0
 18 23  1  0  0  0  0
 19 20  1  0  0  0  0
 20 21  2  0  0  0  0
 21 22  1  0  0  0  0
 21 27  1  0  0  0  0
 22 23  2  0  0  0  0
 22 25  1  0  0  0  0
 23 24  1  0  0  0  0
 25 26  2  0  0  0  0
 26 27  1  0  0  0  0
M  END
>  <CHROM.1>
9.65554915,49.43391684,179.06060033,-169.78699870,-75.03075835,88.80471013
6.69548904,-8.72975368,2.70963457,13.22906151,1.93494911,-0.41516305,-0.06939980

>  <Name>
ligand

>  <RI>
0

>  <Rbt.Current_Directory>
/home/itssahil/PROJECTS/Mol_Feturizer/New_Systems/rnas/3GX6

>  <Rbt.Executable>
rbdock ($Id: //depot/dev/client3/rdock/2013.1/src/exe/rbdock.cxx#4 $)

>  <Rbt.Library>
libRbt.so (2013.1, Build901 2013/11/27)

>  <Rbt.Parameter_File>
/export/apps/rDock/src/rDock_2013.1_src/data/scripts/dock_solv.prm

>  <Rbt.Receptor>
prm/blind_docking_100.prm

>  <SCORE>
-23.3403

>  <SCORE.INTER>
-14.42

>  <SCORE.INTER.CONST>
1

>  <SCORE.INTER.POLAR>
0

>  <SCORE.INTER.ROT>
7

>  <SCORE.INTER.SOLV>
8.97309

>  <SCORE.INTER.VDW>
-20.871

>  <SCORE.INTER.norm>
-0.534074

>  <SCORE.INTRA>
-8.9203

>  <SCORE.INTRA.DIHEDRAL>
-7.83332

>  <SCORE.INTRA.DIHEDRAL.0>
15.0182

>  <SCORE.INTRA.POLAR>
0

>  <SCORE.INTRA.POLAR.0>
0

>  <SCORE.INTRA.REPUL>
0

>  <SCORE.INTRA.REPUL.0>
0

>  <SCORE.INTRA.SOLV>
-0.112691

>  <SCORE.INTRA.SOLV.lig_0>
-47.9129

>  <SCORE.INTRA.VDW>
-4.9473

>  <SCORE.INTRA.VDW.0>
2.00851

>  <SCORE.INTRA.norm>
-0.330382

>  <SCORE.RESTR>
0

>  <SCORE.RESTR.CAVITY>
0

>  <SCORE.RESTR.norm>
0

>  <SCORE.SYSTEM>
0

>  <SCORE.SYSTEM.CONST>
0

>  <SCORE.SYSTEM.DIHEDRAL>
0

>  <SCORE.SYSTEM.SOLV>
0

>  <SCORE.SYSTEM.norm>
0

>  <SCORE.heavy>
27

>  <SCORE.norm>
-0.864455

>  <RMSD>
21.139

$$$$
ligand
 OpenBabel11021811483D
libRbt.so/2013.1/901 2013/11/27
 27 29  0  0  0  0  0  0  0  0999 V2000
  -10.2958    5.5364   10.5681 N   0  0  0  0  0  0  0  0  0  0  0  0
   -9.5751    6.2689   11.6057 C   0  0  2  0  0  0  0  0  0  0  0  0
  -10.4140    7.4029   12.1890 C   0  0  0  0  0  0  0  0  0  0  0  0
  -10.3809    7.6652   13.3934 O   0  0  0  0  0  0  0  0  0  0  0  0
   -8.2368    6.7806   11.0814 C   0  0  0  0  0  0  0  0  0  0  0  0
   -7.1780    5.6944   10.9707 C   0  0  0  0  0  0  0  0  0  0  0  0
   -6.6352    5.0361   12.5670 S   0  0  2  0  0  0  0  0  0  0  0  0
   -5.3990    3.8315   12.0219 C   0  0  0  0  0  0  0  0  0  0  0  0
   -8.0276    3.9518   12.9842 C   0  0  0  0  0  0  0  0  0  0  0  0
   -7.8455    3.4183   14.3979 C   0  0  1  0  0  0  0  0  0  0  0  0
   -8.6928    2.3065   14.5641 O   0  0  0  0  0  0  0  0  0  0  0  0
   -6.4608    2.8951   14.7307 C   0  0  1  0  0  0  0  0  0  0  0  0
   -5.6915    3.8828   15.3798 O   0  0  0  0  0  0  0  0  0  0  0  0
   -6.7471    1.7508   15.6817 C   0  0  1  0  0  0  0  0  0  0  0  0
   -6.4142    2.1614   16.9849 O   0  0  0  0  0  0  0  0  0  0  0  0
   -8.2425    1.4747   15.6025 C   0  0  2  0  0  0  0  0  0  0  0  0
  -11.1468    8.0766   11.4646 O   0  0  0  0  0  0  0  0  0  0  0  0
   -8.5964   -1.9805   11.6387 N   0  0  0  0  0  0  0  0  0  0  0  0
   -8.3690   -0.6204   11.5655 C   0  0  0  0  0  0  0  0  0  0  0  0
   -8.3078    0.1453   12.7145 N   0  0  0  0  0  0  0  0  0  0  0  0
   -8.4752   -0.4299   13.9290 C   0  0  0  0  0  0  0  0  0  0  0  0
   -8.6963   -1.7984   14.0227 C   0  0  0  0  0  0  0  0  0  0  0  0
   -8.7617   -2.5738   12.8715 C   0  0  0  0  0  0  0  0  0  0  0  0
   -8.9830   -3.8831   12.9610 N   0  0  0  0  0  0  0  0  0  0  0  0
   -8.8194   -2.1095   15.3310 N   0  0  0  0  0  0  0  0  0  0  0  0
   -8.6648   -0.9801   16.0613 C   0  0  0  0  0  0  0  0  0  0  0  0
   -8.4501    0.0709   15.2092 N   0  0  0  0  0  0  0  0  0  0  0  0
  2  1  1  6  0  0  0
  2  3  1  0  0  0  0
  2  5  1  0  0  0  0
  3  4  1  0  0  0  0
  3 17  1  0  0  0  0
  5  6  1  0  0  0  0
  7  6  1  6  0  0  0
  7  8  1  0  0  0  0
  7  9  1  0  0  0  0
 10  9  1  6  0  0  0
 10 11  1  0  0  0  0
 10 12  1  0  0  0  0
 11 16  1  0  0  0  0
 12 13  1  1  0  0  0
 12 14  1  0  0  0  0
 14 15  1  1  0  0  0
 14 16  1  0  0  0  0
 16 27  1  6  0  0  0
 18 19  2  0  0  0  0
 18 23  1  0  0  0  0
 19 20  1  0  0  0  0
 20 21  2  0  0  0  0
 21 22  1  0  0  0  0
 21 27  1  0  0  0  0
 22 23  2  0  0  0  0
 22 25  1  0  0  0  0
 23 24  1  0  0  0  0
 25 26  2  0  0  0  0
 26 27  1  0  0  0  0
M  END
>  <CHROM.1>
141.44485928,-75.98170089,-67.43873270,-179.14691579,-173.09647221,-163.19160096
27.76346271,-8.18659835,2.61714037,13.39293290,1.69412729,-0.92455792,-0.15632942

>  <Name>
ligand

>  <RI>
0

>  <Rbt.Current_Directory>
/home/itssahil/PROJECTS/Mol_Feturizer/New_Systems/rnas/3GX6

>  <Rbt.Executable>
rbdock ($Id: //depot/dev/client3/rdock/2013.1/src/exe/rbdock.cxx#4 $)

>  <Rbt.Library>
libRbt.so (2013.1, Build901 2013/11/27)

>  <Rbt.Parameter_File>
/export/apps/rDock/src/rDock_2013.1_src/data/scripts/dock_solv.prm

>  <Rbt.Receptor>
prm/blind_docking_20.prm

>  <SCORE>
-21.619

>  <SCORE.INTER>
-13.1276

>  <SCORE.INTER.CONST>
1

>  <SCORE.INTER.POLAR>
0

>  <SCORE.INTER.ROT>
7

>  <SCORE.INTER.SOLV>
9.34419

>  <SCORE.INTER.VDW>
-20.1331

>  <SCORE.INTER.norm>
-0.486207

>  <SCORE.INTRA>
-8.49145

>  <SCORE.INTRA.DIHEDRAL>
-8.75467

>  <SCORE.INTRA.DIHEDRAL.0>
15.0182

>  <SCORE.INTRA.POLAR>
0

>  <SCORE.INTRA.POLAR.0>
0

>  <SCORE.INTRA.REPUL>
0

>  <SCORE.INTRA.REPUL.0>
0

>  <SCORE.INTRA.SOLV>
0.229702

>  <SCORE.INTRA.SOLV.lig_0>
-47.9129

>  <SCORE.INTRA.VDW>
-4.22897

>  <SCORE.INTRA.VDW.0>
2.00851

>  <SCORE.INTRA.norm>
-0.314498

>  <SCORE.RESTR>
0

>  <SCORE.RESTR.CAVITY>
0

>  <SCORE.RESTR.norm>
0

>  <SCORE.SYSTEM>
0

>  <SCORE.SYSTEM.CONST>
0

>  <SCORE.SYSTEM.DIHEDRAL>
0

>  <SCORE.SYSTEM.SOLV>
0

>  <SCORE.SYSTEM.norm>
0

>  <SCORE.heavy>
27

>  <SCORE.norm>
-0.800705

>  <RMSD>
21.140

$$$$
ligand
 OpenBabel11021811483D
libRbt.so/2013.1/901 2013/11/27
 27 29  0  0  0  0  0  0  0  0999 V2000
   -5.6722   -4.9267   11.0115 N   0  0  0  0  0  0  0  0  0  0  0  0
   -6.2807   -5.0217   12.3357 C   0  0  2  0  0  0  0  0  0  0  0  0
   -6.2562   -6.4505   12.8723 C   0  0  0  0  0  0  0  0  0  0  0  0
   -6.2674   -6.6758   14.0845 O   0  0  0  0  0  0  0  0  0  0  0  0
   -7.6976   -4.4560   12.3258 C   0  0  0  0  0  0  0  0  0  0  0  0
   -7.7505   -2.9692   12.0101 C   0  0  0  0  0  0  0  0  0  0  0  0
   -9.4292   -2.2966   11.9330 S   0  0  2  0  0  0  0  0  0  0  0  0
  -10.0463   -3.1245   10.4462 C   0  0  0  0  0  0  0  0  0  0  0  0
   -9.1035   -0.6284   11.3010 C   0  0  0  0  0  0  0  0  0  0  0  0
   -8.5210    0.2285   12.4157 C   0  0  1  0  0  0  0  0  0  0  0  0
   -7.9879    1.3984   11.8422 O   0  0  0  0  0  0  0  0  0  0  0  0
   -9.5135    0.7286   13.4485 C   0  0  1  0  0  0  0  0  0  0  0  0
   -9.5302   -0.1127   14.5801 O   0  0  0  0  0  0  0  0  0  0  0  0
   -8.9626    2.0901   13.8209 C   0  0  1  0  0  0  0  0  0  0  0  0
   -8.3703    1.9976   15.0931 O   0  0  0  0  0  0  0  0  0  0  0  0
   -7.8972    2.4327   12.7883 C   0  0  2  0  0  0  0  0  0  0  0  0
   -6.2194   -7.4089   12.1005 O   0  0  0  0  0  0  0  0  0  0  0  0
  -11.6284    6.0615   11.9607 N   0  0  0  0  0  0  0  0  0  0  0  0
  -11.7152    4.9064   12.7124 C   0  0  0  0  0  0  0  0  0  0  0  0
  -10.6314    4.0559   12.8229 N   0  0  0  0  0  0  0  0  0  0  0  0
   -9.4694    4.3438   12.1898 C   0  0  0  0  0  0  0  0  0  0  0  0
   -9.3606    5.5059   11.4360 C   0  0  0  0  0  0  0  0  0  0  0  0
  -10.4472    6.3640   11.3184 C   0  0  0  0  0  0  0  0  0  0  0  0
  -10.3458    7.4722   10.5886 N   0  0  0  0  0  0  0  0  0  0  0  0
   -8.1111    5.5534   10.9260 N   0  0  0  0  0  0  0  0  0  0  0  0
   -7.4279    4.4650   11.3516 C   0  0  0  0  0  0  0  0  0  0  0  0
   -8.2536    3.7040   12.1364 N   0  0  0  0  0  0  0  0  0  0  0  0
  2  1  1  6  0  0  0
  2  3  1  0  0  0  0
  2  5  1  0  0  0  0
  3  4  1  0  0  0  0
  3 17  1  0  0  0  0
  5  6  1  0  0  0  0
  7  6  1  6  0  0  0
  7  8  1  0  0  0  0
  7  9  1  0  0  0  0
 10  9  1  6  0  0  0
 10 11  1  0  0  0  0
 10 12  1  0  0  0  0
 11 16  1  0  0  0  0
 12 13  1  1  0  0  0
 12 14  1  0  0  0  0
 14 15  1  1  0  0  0
 14 16  1  0  0  0  0
 16 27  1  6  0  0  0
 18 19  2  0  0  0  0
 18 23  1  0  0  0  0
 19 20  1  0  0  0  0
 20 21  2  0  0  0  0
 21 22  1  0  0  0  0
 21 27  1  0  0  0  0
 22 23  2  0  0  0  0
 22 25  1  0  0  0  0
 23 24  1  0  0  0  0
 25 26  2  0  0  0  0
 26 27  1  0  0  0  0
M  END
>  <CHROM.1>
154.06008073,-63.80193009,177.81216102,-67.92315778,-74.98244567,166.33723506
99.02786491,-8.63234757,0.34948986,12.30228650,-1.04190433,1.03607310,-0.50962580

>  <Name>
ligand

>  <RI>
0

>  <Rbt.Current_Directory>
/home/itssahil/PROJECTS/Mol_Feturizer/New_Systems/rnas/3GX6

>  <Rbt.Executable>
rbdock ($Id: //depot/dev/client3/rdock/2013.1/src/exe/rbdock.cxx#4 $)

>  <Rbt.Library>
libRbt.so (2013.1, Build901 2013/11/27)

>  <Rbt.Parameter_File>
/export/apps/rDock/src/rDock_2013.1_src/data/scripts/dock_solv.prm

>  <Rbt.Receptor>
prm/blind_docking_20.prm

>  <SCORE>
-17.5731

>  <SCORE.INTER>
-7.86909

>  <SCORE.INTER.CONST>
1

>  <SCORE.INTER.POLAR>
0

>  <SCORE.INTER.ROT>
7

>  <SCORE.INTER.SOLV>
13.5607

>  <SCORE.INTER.VDW>
-18.033

>  <SCORE.INTER.norm>
-0.291448

>  <SCORE.INTRA>
-9.70402

>  <SCORE.INTRA.DIHEDRAL>
-10.9946

>  <SCORE.INTRA.DIHEDRAL.0>
15.0182

>  <SCORE.INTRA.POLAR>
0

>  <SCORE.INTRA.POLAR.0>
0

>  <SCORE.INTRA.REPUL>
0

>  <SCORE.INTRA.REPUL.0>
0

>  <SCORE.INTRA.SOLV>
-1.00906

>  <SCORE.INTRA.SOLV.lig_0>
-47.9129

>  <SCORE.INTRA.VDW>
-3.70219

>  <SCORE.INTRA.VDW.0>
2.00851

>  <SCORE.INTRA.norm>
-0.359408

>  <SCORE.RESTR>
0

>  <SCORE.RESTR.CAVITY>
0

>  <SCORE.RESTR.norm>
0

>  <SCORE.SYSTEM>
0

>  <SCORE.SYSTEM.CONST>
0

>  <SCORE.SYSTEM.DIHEDRAL>
0

>  <SCORE.SYSTEM.SOLV>
0

>  <SCORE.SYSTEM.norm>
0

>  <SCORE.heavy>
27

>  <SCORE.norm>
-0.650856

>  <RMSD>
21.217

$$$$
ligand
 OpenBabel11021811483D
libRbt.so/2013.1/901 2013/11/27
 27 29  0  0  0  0  0  0  0  0999 V2000
   -8.4994    0.0647   20.6193 N   0  0  0  0  0  0  0  0  0  0  0  0
   -8.6754    1.1239   19.6293 C   0  0  2  0  0  0  0  0  0  0  0  0
   -9.8964    0.8806   18.7462 C   0  0  0  0  0  0  0  0  0  0  0  0
  -10.6265    1.8114   18.3984 O   0  0  0  0  0  0  0  0  0  0  0  0
   -7.4118    1.3033   18.7933 C   0  0  0  0  0  0  0  0  0  0  0  0
   -7.4770    2.4953   17.8510 C   0  0  0  0  0  0  0  0  0  0  0  0
   -5.9963    2.7039   16.8310 S   0  0  2  0  0  0  0  0  0  0  0  0
   -4.8763    3.4670   18.0309 C   0  0  0  0  0  0  0  0  0  0  0  0
   -6.4693    4.1370   15.8256 C   0  0  0  0  0  0  0  0  0  0  0  0
   -7.7004    3.7903   15.0007 C   0  0  1  0  0  0  0  0  0  0  0  0
   -8.0767    4.9306   14.2661 O   0  0  0  0  0  0  0  0  0  0  0  0
   -7.5080    2.7091   13.9538 C   0  0  1  0  0  0  0  0  0  0  0  0
   -7.9154    1.4522   14.4466 O   0  0  0  0  0  0  0  0  0  0  0  0
   -8.4271    3.1509   12.8331 C   0  0  1  0  0  0  0  0  0  0  0  0
   -9.5613    2.3194   12.8340 O   0  0  0  0  0  0  0  0  0  0  0  0
   -8.8458    4.5816   13.1438 C   0  0  2  0  0  0  0  0  0  0  0  0
  -10.1790   -0.2561   18.3674 O   0  0  0  0  0  0  0  0  0  0  0  0
  -10.0266    8.8266   10.2523 N   0  0  0  0  0  0  0  0  0  0  0  0
  -10.7209    8.3081   11.3275 C   0  0  0  0  0  0  0  0  0  0  0  0
  -10.2684    7.1751   11.9768 N   0  0  0  0  0  0  0  0  0  0  0  0
   -9.1379    6.5553   11.5622 C   0  0  0  0  0  0  0  0  0  0  0  0
   -8.4214    7.0674   10.4876 C   0  0  0  0  0  0  0  0  0  0  0  0
   -8.8721    8.2047    9.8285 C   0  0  0  0  0  0  0  0  0  0  0  0
   -8.1908    8.6895    8.7932 N   0  0  0  0  0  0  0  0  0  0  0  0
   -7.3467    6.2739   10.2905 N   0  0  0  0  0  0  0  0  0  0  0  0
   -7.3584    5.2898   11.2200 C   0  0  0  0  0  0  0  0  0  0  0  0
   -8.4611    5.4484   12.0173 N   0  0  0  0  0  0  0  0  0  0  0  0
  2  1  1  1  0  0  0
  2  3  1  0  0  0  0
  2  5  1  0  0  0  0
  3  4  1  0  0  0  0
  3 17  1  0  0  0  0
  5  6  1  0  0  0  0
  7  6  1  1  0  0  0
  7  8  1  0  0  0  0
  7  9  1  0  0  0  0
 10  9  1  6  0  0  0
 10 11  1  0  0  0  0
 10 12  1  0  0  0  0
 11 16  1  0  0  0  0
 12 13  1  1  0  0  0
 12 14  1  0  0  0  0
 14 15  1  1  0  0  0
 14 16  1  0  0  0  0
 16 27  1  6  0  0  0
 18 19  2  0  0  0  0
 18 23  1  0  0  0  0
 19 20  1  0  0  0  0
 20 21  2  0  0  0  0
 21 22  1  0  0  0  0
 21 27  1  0  0  0  0
 22 23  2  0  0  0  0
 22 25  1  0  0  0  0
 23 24  1  0  0  0  0
 25 26  2  0  0  0  0
 26 27  1  0  0  0  0
M  END
>  <CHROM.1>
140.99585516,-173.49544412,-178.97219297,-78.45024751,-61.24996655,177.92231124
-100.73671058,-8.28852310,3.99915664,14.56296860,1.49814232,0.14281804,2.22938630

>  <Name>
ligand

>  <RI>
0

>  <Rbt.Current_Directory>
/home/itssahil/PROJECTS/Mol_Feturizer/New_Systems/rnas/3GX6

>  <Rbt.Executable>
rbdock ($Id: //depot/dev/client3/rdock/2013.1/src/exe/rbdock.cxx#4 $)

>  <Rbt.Library>
libRbt.so (2013.1, Build901 2013/11/27)

>  <Rbt.Parameter_File>
/export/apps/rDock/src/rDock_2013.1_src/data/scripts/dock_solv.prm

>  <Rbt.Receptor>
prm/blind_docking_60.prm

>  <SCORE>
-21.5142

>  <SCORE.INTER>
-11.0468

>  <SCORE.INTER.CONST>
1

>  <SCORE.INTER.POLAR>
0

>  <SCORE.INTER.ROT>
7

>  <SCORE.INTER.SOLV>
8.77712

>  <SCORE.INTER.VDW>
-18.5569

>  <SCORE.INTER.norm>
-0.409142

>  <SCORE.INTRA>
-10.4674

>  <SCORE.INTRA.DIHEDRAL>
-11.1782

>  <SCORE.INTRA.DIHEDRAL.0>
15.0182

>  <SCORE.INTRA.POLAR>
0

>  <SCORE.INTRA.POLAR.0>
0

>  <SCORE.INTRA.REPUL>
0

>  <SCORE.INTRA.REPUL.0>
0

>  <SCORE.INTRA.SOLV>
-1.58667

>  <SCORE.INTRA.SOLV.lig_0>
-47.9129

>  <SCORE.INTRA.VDW>
-4.08492

>  <SCORE.INTRA.VDW.0>
2.00851

>  <SCORE.INTRA.norm>
-0.387681

>  <SCORE.RESTR>
0

>  <SCORE.RESTR.CAVITY>
0

>  <SCORE.RESTR.norm>
0

>  <SCORE.SYSTEM>
0

>  <SCORE.SYSTEM.CONST>
0

>  <SCORE.SYSTEM.DIHEDRAL>
0

>  <SCORE.SYSTEM.SOLV>
0

>  <SCORE.SYSTEM.norm>
0

>  <SCORE.heavy>
27

>  <SCORE.norm>
-0.796823

>  <RMSD>
21.249

$$$$
ligand
 OpenBabel11021811483D
libRbt.so/2013.1/901 2013/11/27
 27 29  0  0  0  0  0  0  0  0999 V2000
   -5.8520   -4.8121   10.3345 N   0  0  0  0  0  0  0  0  0  0  0  0
   -6.3922   -3.8373   11.2784 C   0  0  2  0  0  0  0  0  0  0  0  0
   -6.5306   -4.4204   12.6822 C   0  0  0  0  0  0  0  0  0  0  0  0
   -7.2077   -5.4300   12.8886 O   0  0  0  0  0  0  0  0  0  0  0  0
   -7.7182   -3.2719   10.7782 C   0  0  0  0  0  0  0  0  0  0  0  0
   -8.2203   -2.0956   11.6012 C   0  0  0  0  0  0  0  0  0  0  0  0
   -8.8344   -2.5581   13.2399 S   0  0  2  0  0  0  0  0  0  0  0  0
  -10.1599   -3.7027   12.7826 C   0  0  0  0  0  0  0  0  0  0  0  0
   -9.7818   -1.0769   13.6836 C   0  0  0  0  0  0  0  0  0  0  0  0
   -8.8230    0.0294   14.0997 C   0  0  1  0  0  0  0  0  0  0  0  0
   -8.4472    0.7460   12.9478 O   0  0  0  0  0  0  0  0  0  0  0  0
   -9.3956    1.0803   15.0323 C   0  0  1  0  0  0  0  0  0  0  0  0
   -9.0844    0.7852   16.3757 O   0  0  0  0  0  0  0  0  0  0  0  0
   -8.6834    2.3458   14.5996 C   0  0  1  0  0  0  0  0  0  0  0  0
   -7.7130    2.6631   15.5668 O   0  0  0  0  0  0  0  0  0  0  0  0
   -7.9985    2.0361   13.2754 C   0  0  2  0  0  0  0  0  0  0  0  0
   -5.9700   -3.8874   13.6400 O   0  0  0  0  0  0  0  0  0  0  0  0
   -6.8744    6.1937   10.2380 N   0  0  0  0  0  0  0  0  0  0  0  0
   -6.0535    5.5560   11.1470 C   0  0  0  0  0  0  0  0  0  0  0  0
   -6.5130    4.4709   11.8693 N   0  0  0  0  0  0  0  0  0  0  0  0
   -7.7789    4.0217   11.6970 C   0  0  0  0  0  0  0  0  0  0  0  0
   -8.6165    4.6455   10.7805 C   0  0  0  0  0  0  0  0  0  0  0  0
   -8.1619    5.7386   10.0530 C   0  0  0  0  0  0  0  0  0  0  0  0
   -8.9674    6.3418    9.1822 N   0  0  0  0  0  0  0  0  0  0  0  0
   -9.8039    4.0025   10.8002 N   0  0  0  0  0  0  0  0  0  0  0  0
   -9.7302    2.9837   11.6886 C   0  0  0  0  0  0  0  0  0  0  0  0
   -8.4823    2.9799   12.2538 N   0  0  0  0  0  0  0  0  0  0  0  0
  2  1  1  6  0  0  0
  2  3  1  0  0  0  0
  2  5  1  0  0  0  0
  3  4  1  0  0  0  0
  3 17  1  0  0  0  0
  5  6  1  0  0  0  0
  7  6  1  6  0  0  0
  7  8  1  0  0  0  0
  7  9  1  0  0  0  0
 10  9  1  6  0  0  0
 10 11  1  0  0  0  0
 10 12  1  0  0  0  0
 11 16  1  0  0  0  0
 12 13  1  1  0  0  0
 12 14  1  0  0  0  0
 14 15  1  1  0  0  0
 14 16  1  0  0  0  0
 16 27  1  6  0  0  0
 18 19  2  0  0  0  0
 18 23  1  0  0  0  0
 19 20  1  0  0  0  0
 20 21  2  0  0  0  0
 21 22  1  0  0  0  0
 21 27  1  0  0  0  0
 22 23  2  0  0  0  0
 22 25  1  0  0  0  0
 23 24  1  0  0  0  0
 25 26  2  0  0  0  0
 26 27  1  0  0  0  0
M  END
>  <CHROM.1>
-57.41259523,-170.80011562,-72.19694140,-59.44085024,-76.58130102,88.19874461
-138.98784013,-8.10318410,0.51898271,12.49427444,-1.42565396,1.18337382,-0.28319336

>  <Name>
ligand

>  <RI>
0

>  <Rbt.Current_Directory>
/home/itssahil/PROJECTS/Mol_Feturizer/New_Systems/rnas/3GX6

>  <Rbt.Executable>
rbdock ($Id: //depot/dev/client3/rdock/2013.1/src/exe/rbdock.cxx#4 $)

>  <Rbt.Library>
libRbt.so (2013.1, Build901 2013/11/27)

>  <Rbt.Parameter_File>
/export/apps/rDock/src/rDock_2013.1_src/data/scripts/dock_solv.prm

>  <Rbt.Receptor>
prm/blind_docking_20.prm

>  <SCORE>
-20.0352

>  <SCORE.INTER>
-10.3492

>  <SCORE.INTER.CONST>
1

>  <SCORE.INTER.POLAR>
0

>  <SCORE.INTER.ROT>
7

>  <SCORE.INTER.SOLV>
13.5788

>  <SCORE.INTER.VDW>
-19.6924

>  <SCORE.INTER.norm>
-0.383305

>  <SCORE.INTRA>
-9.686

>  <SCORE.INTRA.DIHEDRAL>
-8.19339

>  <SCORE.INTRA.DIHEDRAL.0>
15.0182

>  <SCORE.INTRA.POLAR>
0

>  <SCORE.INTRA.POLAR.0>
0

>  <SCORE.INTRA.REPUL>
0

>  <SCORE.INTRA.REPUL.0>
0

>  <SCORE.INTRA.SOLV>
-1.72059

>  <SCORE.INTRA.SOLV.lig_0>
-47.9129

>  <SCORE.INTRA.VDW>
-4.72901

>  <SCORE.INTRA.VDW.0>
2.00851

>  <SCORE.INTRA.norm>
-0.358741

>  <SCORE.RESTR>
0

>  <SCORE.RESTR.CAVITY>
0

>  <SCORE.RESTR.norm>
0

>  <SCORE.SYSTEM>
0

>  <SCORE.SYSTEM.CONST>
0

>  <SCORE.SYSTEM.DIHEDRAL>
0

>  <SCORE.SYSTEM.SOLV>
0

>  <SCORE.SYSTEM.norm>
0

>  <SCORE.heavy>
27

>  <SCORE.norm>
-0.742046

>  <RMSD>
21.275

$$$$
ligand
 OpenBabel11021811483D
libRbt.so/2013.1/901 2013/11/27
 27 29  0  0  0  0  0  0  0  0999 V2000
   -5.6364   -4.9593   10.4325 N   0  0  0  0  0  0  0  0  0  0  0  0
   -6.5492   -5.2912   11.5232 C   0  0  2  0  0  0  0  0  0  0  0  0
   -6.7083   -6.7997   11.6934 C   0  0  0  0  0  0  0  0  0  0  0  0
   -7.5196   -7.4350   11.0162 O   0  0  0  0  0  0  0  0  0  0  0  0
   -7.8998   -4.6082   11.3299 C   0  0  0  0  0  0  0  0  0  0  0  0
   -7.8119   -3.0899   11.3247 C   0  0  0  0  0  0  0  0  0  0  0  0
   -9.3996   -2.2658   11.0481 S   0  0  2  0  0  0  0  0  0  0  0  0
   -9.6512   -2.6197    9.2909 C   0  0  0  0  0  0  0  0  0  0  0  0
   -8.8810   -0.5291   10.9897 C   0  0  0  0  0  0  0  0  0  0  0  0
   -8.6243   -0.0314   12.4048 C   0  0  1  0  0  0  0  0  0  0  0  0
   -8.2264    1.3171   12.3346 O   0  0  0  0  0  0  0  0  0  0  0  0
   -9.8276   -0.0259   13.3290 C   0  0  1  0  0  0  0  0  0  0  0  0
   -9.8605   -1.1927   14.1203 O   0  0  0  0  0  0  0  0  0  0  0  0
   -9.5825    1.1879   14.2022 C   0  0  1  0  0  0  0  0  0  0  0  0
   -9.1734    0.7462   15.4732 O   0  0  0  0  0  0  0  0  0  0  0  0
   -8.4554    1.9789   13.5522 C   0  0  2  0  0  0  0  0  0  0  0  0
   -6.0295   -7.4121   12.5180 O   0  0  0  0  0  0  0  0  0  0  0  0
   -7.6348    6.4648   10.9106 N   0  0  0  0  0  0  0  0  0  0  0  0
   -6.8741    5.3124   10.8896 C   0  0  0  0  0  0  0  0  0  0  0  0
   -7.2344    4.2179   11.6528 N   0  0  0  0  0  0  0  0  0  0  0  0
   -8.3381    4.2642   12.4360 C   0  0  0  0  0  0  0  0  0  0  0  0
   -9.1204    5.4122   12.4634 C   0  0  0  0  0  0  0  0  0  0  0  0
   -8.7626    6.5172   11.7007 C   0  0  0  0  0  0  0  0  0  0  0  0
   -9.5068    7.6200   11.7344 N   0  0  0  0  0  0  0  0  0  0  0  0
  -10.1506    5.1913   13.3081 N   0  0  0  0  0  0  0  0  0  0  0  0
  -10.0473    3.9334   13.7978 C   0  0  0  0  0  0  0  0  0  0  0  0
   -8.9302    3.3435   13.2680 N   0  0  0  0  0  0  0  0  0  0  0  0
  2  1  1  6  0  0  0
  2  3  1  0  0  0  0
  2  5  1  0  0  0  0
  3  4  1  0  0  0  0
  3 17  1  0  0  0  0
  5  6  1  0  0  0  0
  7  6  1  6  0  0  0
  7  8  1  0  0  0  0
  7  9  1  0  0  0  0
 10  9  1  6  0  0  0
 10 11  1  0  0  0  0
 10 12  1  0  0  0  0
 11 16  1  0  0  0  0
 12 13  1  1  0  0  0
 12 14  1  0  0  0  0
 14 15  1  1  0  0  0
 14 16  1  0  0  0  0
 16 27  1  6  0  0  0
 18 19  2  0  0  0  0
 18 23  1  0  0  0  0
 19 20  1  0  0  0  0
 20 21  2  0  0  0  0
 21 22  1  0  0  0  0
 21 27  1  0  0  0  0
 22 23  2  0  0  0  0
 22 25  1  0  0  0  0
 23 24  1  0  0  0  0
 25 26  2  0  0  0  0
 26 27  1  0  0  0  0
M  END
>  <CHROM.1>
-84.61863310,-61.68318564,178.31796126,-72.31662840,-77.26870815,-179.88092923
-51.53199223,-8.43052288,0.13031196,12.12914080,-1.30474651,1.03674486,-0.14066038

>  <Name>
ligand

>  <RI>
0

>  <Rbt.Current_Directory>
/home/itssahil/PROJECTS/Mol_Feturizer/New_Systems/rnas/3GX6

>  <Rbt.Executable>
rbdock ($Id: //depot/dev/client3/rdock/2013.1/src/exe/rbdock.cxx#4 $)

>  <Rbt.Library>
libRbt.so (2013.1, Build901 2013/11/27)

>  <Rbt.Parameter_File>
/export/apps/rDock/src/rDock_2013.1_src/data/scripts/dock_solv.prm

>  <Rbt.Receptor>
prm/blind_docking_20.prm

>  <SCORE>
-17.1846

>  <SCORE.INTER>
-7.39369

>  <SCORE.INTER.CONST>
1

>  <SCORE.INTER.POLAR>
0

>  <SCORE.INTER.ROT>
7

>  <SCORE.INTER.SOLV>
17.9241

>  <SCORE.INTER.VDW>
-19.1705

>  <SCORE.INTER.norm>
-0.27384

>  <SCORE.INTRA>
-9.79088

>  <SCORE.INTRA.DIHEDRAL>
-11.5205

>  <SCORE.INTRA.DIHEDRAL.0>
15.0182

>  <SCORE.INTRA.POLAR>
0

>  <SCORE.INTRA.POLAR.0>
0

>  <SCORE.INTRA.REPUL>
0

>  <SCORE.INTRA.REPUL.0>
0

>  <SCORE.INTRA.SOLV>
-0.953495

>  <SCORE.INTRA.SOLV.lig_0>
-47.9129

>  <SCORE.INTRA.VDW>
-3.55387

>  <SCORE.INTRA.VDW.0>
2.00851

>  <SCORE.INTRA.norm>
-0.362625

>  <SCORE.RESTR>
0

>  <SCORE.RESTR.CAVITY>
0

>  <SCORE.RESTR.norm>
0

>  <SCORE.SYSTEM>
0

>  <SCORE.SYSTEM.CONST>
0

>  <SCORE.SYSTEM.DIHEDRAL>
0

>  <SCORE.SYSTEM.SOLV>
0

>  <SCORE.SYSTEM.norm>
0

>  <SCORE.heavy>
27

>  <SCORE.norm>
-0.636466

>  <RMSD>
21.285

$$$$
ligand
 OpenBabel11021811483D
libRbt.so/2013.1/901 2013/11/27
 27 29  0  0  0  0  0  0  0  0999 V2000
   -9.0510    6.0578    8.1598 N   0  0  0  0  0  0  0  0  0  0  0  0
   -8.5734    5.3471    9.3429 C   0  0  2  0  0  0  0  0  0  0  0  0
   -9.7251    4.8660   10.2216 C   0  0  0  0  0  0  0  0  0  0  0  0
  -10.5187    5.6643   10.7250 O   0  0  0  0  0  0  0  0  0  0  0  0
   -7.5916    6.2057   10.1346 C   0  0  0  0  0  0  0  0  0  0  0  0
   -6.6329    5.3915   10.9897 C   0  0  0  0  0  0  0  0  0  0  0  0
   -7.4556    4.3319   12.2049 S   0  0  2  0  0  0  0  0  0  0  0  0
   -8.1885    5.5831   13.2883 C   0  0  0  0  0  0  0  0  0  0  0  0
   -6.0412    3.7856   13.1996 C   0  0  0  0  0  0  0  0  0  0  0  0
   -6.5313    3.3326   14.5674 C   0  0  1  0  0  0  0  0  0  0  0  0
   -7.6182    2.4576   14.3807 O   0  0  0  0  0  0  0  0  0  0  0  0
   -5.5378    2.5356   15.3917 C   0  0  1  0  0  0  0  0  0  0  0  0
   -4.8541    3.3690   16.3009 O   0  0  0  0  0  0  0  0  0  0  0  0
   -6.4214    1.5608   16.1434 C   0  0  1  0  0  0  0  0  0  0  0  0
   -6.5101    1.9820   17.4822 O   0  0  0  0  0  0  0  0  0  0  0  0
   -7.7990    1.6258   15.4980 C   0  0  2  0  0  0  0  0  0  0  0  0
   -9.8806    3.6661   10.4491 O   0  0  0  0  0  0  0  0  0  0  0  0
   -8.8910   -1.4550   11.3639 N   0  0  0  0  0  0  0  0  0  0  0  0
   -8.5518   -0.1164   11.3628 C   0  0  0  0  0  0  0  0  0  0  0  0
   -8.2974    0.5457   12.5490 N   0  0  0  0  0  0  0  0  0  0  0  0
   -8.3825   -0.1111   13.7302 C   0  0  0  0  0  0  0  0  0  0  0  0
   -8.7140   -1.4602   13.7504 C   0  0  0  0  0  0  0  0  0  0  0  0
   -8.9736   -2.1314   12.5617 C   0  0  0  0  0  0  0  0  0  0  0  0
   -9.3004   -3.4213   12.5819 N   0  0  0  0  0  0  0  0  0  0  0  0
   -8.7212   -1.8658   15.0384 N   0  0  0  0  0  0  0  0  0  0  0  0
   -8.3873   -0.8159   15.8251 C   0  0  0  0  0  0  0  0  0  0  0  0
   -8.1733    0.2802   15.0316 N   0  0  0  0  0  0  0  0  0  0  0  0
  2  1  1  6  0  0  0
  2  3  1  0  0  0  0
  2  5  1  0  0  0  0
  3  4  1  0  0  0  0
  3 17  1  0  0  0  0
  5  6  1  0  0  0  0
  7  6  1  6  0  0  0
  7  8  1  0  0  0  0
  7  9  1  0  0  0  0
 10  9  1  6  0  0  0
 10 11  1  0  0  0  0
 10 12  1  0  0  0  0
 11 16  1  0  0  0  0
 12 13  1  1  0  0  0
 12 14  1  0  0  0  0
 14 15  1  1  0  0  0
 14 16  1  0  0  0  0
 16 27  1  6  0  0  0
 18 19  2  0  0  0  0
 18 23  1  0  0  0  0
 19 20  1  0  0  0  0
 20 21  2  0  0  0  0
 21 22  1  0  0  0  0
 21 27  1  0  0  0  0
 22 23  2  0  0  0  0
 22 25  1  0  0  0  0
 23 24  1  0  0  0  0
 25 26  2  0  0  0  0
 26 27  1  0  0  0  0
M  END
>  <CHROM.1>
-60.81435587,-155.53424696,-58.90449893,-66.26809355,158.36094238,48.62915909
-2.94126975,-7.93647466,2.31845403,13.01939016,1.71246512,-1.01172544,-0.49424751

>  <Name>
ligand

>  <RI>
0

>  <Rbt.Current_Directory>
/home/itssahil/PROJECTS/Mol_Feturizer/New_Systems/rnas/3GX6

>  <Rbt.Executable>
rbdock ($Id: //depot/dev/client3/rdock/2013.1/src/exe/rbdock.cxx#4 $)

>  <Rbt.Library>
libRbt.so (2013.1, Build901 2013/11/27)

>  <Rbt.Parameter_File>
/export/apps/rDock/src/rDock_2013.1_src/data/scripts/dock_solv.prm

>  <Rbt.Receptor>
prm/blind_docking_20.prm

>  <SCORE>
-21.4285

>  <SCORE.INTER>
-11.9163

>  <SCORE.INTER.CONST>
1

>  <SCORE.INTER.POLAR>
0

>  <SCORE.INTER.ROT>
7

>  <SCORE.INTER.SOLV>
10.9324

>  <SCORE.INTER.VDW>
-19.855

>  <SCORE.INTER.norm>
-0.441346

>  <SCORE.INTRA>
-9.53875

>  <SCORE.INTRA.DIHEDRAL>
-8.88557

>  <SCORE.INTRA.DIHEDRAL.0>
15.0182

>  <SCORE.INTRA.POLAR>
0

>  <SCORE.INTRA.POLAR.0>
0

>  <SCORE.INTRA.REPUL>
0

>  <SCORE.INTRA.REPUL.0>
0

>  <SCORE.INTRA.SOLV>
-1.55191

>  <SCORE.INTRA.SOLV.lig_0>
-47.9129

>  <SCORE.INTRA.VDW>
-4.32

>  <SCORE.INTRA.VDW.0>
2.00851

>  <SCORE.INTRA.norm>
-0.353287

>  <SCORE.RESTR>
0.0265513

>  <SCORE.RESTR.CAVITY>
0.0265513

>  <SCORE.RESTR.norm>
0.000983382

>  <SCORE.SYSTEM>
0

>  <SCORE.SYSTEM.CONST>
0

>  <SCORE.SYSTEM.DIHEDRAL>
0

>  <SCORE.SYSTEM.SOLV>
0

>  <SCORE.SYSTEM.norm>
0

>  <SCORE.heavy>
27

>  <SCORE.norm>
-0.793649

>  <RMSD>
21.324

$$$$
ligand
 OpenBabel11021811483D
libRbt.so/2013.1/901 2013/11/27
 27 29  0  0  0  0  0  0  0  0999 V2000
   -8.1779    3.9766   20.8530 N   0  0  0  0  0  0  0  0  0  0  0  0
   -8.4184    2.6930   20.1992 C   0  0  2  0  0  0  0  0  0  0  0  0
   -8.6817    1.5798   21.2099 C   0  0  0  0  0  0  0  0  0  0  0  0
   -8.9910    0.4447   20.8409 O   0  0  0  0  0  0  0  0  0  0  0  0
   -7.2673    2.3340   19.2643 C   0  0  0  0  0  0  0  0  0  0  0  0
   -7.1503    3.2653   18.0676 C   0  0  0  0  0  0  0  0  0  0  0  0
   -5.8099    2.8315   16.9310 S   0  0  2  0  0  0  0  0  0  0  0  0
   -4.3908    3.5194   17.8195 C   0  0  0  0  0  0  0  0  0  0  0  0
   -6.0478    4.0706   15.6286 C   0  0  0  0  0  0  0  0  0  0  0  0
   -7.4045    3.8586   14.9723 C   0  0  1  0  0  0  0  0  0  0  0  0
   -7.7519    5.0360   14.2832 O   0  0  0  0  0  0  0  0  0  0  0  0
   -7.4626    2.7690   13.9181 C   0  0  1  0  0  0  0  0  0  0  0  0
   -7.9314    1.5587   14.4696 O   0  0  0  0  0  0  0  0  0  0  0  0
   -8.4678    3.3103   12.9219 C   0  0  1  0  0  0  0  0  0  0  0  0
   -9.6727    2.6015   13.0760 O   0  0  0  0  0  0  0  0  0  0  0  0
   -8.6918    4.7751   13.2725 C   0  0  2  0  0  0  0  0  0  0  0  0
   -8.5946    1.7976   22.4184 O   0  0  0  0  0  0  0  0  0  0  0  0
  -10.0890    8.8536   10.2412 N   0  0  0  0  0  0  0  0  0  0  0  0
  -10.7347    8.3620   11.3585 C   0  0  0  0  0  0  0  0  0  0  0  0
  -10.2281    7.2721   12.0410 N   0  0  0  0  0  0  0  0  0  0  0  0
   -9.0918    6.6688   11.6183 C   0  0  0  0  0  0  0  0  0  0  0  0
   -8.4237    7.1548   10.5012 C   0  0  0  0  0  0  0  0  0  0  0  0
   -8.9289    8.2485    9.8087 C   0  0  0  0  0  0  0  0  0  0  0  0
   -8.2941    8.7079    8.7331 N   0  0  0  0  0  0  0  0  0  0  0  0
   -7.3313    6.3857   10.3047 N   0  0  0  0  0  0  0  0  0  0  0  0
   -7.2849    5.4430   11.2751 C   0  0  0  0  0  0  0  0  0  0  0  0
   -8.3678    5.6033   12.0988 N   0  0  0  0  0  0  0  0  0  0  0  0
  2  1  1  1  0  0  0
  2  3  1  0  0  0  0
  2  5  1  0  0  0  0
  3  4  1  0  0  0  0
  3 17  1  0  0  0  0
  5  6  1  0  0  0  0
  7  6  1  1  0  0  0
  7  8  1  0  0  0  0
  7  9  1  0  0  0  0
 10  9  1  6  0  0  0
 10 11  1  0  0  0  0
 10 12  1  0  0  0  0
 11 16  1  0  0  0  0
 12 13  1  1  0  0  0
 12 14  1  0  0  0  0
 14 15  1  1  0  0  0
 14 16  1  0  0  0  0
 16 27  1  6  0  0  0
 18 19  2  0  0  0  0
 18 23  1  0  0  0  0
 19 20  1  0  0  0  0
 20 21  2  0  0  0  0
 21 22  1  0  0  0  0
 21 27  1  0  0  0  0
 22 23  2  0  0  0  0
 22 25  1  0  0  0  0
 23 24  1  0  0  0  0
 25 26  2  0  0  0  0
 26 27  1  0  0  0  0
M  END
>  <CHROM.1>
175.24312616,-66.65263293,-178.80795036,-79.33258222,-63.10876462,161.88311670
-110.63071272,-8.00889024,4.38119778,14.97405321,1.43156575,-0.60333190,1.98856141

>  <Name>
ligand

>  <RI>
0

>  <Rbt.Current_Directory>
/home/itssahil/PROJECTS/Mol_Feturizer/New_Systems/rnas/3GX6

>  <Rbt.Executable>
rbdock ($Id: //depot/dev/client3/rdock/2013.1/src/exe/rbdock.cxx#4 $)

>  <Rbt.Library>
libRbt.so (2013.1, Build901 2013/11/27)

>  <Rbt.Parameter_File>
/export/apps/rDock/src/rDock_2013.1_src/data/scripts/dock_solv.prm

>  <Rbt.Receptor>
prm/blind_docking_40.prm

>  <SCORE>
-19.3902

>  <SCORE.INTER>
-9.70419

>  <SCORE.INTER.CONST>
1

>  <SCORE.INTER.POLAR>
0

>  <SCORE.INTER.ROT>
7

>  <SCORE.INTER.SOLV>
8.39525

>  <SCORE.INTER.VDW>
-17.5345

>  <SCORE.INTER.norm>
-0.359414

>  <SCORE.INTRA>
-9.686

>  <SCORE.INTRA.DIHEDRAL>
-10.0989

>  <SCORE.INTRA.DIHEDRAL.0>
15.0182

>  <SCORE.INTRA.POLAR>
0

>  <SCORE.INTRA.POLAR.0>
0

>  <SCORE.INTRA.REPUL>
0

>  <SCORE.INTRA.REPUL.0>
0

>  <SCORE.INTRA.SOLV>
-1.07599

>  <SCORE.INTRA.SOLV.lig_0>
-47.9129

>  <SCORE.INTRA.VDW>
-4.09853

>  <SCORE.INTRA.VDW.0>
2.00851

>  <SCORE.INTRA.norm>
-0.358741

>  <SCORE.RESTR>
0

>  <SCORE.RESTR.CAVITY>
0

>  <SCORE.RESTR.norm>
0

>  <SCORE.SYSTEM>
0

>  <SCORE.SYSTEM.CONST>
0

>  <SCORE.SYSTEM.DIHEDRAL>
0

>  <SCORE.SYSTEM.SOLV>
0

>  <SCORE.SYSTEM.norm>
0

>  <SCORE.heavy>
27

>  <SCORE.norm>
-0.718155

>  <RMSD>
21.325

$$$$
ligand
 OpenBabel11021811483D
libRbt.so/2013.1/901 2013/11/27
 27 29  0  0  0  0  0  0  0  0999 V2000
  -10.0338    8.6475    9.1284 N   0  0  0  0  0  0  0  0  0  0  0  0
   -9.9918    7.5746   10.1183 C   0  0  2  0  0  0  0  0  0  0  0  0
  -10.5758    6.2739    9.5731 C   0  0  0  0  0  0  0  0  0  0  0  0
   -9.8913    5.2513    9.4964 O   0  0  0  0  0  0  0  0  0  0  0  0
  -10.6860    7.9974   11.4094 C   0  0  0  0  0  0  0  0  0  0  0  0
  -10.3275    7.1225   12.6006 C   0  0  0  0  0  0  0  0  0  0  0  0
  -10.9001    5.4119   12.4510 S   0  0  2  0  0  0  0  0  0  0  0  0
  -12.6665    5.6270   12.7828 C   0  0  0  0  0  0  0  0  0  0  0  0
  -10.3255    4.7171   14.0244 C   0  0  0  0  0  0  0  0  0  0  0  0
   -8.8046    4.6606   14.0254 C   0  0  1  0  0  0  0  0  0  0  0  0
   -8.3855    4.0374   15.2160 O   0  0  0  0  0  0  0  0  0  0  0  0
   -8.1760    3.8327   12.9203 C   0  0  1  0  0  0  0  0  0  0  0  0
   -7.7960    4.6477   11.8340 O   0  0  0  0  0  0  0  0  0  0  0  0
   -6.9470    3.2491   13.5873 C   0  0  1  0  0  0  0  0  0  0  0  0
   -5.8143    3.9299   13.1064 O   0  0  0  0  0  0  0  0  0  0  0  0
   -7.0945    3.5007   15.0818 C   0  0  2  0  0  0  0  0  0  0  0  0
  -11.7458    6.2234    9.1933 O   0  0  0  0  0  0  0  0  0  0  0  0
   -8.6921   -1.5197   15.2195 N   0  0  0  0  0  0  0  0  0  0  0  0
   -9.0046   -0.5515   14.2857 C   0  0  0  0  0  0  0  0  0  0  0  0
   -8.4965    0.7285   14.4026 N   0  0  0  0  0  0  0  0  0  0  0  0
   -7.6876    1.0507   15.4398 C   0  0  0  0  0  0  0  0  0  0  0  0
   -7.3553    0.0874   16.3844 C   0  0  0  0  0  0  0  0  0  0  0  0
   -7.8647   -1.2007   16.2744 C   0  0  0  0  0  0  0  0  0  0  0  0
   -7.5540   -2.1207   17.1844 N   0  0  0  0  0  0  0  0  0  0  0  0
   -6.5405    0.6633   17.2944 N   0  0  0  0  0  0  0  0  0  0  0  0
   -6.3381    1.9539   16.9392 C   0  0  0  0  0  0  0  0  0  0  0  0
   -7.0408    2.2118   15.7919 N   0  0  0  0  0  0  0  0  0  0  0  0
  2  1  1  6  0  0  0
  2  3  1  0  0  0  0
  2  5  1  0  0  0  0
  3  4  1  0  0  0  0
  3 17  1  0  0  0  0
  5  6  1  0  0  0  0
  7  6  1  1  0  0  0
  7  8  1  0  0  0  0
  7  9  1  0  0  0  0
 10  9  1  6  0  0  0
 10 11  1  0  0  0  0
 10 12  1  0  0  0  0
 11 16  1  0  0  0  0
 12 13  1  6  0  0  0
 12 14  1  0  0  0  0
 14 15  1  6  0  0  0
 14 16  1  0  0  0  0
 16 27  1  1  0  0  0
 18 19  2  0  0  0  0
 18 23  1  0  0  0  0
 19 20  1  0  0  0  0
 20 21  2  0  0  0  0
 21 22  1  0  0  0  0
 21 27  1  0  0  0  0
 22 23  2  0  0  0  0
 22 25  1  0  0  0  0
 23 24  1  0  0  0  0
 25 26  2  0  0  0  0
 26 27  1  0  0  0  0
M  END
>  <CHROM.1>
119.43739773,-162.70385824,-65.51377871,-75.30662407,-68.18942791,-176.13508283
68.50771027,-8.90257781,3.66546495,13.41478711,-1.96267062,0.45201130,2.63548965

>  <Name>
ligand

>  <RI>
0

>  <Rbt.Current_Directory>
/home/itssahil/PROJECTS/Mol_Feturizer/New_Systems/rnas/3GX6

>  <Rbt.Executable>
rbdock ($Id: //depot/dev/client3/rdock/2013.1/src/exe/rbdock.cxx#4 $)

>  <Rbt.Library>
libRbt.so (2013.1, Build901 2013/11/27)

>  <Rbt.Parameter_File>
/export/apps/rDock/src/rDock_2013.1_src/data/scripts/dock_solv.prm

>  <Rbt.Receptor>
prm/blind_docking_20.prm

>  <SCORE>
-21.0709

>  <SCORE.INTER>
-9.57372

>  <SCORE.INTER.CONST>
1

>  <SCORE.INTER.POLAR>
0

>  <SCORE.INTER.ROT>
7

>  <SCORE.INTER.SOLV>
9.45609

>  <SCORE.INTER.VDW>
-17.8012

>  <SCORE.INTER.norm>
-0.354582

>  <SCORE.INTRA>
-11.4972

>  <SCORE.INTRA.DIHEDRAL>
-10.4573

>  <SCORE.INTRA.DIHEDRAL.0>
15.0182

>  <SCORE.INTRA.POLAR>
0

>  <SCORE.INTRA.POLAR.0>
0

>  <SCORE.INTRA.REPUL>
0

>  <SCORE.INTRA.REPUL.0>
0

>  <SCORE.INTRA.SOLV>
-1.25239

>  <SCORE.INTRA.SOLV.lig_0>
-47.9129

>  <SCORE.INTRA.VDW>
-5.64233

>  <SCORE.INTRA.VDW.0>
2.00851

>  <SCORE.INTRA.norm>
-0.425822

>  <SCORE.RESTR>
0

>  <SCORE.RESTR.CAVITY>
0

>  <SCORE.RESTR.norm>
0

>  <SCORE.SYSTEM>
0

>  <SCORE.SYSTEM.CONST>
0

>  <SCORE.SYSTEM.DIHEDRAL>
0

>  <SCORE.SYSTEM.SOLV>
0

>  <SCORE.SYSTEM.norm>
0

>  <SCORE.heavy>
27

>  <SCORE.norm>
-0.780404

>  <RMSD>
21.358

$$$$
ligand
 OpenBabel11021811483D
libRbt.so/2013.1/901 2013/11/27
 27 29  0  0  0  0  0  0  0  0999 V2000
   -9.3979    1.4089   19.7678 N   0  0  0  0  0  0  0  0  0  0  0  0
  -10.5240    1.5414   18.8473 C   0  0  2  0  0  0  0  0  0  0  0  0
  -10.3767    0.6288   17.6326 C   0  0  0  0  0  0  0  0  0  0  0  0
  -10.4312   -0.5977   17.7471 O   0  0  0  0  0  0  0  0  0  0  0  0
  -10.7174    2.9960   18.4294 C   0  0  0  0  0  0  0  0  0  0  0  0
   -9.4096    3.7543   18.2638 C   0  0  0  0  0  0  0  0  0  0  0  0
   -8.5632    3.4207   16.6989 S   0  0  2  0  0  0  0  0  0  0  0  0
   -6.8450    3.7158   17.1858 C   0  0  0  0  0  0  0  0  0  0  0  0
   -8.9357    4.9364   15.7756 C   0  0  0  0  0  0  0  0  0  0  0  0
  -10.2398    4.7544   15.0123 C   0  0  1  0  0  0  0  0  0  0  0  0
  -10.5426    5.9637   14.3585 O   0  0  0  0  0  0  0  0  0  0  0  0
  -10.2148    3.7182   13.9044 C   0  0  1  0  0  0  0  0  0  0  0  0
  -10.7158    2.4812   14.3599 O   0  0  0  0  0  0  0  0  0  0  0  0
  -11.1477    4.3061   12.8652 C   0  0  1  0  0  0  0  0  0  0  0  0
  -12.3567    3.5882   12.8957 O   0  0  0  0  0  0  0  0  0  0  0  0
  -11.4048    5.7513   13.2702 C   0  0  2  0  0  0  0  0  0  0  0  0
  -10.1946    1.1031   16.5112 O   0  0  0  0  0  0  0  0  0  0  0  0
  -11.3385    6.5419    8.0600 N   0  0  0  0  0  0  0  0  0  0  0  0
  -11.8730    5.4736    8.7528 C   0  0  0  0  0  0  0  0  0  0  0  0
  -11.8010    5.4230   10.1321 N   0  0  0  0  0  0  0  0  0  0  0  0
  -11.1996    6.4209   10.8223 C   0  0  0  0  0  0  0  0  0  0  0  0
  -10.6637    7.5079   10.1428 C   0  0  0  0  0  0  0  0  0  0  0  0
  -10.7302    7.5640    8.7560 C   0  0  0  0  0  0  0  0  0  0  0  0
  -10.2084    8.6007    8.1047 N   0  0  0  0  0  0  0  0  0  0  0  0
  -10.1381    8.3504   11.0580 N   0  0  0  0  0  0  0  0  0  0  0  0
  -10.3438    7.8327   12.2919 C   0  0  0  0  0  0  0  0  0  0  0  0
  -11.0007    6.6372   12.1654 N   0  0  0  0  0  0  0  0  0  0  0  0
  2  1  1  1  0  0  0
  2  3  1  0  0  0  0
  2  5  1  0  0  0  0
  3  4  1  0  0  0  0
  3 17  1  0  0  0  0
  5  6  1  0  0  0  0
  7  6  1  1  0  0  0
  7  8  1  0  0  0  0
  7  9  1  0  0  0  0
 10  9  1  6  0  0  0
 10 11  1  0  0  0  0
 10 12  1  0  0  0  0
 11 16  1  0  0  0  0
 12 13  1  1  0  0  0
 12 14  1  0  0  0  0
 14 15  1  1  0  0  0
 14 16  1  0  0  0  0
 16 27  1  6  0  0  0
 18 19  2  0  0  0  0
 18 23  1  0  0  0  0
 19 20  1  0  0  0  0
 20 21  2  0  0  0  0
 21 22  1  0  0  0  0
 21 27  1  0  0  0  0
 22 23  2  0  0  0  0
 22 25  1  0  0  0  0
 23 24  1  0  0  0  0
 25 26  2  0  0  0  0
 26 27  1  0  0  0  0
M  END
>  <CHROM.1>
67.24335443,36.37722103,79.13218499,-152.11629497,-89.50497498,177.08610502
153.17489349,-10.31736113,4.44349930,14.08334641,-1.33822677,-0.92663368
-0.81925177

>  <Name>
ligand

>  <RI>
0

>  <Rbt.Current_Directory>
/home/itssahil/PROJECTS/Mol_Feturizer/New_Systems/rnas/3GX6

>  <Rbt.Executable>
rbdock ($Id: //depot/dev/client3/rdock/2013.1/src/exe/rbdock.cxx#4 $)

>  <Rbt.Library>
libRbt.so (2013.1, Build901 2013/11/27)

>  <Rbt.Parameter_File>
/export/apps/rDock/src/rDock_2013.1_src/data/scripts/dock_solv.prm

>  <Rbt.Receptor>
prm/blind_docking_40.prm

>  <SCORE>
-18.7582

>  <SCORE.INTER>
-12.8291

>  <SCORE.INTER.CONST>
1

>  <SCORE.INTER.POLAR>
0

>  <SCORE.INTER.ROT>
7

>  <SCORE.INTER.SOLV>
13.6335

>  <SCORE.INTER.VDW>
-21.3639

>  <SCORE.INTER.norm>
-0.475152

>  <SCORE.INTRA>
-5.92905

>  <SCORE.INTRA.DIHEDRAL>
-4.49754

>  <SCORE.INTRA.DIHEDRAL.0>
15.0182

>  <SCORE.INTRA.POLAR>
0

>  <SCORE.INTRA.POLAR.0>
0

>  <SCORE.INTRA.REPUL>
0

>  <SCORE.INTRA.REPUL.0>
0

>  <SCORE.INTRA.SOLV>
0.476355

>  <SCORE.INTRA.SOLV.lig_0>
-47.9129

>  <SCORE.INTRA.VDW>
-3.91845

>  <SCORE.INTRA.VDW.0>
2.00851

>  <SCORE.INTRA.norm>
-0.219594

>  <SCORE.RESTR>
0

>  <SCORE.RESTR.CAVITY>
0

>  <SCORE.RESTR.norm>
0

>  <SCORE.SYSTEM>
0

>  <SCORE.SYSTEM.CONST>
0

>  <SCORE.SYSTEM.DIHEDRAL>
0

>  <SCORE.SYSTEM.SOLV>
0

>  <SCORE.SYSTEM.norm>
0

>  <SCORE.heavy>
27

>  <SCORE.norm>
-0.694746

>  <RMSD>
21.384

$$$$
ligand
 OpenBabel11021811483D
libRbt.so/2013.1/901 2013/11/27
 27 29  0  0  0  0  0  0  0  0999 V2000
   -9.5780    5.6679    9.6974 N   0  0  0  0  0  0  0  0  0  0  0  0
   -9.6069    6.1446   11.0776 C   0  0  2  0  0  0  0  0  0  0  0  0
  -10.7810    7.0868   11.3299 C   0  0  0  0  0  0  0  0  0  0  0  0
  -11.6977    6.7721   12.0921 O   0  0  0  0  0  0  0  0  0  0  0  0
   -8.2802    6.7958   11.4567 C   0  0  0  0  0  0  0  0  0  0  0  0
   -7.1647    5.7917   11.7025 C   0  0  0  0  0  0  0  0  0  0  0  0
   -7.4813    4.6707   13.0880 S   0  0  2  0  0  0  0  0  0  0  0  0
   -5.8119    4.0376   13.3858 C   0  0  0  0  0  0  0  0  0  0  0  0
   -8.2449    3.2681   12.2290 C   0  0  0  0  0  0  0  0  0  0  0  0
   -8.8013    2.2908   13.2545 C   0  0  1  0  0  0  0  0  0  0  0  0
   -9.1247    1.0911   12.5928 O   0  0  0  0  0  0  0  0  0  0  0  0
   -7.8424    1.8732   14.3536 C   0  0  1  0  0  0  0  0  0  0  0  0
   -8.0328    2.6543   15.5121 O   0  0  0  0  0  0  0  0  0  0  0  0
   -8.2381    0.4359   14.6247 C   0  0  1  0  0  0  0  0  0  0  0  0
   -8.9429    0.3903   15.8408 O   0  0  0  0  0  0  0  0  0  0  0  0
   -9.1577    0.0095   13.4884 C   0  0  2  0  0  0  0  0  0  0  0  0
  -10.8369    8.1818   10.7700 O   0  0  0  0  0  0  0  0  0  0  0  0
   -7.7728   -5.0552   13.9425 N   0  0  0  0  0  0  0  0  0  0  0  0
   -8.3369   -4.2370   14.9013 C   0  0  0  0  0  0  0  0  0  0  0  0
   -8.6381   -2.9194   14.6127 N   0  0  0  0  0  0  0  0  0  0  0  0
   -8.3786   -2.4122   13.3841 C   0  0  0  0  0  0  0  0  0  0  0  0
   -7.8192   -3.2228   12.4041 C   0  0  0  0  0  0  0  0  0  0  0  0
   -7.5114   -4.5477   12.6883 C   0  0  0  0  0  0  0  0  0  0  0  0
   -6.9667   -5.3214   11.7523 N   0  0  0  0  0  0  0  0  0  0  0  0
   -7.6738   -2.4803   11.2856 N   0  0  0  0  0  0  0  0  0  0  0  0
   -8.1412   -1.2334   11.5296 C   0  0  0  0  0  0  0  0  0  0  0  0
   -8.5826   -1.1728   12.8250 N   0  0  0  0  0  0  0  0  0  0  0  0
  2  1  1  6  0  0  0
  2  3  1  0  0  0  0
  2  5  1  0  0  0  0
  3  4  1  0  0  0  0
  3 17  1  0  0  0  0
  5  6  1  0  0  0  0
  7  6  1  6  0  0  0
  7  8  1  0  0  0  0
  7  9  1  0  0  0  0
 10  9  1  6  0  0  0
 10 11  1  0  0  0  0
 10 12  1  0  0  0  0
 11 16  1  0  0  0  0
 12 13  1  1  0  0  0
 12 14  1  0  0  0  0
 14 15  1  1  0  0  0
 14 16  1  0  0  0  0
 16 27  1  6  0  0  0
 18 19  2  0  0  0  0
 18 23  1  0  0  0  0
 19 20  1  0  0  0  0
 20 21  2  0  0  0  0
 21 22  1  0  0  0  0
 21 27  1  0  0  0  0
 22 23  2  0  0  0  0
 22 25  1  0  0  0  0
 23 24  1  0  0  0  0
 25 26  2  0  0  0  0
 26 27  1  0  0  0  0
M  END
>  <CHROM.1>
113.98629263,-75.23324889,-62.60504500,-163.11943883,-170.79873190,-167.49436709
176.79210965,-8.47231984,1.58150447,12.83277498,2.07736106,-1.27741385,0.32347131

>  <Name>
ligand

>  <RI>
0

>  <Rbt.Current_Directory>
/home/itssahil/PROJECTS/Mol_Feturizer/New_Systems/rnas/3GX6

>  <Rbt.Executable>
rbdock ($Id: //depot/dev/client3/rdock/2013.1/src/exe/rbdock.cxx#4 $)

>  <Rbt.Library>
libRbt.so (2013.1, Build901 2013/11/27)

>  <Rbt.Parameter_File>
/export/apps/rDock/src/rDock_2013.1_src/data/scripts/dock_solv.prm

>  <Rbt.Receptor>
prm/blind_docking_20.prm

>  <SCORE>
-18.5988

>  <SCORE.INTER>
-10.5632

>  <SCORE.INTER.CONST>
1

>  <SCORE.INTER.POLAR>
0

>  <SCORE.INTER.ROT>
7

>  <SCORE.INTER.SOLV>
6.99601

>  <SCORE.INTER.VDW>
-17.6408

>  <SCORE.INTER.norm>
-0.39123

>  <SCORE.INTRA>
-8.03561

>  <SCORE.INTRA.DIHEDRAL>
-7.87463

>  <SCORE.INTRA.DIHEDRAL.0>
15.0182

>  <SCORE.INTRA.POLAR>
0

>  <SCORE.INTRA.POLAR.0>
0

>  <SCORE.INTRA.REPUL>
0

>  <SCORE.INTRA.REPUL.0>
0

>  <SCORE.INTRA.SOLV>
0.213127

>  <SCORE.INTRA.SOLV.lig_0>
-47.9129

>  <SCORE.INTRA.VDW>
-4.20486

>  <SCORE.INTRA.VDW.0>
2.00851

>  <SCORE.INTRA.norm>
-0.297615

>  <SCORE.RESTR>
0

>  <SCORE.RESTR.CAVITY>
0

>  <SCORE.RESTR.norm>
0

>  <SCORE.SYSTEM>
0

>  <SCORE.SYSTEM.CONST>
0

>  <SCORE.SYSTEM.DIHEDRAL>
0

>  <SCORE.SYSTEM.SOLV>
0

>  <SCORE.SYSTEM.norm>
0

>  <SCORE.heavy>
27

>  <SCORE.norm>
-0.688846

>  <RMSD>
21.408

$$$$
ligand
 OpenBabel11021811483D
libRbt.so/2013.1/901 2013/11/27
 27 29  0  0  0  0  0  0  0  0999 V2000
  -10.2838    5.7257   10.0714 N   0  0  0  0  0  0  0  0  0  0  0  0
   -9.6158    6.3222   11.2249 C   0  0  2  0  0  0  0  0  0  0  0  0
  -10.1086    7.7409   11.4975 C   0  0  0  0  0  0  0  0  0  0  0  0
  -10.2220    8.5621   10.5847 O   0  0  0  0  0  0  0  0  0  0  0  0
   -8.0998    6.2833   11.0566 C   0  0  0  0  0  0  0  0  0  0  0  0
   -7.5198    4.8801   11.1442 C   0  0  0  0  0  0  0  0  0  0  0  0
   -7.6862    4.1201   12.7786 S   0  0  2  0  0  0  0  0  0  0  0  0
   -5.9456    3.9864   13.2570 C   0  0  0  0  0  0  0  0  0  0  0  0
   -8.0623    2.4052   12.3247 C   0  0  0  0  0  0  0  0  0  0  0  0
   -8.7309    1.7073   13.5003 C   0  0  1  0  0  0  0  0  0  0  0  0
   -9.0809    0.4037   13.1006 O   0  0  0  0  0  0  0  0  0  0  0  0
   -7.8625    1.5089   14.7285 C   0  0  1  0  0  0  0  0  0  0  0  0
   -8.0769    2.5378   15.6688 O   0  0  0  0  0  0  0  0  0  0  0  0
   -8.3523    0.1869   15.2836 C   0  0  1  0  0  0  0  0  0  0  0  0
   -9.1284    0.4449   16.4277 O   0  0  0  0  0  0  0  0  0  0  0  0
   -9.2260   -0.4464   14.2093 C   0  0  2  0  0  0  0  0  0  0  0  0
  -10.3986    8.0946   12.6405 O   0  0  0  0  0  0  0  0  0  0  0  0
   -7.6215   -3.6885   10.3766 N   0  0  0  0  0  0  0  0  0  0  0  0
   -8.1097   -2.4024   10.2557 C   0  0  0  0  0  0  0  0  0  0  0  0
   -8.4913   -1.6869   11.3749 N   0  0  0  0  0  0  0  0  0  0  0  0
   -8.3951   -2.2417   12.6065 C   0  0  0  0  0  0  0  0  0  0  0  0
   -7.8981   -3.5315   12.7484 C   0  0  0  0  0  0  0  0  0  0  0  0
   -7.5151   -4.2575   11.6272 C   0  0  0  0  0  0  0  0  0  0  0  0
   -7.0480   -5.4963   11.7624 N   0  0  0  0  0  0  0  0  0  0  0  0
   -7.9010   -3.8341   14.0644 N   0  0  0  0  0  0  0  0  0  0  0  0
   -8.3686   -2.7667   14.7534 C   0  0  0  0  0  0  0  0  0  0  0  0
   -8.6794   -1.7701   13.8663 N   0  0  0  0  0  0  0  0  0  0  0  0
  2  1  1  6  0  0  0
  2  3  1  0  0  0  0
  2  5  1  0  0  0  0
  3  4  1  0  0  0  0
  3 17  1  0  0  0  0
  5  6  1  0  0  0  0
  7  6  1  6  0  0  0
  7  8  1  0  0  0  0
  7  9  1  0  0  0  0
 10  9  1  6  0  0  0
 10 11  1  0  0  0  0
 10 12  1  0  0  0  0
 11 16  1  0  0  0  0
 12 13  1  1  0  0  0
 12 14  1  0  0  0  0
 14 15  1  1  0  0  0
 14 16  1  0  0  0  0
 16 27  1  6  0  0  0
 18 19  2  0  0  0  0
 18 23  1  0  0  0  0
 19 20  1  0  0  0  0
 20 21  2  0  0  0  0
 21 22  1  0  0  0  0
 21 27  1  0  0  0  0
 22 23  2  0  0  0  0
 22 25  1  0  0  0  0
 23 24  1  0  0  0  0
 25 26  2  0  0  0  0
 26 27  1  0  0  0  0
M  END
>  <CHROM.1>
-46.45133507,-69.65366300,-66.08408625,-114.77276934,-159.46145240,176.73861869
-15.86323035,-8.43941820,1.49515030,12.73136067,-3.12025638,-1.44476729,1.48250894

>  <Name>
ligand

>  <RI>
0

>  <Rbt.Current_Directory>
/home/itssahil/PROJECTS/Mol_Feturizer/New_Systems/rnas/3GX6

>  <Rbt.Executable>
rbdock ($Id: //depot/dev/client3/rdock/2013.1/src/exe/rbdock.cxx#4 $)

>  <Rbt.Library>
libRbt.so (2013.1, Build901 2013/11/27)

>  <Rbt.Parameter_File>
/export/apps/rDock/src/rDock_2013.1_src/data/scripts/dock_solv.prm

>  <Rbt.Receptor>
prm/blind_docking_20.prm

>  <SCORE>
-19.096

>  <SCORE.INTER>
-11.3245

>  <SCORE.INTER.CONST>
1

>  <SCORE.INTER.POLAR>
0

>  <SCORE.INTER.ROT>
7

>  <SCORE.INTER.SOLV>
7.57643

>  <SCORE.INTER.VDW>
-18.3418

>  <SCORE.INTER.norm>
-0.419427

>  <SCORE.INTRA>
-7.77145

>  <SCORE.INTRA.DIHEDRAL>
-5.37701

>  <SCORE.INTRA.DIHEDRAL.0>
15.0182

>  <SCORE.INTRA.POLAR>
0

>  <SCORE.INTRA.POLAR.0>
0

>  <SCORE.INTRA.REPUL>
0

>  <SCORE.INTRA.REPUL.0>
0

>  <SCORE.INTRA.SOLV>
-0.41901

>  <SCORE.INTRA.SOLV.lig_0>
-47.9129

>  <SCORE.INTRA.VDW>
-4.87344

>  <SCORE.INTRA.VDW.0>
2.00851

>  <SCORE.INTRA.norm>
-0.287831

>  <SCORE.RESTR>
0

>  <SCORE.RESTR.CAVITY>
0

>  <SCORE.RESTR.norm>
0

>  <SCORE.SYSTEM>
0

>  <SCORE.SYSTEM.CONST>
0

>  <SCORE.SYSTEM.DIHEDRAL>
0

>  <SCORE.SYSTEM.SOLV>
0

>  <SCORE.SYSTEM.norm>
0

>  <SCORE.heavy>
27

>  <SCORE.norm>
-0.707258

>  <RMSD>
21.447

$$$$
ligand
 OpenBabel11021811483D
libRbt.so/2013.1/901 2013/11/27
 27 29  0  0  0  0  0  0  0  0999 V2000
  -10.4345    6.0107    9.5546 N   0  0  0  0  0  0  0  0  0  0  0  0
   -9.4832    5.9816   10.6623 C   0  0  2  0  0  0  0  0  0  0  0  0
   -9.2407    7.3730   11.2412 C   0  0  0  0  0  0  0  0  0  0  0  0
   -9.8355    7.7550   12.2515 O   0  0  0  0  0  0  0  0  0  0  0  0
   -8.1751    5.3198   10.2395 C   0  0  0  0  0  0  0  0  0  0  0  0
   -7.1653    5.2039   11.3709 C   0  0  0  0  0  0  0  0  0  0  0  0
   -7.8447    4.4866   12.8875 S   0  0  2  0  0  0  0  0  0  0  0  0
   -6.3374    4.3215   13.8762 C   0  0  0  0  0  0  0  0  0  0  0  0
   -8.1166    2.7712   12.3659 C   0  0  0  0  0  0  0  0  0  0  0  0
   -8.9978    2.0669   13.3875 C   0  0  1  0  0  0  0  0  0  0  0  0
   -9.1712    0.7316   12.9770 O   0  0  0  0  0  0  0  0  0  0  0  0
   -8.4265    1.9634   14.7893 C   0  0  1  0  0  0  0  0  0  0  0  0
   -8.9104    3.0040   15.6088 O   0  0  0  0  0  0  0  0  0  0  0  0
   -8.9552    0.6295   15.2762 C   0  0  1  0  0  0  0  0  0  0  0  0
   -9.9879    0.8706   16.1999 O   0  0  0  0  0  0  0  0  0  0  0  0
   -9.5197   -0.0921   14.0600 C   0  0  2  0  0  0  0  0  0  0  0  0
   -8.4464    8.1452   10.7041 O   0  0  0  0  0  0  0  0  0  0  0  0
   -7.4416   -3.6155   10.7369 N   0  0  0  0  0  0  0  0  0  0  0  0
   -8.0446   -2.4107   10.4336 C   0  0  0  0  0  0  0  0  0  0  0  0
   -8.5429   -1.6013   11.4370 N   0  0  0  0  0  0  0  0  0  0  0  0
   -8.4497   -1.9832   12.7329 C   0  0  0  0  0  0  0  0  0  0  0  0
   -7.8386   -3.1880   13.0578 C   0  0  0  0  0  0  0  0  0  0  0  0
   -7.3379   -4.0079   12.0538 C   0  0  0  0  0  0  0  0  0  0  0  0
   -6.7612   -5.1664   12.3646 N   0  0  0  0  0  0  0  0  0  0  0  0
   -7.8720   -3.3204   14.4013 N   0  0  0  0  0  0  0  0  0  0  0  0
   -8.4699   -2.2268   14.9296 C   0  0  0  0  0  0  0  0  0  0  0  0
   -8.8342   -1.3868   13.9105 N   0  0  0  0  0  0  0  0  0  0  0  0
  2  1  1  6  0  0  0
  2  3  1  0  0  0  0
  2  5  1  0  0  0  0
  3  4  1  0  0  0  0
  3 17  1  0  0  0  0
  5  6  1  0  0  0  0
  7  6  1  6  0  0  0
  7  8  1  0  0  0  0
  7  9  1  0  0  0  0
 10  9  1  6  0  0  0
 10 11  1  0  0  0  0
 10 12  1  0  0  0  0
 11 16  1  0  0  0  0
 12 13  1  1  0  0  0
 12 14  1  0  0  0  0
 14 15  1  1  0  0  0
 14 16  1  0  0  0  0
 16 27  1  6  0  0  0
 18 19  2  0  0  0  0
 18 23  1  0  0  0  0
 19 20  1  0  0  0  0
 20 21  2  0  0  0  0
 21 22  1  0  0  0  0
 21 27  1  0  0  0  0
 22 23  2  0  0  0  0
 22 25  1  0  0  0  0
 23 24  1  0  0  0  0
 25 26  2  0  0  0  0
 26 27  1  0  0  0  0
M  END
>  <CHROM.1>
97.84498063,-177.41877726,49.78156907,173.02654378,-166.36502394,-178.76400971
-28.26418023,-8.45370637,1.68085958,12.75223542,-2.05483591,-1.39285606,2.51427036

>  <Name>
ligand

>  <RI>
0

>  <Rbt.Current_Directory>
/home/itssahil/PROJECTS/Mol_Feturizer/New_Systems/rnas/3GX6

>  <Rbt.Executable>
rbdock ($Id: //depot/dev/client3/rdock/2013.1/src/exe/rbdock.cxx#4 $)

>  <Rbt.Library>
libRbt.so (2013.1, Build901 2013/11/27)

>  <Rbt.Parameter_File>
/export/apps/rDock/src/rDock_2013.1_src/data/scripts/dock_solv.prm

>  <Rbt.Receptor>
prm/blind_docking_20.prm

>  <SCORE>
-19.6577

>  <SCORE.INTER>
-9.92379

>  <SCORE.INTER.CONST>
1

>  <SCORE.INTER.POLAR>
0

>  <SCORE.INTER.ROT>
7

>  <SCORE.INTER.SOLV>
7.40377

>  <SCORE.INTER.VDW>
-17.3504

>  <SCORE.INTER.norm>
-0.367548

>  <SCORE.INTRA>
-9.7339

>  <SCORE.INTRA.DIHEDRAL>
-10.1451

>  <SCORE.INTRA.DIHEDRAL.0>
15.0182

>  <SCORE.INTRA.POLAR>
0

>  <SCORE.INTRA.POLAR.0>
0

>  <SCORE.INTRA.REPUL>
0

>  <SCORE.INTRA.REPUL.0>
0

>  <SCORE.INTRA.SOLV>
-1.31818

>  <SCORE.INTRA.SOLV.lig_0>
-47.9129

>  <SCORE.INTRA.VDW>
-4.00227

>  <SCORE.INTRA.VDW.0>
2.00851

>  <SCORE.INTRA.norm>
-0.360515

>  <SCORE.RESTR>
0

>  <SCORE.RESTR.CAVITY>
0

>  <SCORE.RESTR.norm>
0

>  <SCORE.SYSTEM>
0

>  <SCORE.SYSTEM.CONST>
0

>  <SCORE.SYSTEM.DIHEDRAL>
0

>  <SCORE.SYSTEM.SOLV>
0

>  <SCORE.SYSTEM.norm>
0

>  <SCORE.heavy>
27

>  <SCORE.norm>
-0.728063

>  <RMSD>
21.450

$$$$
ligand
 OpenBabel11021811483D
libRbt.so/2013.1/901 2013/11/27
 27 29  0  0  0  0  0  0  0  0999 V2000
  -11.6104    3.5788    7.5160 N   0  0  0  0  0  0  0  0  0  0  0  0
  -12.3818    4.4593    8.3893 C   0  0  2  0  0  0  0  0  0  0  0  0
  -12.2696    5.9216    7.9661 C   0  0  0  0  0  0  0  0  0  0  0  0
  -12.9793    6.3811    7.0686 O   0  0  0  0  0  0  0  0  0  0  0  0
  -11.9768    4.2703    9.8481 C   0  0  0  0  0  0  0  0  0  0  0  0
  -13.0567    4.6917   10.8326 C   0  0  0  0  0  0  0  0  0  0  0  0
  -12.5417    4.6044   12.5656 S   0  0  2  0  0  0  0  0  0  0  0  0
  -11.2252    5.8466   12.5797 C   0  0  0  0  0  0  0  0  0  0  0  0
  -11.5793    3.0674   12.5622 C   0  0  0  0  0  0  0  0  0  0  0  0
  -10.8827    2.9054   13.9056 C   0  0  1  0  0  0  0  0  0  0  0  0
  -10.9047    1.5417   14.2542 O   0  0  0  0  0  0  0  0  0  0  0  0
   -9.4134    3.2825   13.9348 C   0  0  1  0  0  0  0  0  0  0  0  0
   -9.2411    4.6026   14.3997 O   0  0  0  0  0  0  0  0  0  0  0  0
   -8.8281    2.3005   14.9293 C   0  0  1  0  0  0  0  0  0  0  0  0
   -8.5651    2.9857   16.1289 O   0  0  0  0  0  0  0  0  0  0  0  0
   -9.8886    1.2357   15.1745 C   0  0  2  0  0  0  0  0  0  0  0  0
  -11.4606    6.6716    8.5126 O   0  0  0  0  0  0  0  0  0  0  0  0
   -7.9975   -1.9157   11.3973 N   0  0  0  0  0  0  0  0  0  0  0  0
   -8.4609   -0.6207   11.2735 C   0  0  0  0  0  0  0  0  0  0  0  0
   -8.9288    0.0674   12.3771 N   0  0  0  0  0  0  0  0  0  0  0  0
   -8.9428   -0.5235   13.5955 C   0  0  0  0  0  0  0  0  0  0  0  0
   -8.4725   -1.8227   13.7409 C   0  0  0  0  0  0  0  0  0  0  0  0
   -8.0031   -2.5213   12.6351 C   0  0  0  0  0  0  0  0  0  0  0  0
   -7.5615   -3.7691   12.7729 N   0  0  0  0  0  0  0  0  0  0  0  0
   -8.5899   -2.1627   15.0425 N   0  0  0  0  0  0  0  0  0  0  0  0
   -9.1035   -1.1095   15.7206 C   0  0  0  0  0  0  0  0  0  0  0  0
   -9.3281   -0.0843   14.8402 N   0  0  0  0  0  0  0  0  0  0  0  0
  2  1  1  6  0  0  0
  2  3  1  0  0  0  0
  2  5  1  0  0  0  0
  3  4  1  0  0  0  0
  3 17  1  0  0  0  0
  5  6  1  0  0  0  0
  7  6  1  6  0  0  0
  7  8  1  0  0  0  0
  7  9  1  0  0  0  0
 10  9  1  6  0  0  0
 10 11  1  0  0  0  0
 10 12  1  0  0  0  0
 11 16  1  0  0  0  0
 12 13  1  1  0  0  0
 12 14  1  0  0  0  0
 14 15  1  1  0  0  0
 14 16  1  0  0  0  0
 16 27  1  6  0  0  0
 18 19  2  0  0  0  0
 18 23  1  0  0  0  0
 19 20  1  0  0  0  0
 20 21  2  0  0  0  0
 21 22  1  0  0  0  0
 21 27  1  0  0  0  0
 22 23  2  0  0  0  0
 22 25  1  0  0  0  0
 23 24  1  0  0  0  0
 25 26  2  0  0  0  0
 26 27  1  0  0  0  0
M  END
>  <CHROM.1>
82.82354469,-156.70319880,-175.15511248,63.98237789,172.11529534,142.24209921
47.39225737,-10.30841763,2.24316147,12.35587739,-2.93150111,-1.13063964,1.18091523

>  <Name>
ligand

>  <RI>
0

>  <Rbt.Current_Directory>
/home/itssahil/PROJECTS/Mol_Feturizer/New_Systems/rnas/3GX6

>  <Rbt.Executable>
rbdock ($Id: //depot/dev/client3/rdock/2013.1/src/exe/rbdock.cxx#4 $)

>  <Rbt.Library>
libRbt.so (2013.1, Build901 2013/11/27)

>  <Rbt.Parameter_File>
/export/apps/rDock/src/rDock_2013.1_src/data/scripts/dock_solv.prm

>  <Rbt.Receptor>
prm/blind_docking_100.prm

>  <SCORE>
-17.6914

>  <SCORE.INTER>
-10.9245

>  <SCORE.INTER.CONST>
1

>  <SCORE.INTER.POLAR>
0

>  <SCORE.INTER.ROT>
7

>  <SCORE.INTER.SOLV>
9.15816

>  <SCORE.INTER.VDW>
-18.6024

>  <SCORE.INTER.norm>
-0.40461

>  <SCORE.INTRA>
-6.76695

>  <SCORE.INTRA.DIHEDRAL>
-5.85513

>  <SCORE.INTRA.DIHEDRAL.0>
15.0182

>  <SCORE.INTRA.POLAR>
0

>  <SCORE.INTRA.POLAR.0>
0

>  <SCORE.INTRA.REPUL>
0

>  <SCORE.INTRA.REPUL.0>
0

>  <SCORE.INTRA.SOLV>
-1.53906

>  <SCORE.INTRA.SOLV.lig_0>
-47.9129

>  <SCORE.INTRA.VDW>
-3.06986

>  <SCORE.INTRA.VDW.0>
2.00851

>  <SCORE.INTRA.norm>
-0.250628

>  <SCORE.RESTR>
0

>  <SCORE.RESTR.CAVITY>
0

>  <SCORE.RESTR.norm>
0

>  <SCORE.SYSTEM>
0

>  <SCORE.SYSTEM.CONST>
0

>  <SCORE.SYSTEM.DIHEDRAL>
0

>  <SCORE.SYSTEM.SOLV>
0

>  <SCORE.SYSTEM.norm>
0

>  <SCORE.heavy>
27

>  <SCORE.norm>
-0.655238

>  <RMSD>
21.454

$$$$
ligand
 OpenBabel11021811483D
libRbt.so/2013.1/901 2013/11/27
 27 29  0  0  0  0  0  0  0  0999 V2000
  -10.0270    6.3229    9.1424 N   0  0  0  0  0  0  0  0  0  0  0  0
  -10.7377    5.0503    9.0506 C   0  0  2  0  0  0  0  0  0  0  0  0
  -10.9317    4.6098    7.6021 C   0  0  0  0  0  0  0  0  0  0  0  0
  -11.5007    5.3379    6.7858 O   0  0  0  0  0  0  0  0  0  0  0  0
  -12.0680    5.1146    9.7949 C   0  0  0  0  0  0  0  0  0  0  0  0
  -11.9121    5.3651   11.2869 C   0  0  0  0  0  0  0  0  0  0  0  0
  -11.0321    4.0476   12.1622 S   0  0  2  0  0  0  0  0  0  0  0  0
  -12.3466    2.8110   12.3010 C   0  0  0  0  0  0  0  0  0  0  0  0
  -10.9957    4.7176   13.8469 C   0  0  0  0  0  0  0  0  0  0  0  0
   -9.9336    3.9882   14.6570 C   0  0  1  0  0  0  0  0  0  0  0  0
  -10.1338    2.6032   14.5043 O   0  0  0  0  0  0  0  0  0  0  0  0
   -8.4992    4.2164   14.2184 C   0  0  1  0  0  0  0  0  0  0  0  0
   -7.8917    5.2292   14.9890 O   0  0  0  0  0  0  0  0  0  0  0  0
   -7.8391    2.8820   14.5003 C   0  0  1  0  0  0  0  0  0  0  0  0
   -7.0359    3.0165   15.6469 O   0  0  0  0  0  0  0  0  0  0  0  0
   -8.9572    1.8862   14.7773 C   0  0  2  0  0  0  0  0  0  0  0  0
  -10.5261    3.5114    7.2217 O   0  0  0  0  0  0  0  0  0  0  0  0
   -8.3402   -3.3078   14.1314 N   0  0  0  0  0  0  0  0  0  0  0  0
   -8.3919   -2.5965   15.3140 C   0  0  0  0  0  0  0  0  0  0  0  0
   -8.5577   -1.2245   15.3029 N   0  0  0  0  0  0  0  0  0  0  0  0
   -8.6671   -0.5587   14.1287 C   0  0  0  0  0  0  0  0  0  0  0  0
   -8.6260   -1.2586   12.9291 C   0  0  0  0  0  0  0  0  0  0  0  0
   -8.4568   -2.6378   12.9329 C   0  0  0  0  0  0  0  0  0  0  0  0
   -8.4079   -3.3068   11.7835 N   0  0  0  0  0  0  0  0  0  0  0  0
   -8.7640   -0.3669   11.9243 N   0  0  0  0  0  0  0  0  0  0  0  0
   -8.9077    0.8687   12.4584 C   0  0  0  0  0  0  0  0  0  0  0  0
   -8.8507    0.7693   13.8235 N   0  0  0  0  0  0  0  0  0  0  0  0
  2  1  1  6  0  0  0
  2  3  1  0  0  0  0
  2  5  1  0  0  0  0
  3  4  1  0  0  0  0
  3 17  1  0  0  0  0
  5  6  1  0  0  0  0
  7  6  1  6  0  0  0
  7  8  1  0  0  0  0
  7  9  1  0  0  0  0
 10  9  1  6  0  0  0
 10 11  1  0  0  0  0
 10 12  1  0  0  0  0
 11 16  1  0  0  0  0
 12 13  1  1  0  0  0
 12 14  1  0  0  0  0
 14 15  1  1  0  0  0
 14 16  1  0  0  0  0
 16 27  1  6  0  0  0
 18 19  2  0  0  0  0
 18 23  1  0  0  0  0
 19 20  1  0  0  0  0
 20 21  2  0  0  0  0
 21 22  1  0  0  0  0
 21 27  1  0  0  0  0
 22 23  2  0  0  0  0
 22 25  1  0  0  0  0
 23 24  1  0  0  0  0
 25 26  2  0  0  0  0
 26 27  1  0  0  0  0
M  END
>  <CHROM.1>
-56.28012117,-62.47447749,-63.18083170,-78.12956114,-162.31676669,-50.36162022
-126.89793376,-9.66184659,2.30677551,12.44265306,-2.80918035,1.21752508,-2.58815230

>  <Name>
ligand

>  <RI>
0

>  <Rbt.Current_Directory>
/home/itssahil/PROJECTS/Mol_Feturizer/New_Systems/rnas/3GX6

>  <Rbt.Executable>
rbdock ($Id: //depot/dev/client3/rdock/2013.1/src/exe/rbdock.cxx#4 $)

>  <Rbt.Library>
libRbt.so (2013.1, Build901 2013/11/27)

>  <Rbt.Parameter_File>
/export/apps/rDock/src/rDock_2013.1_src/data/scripts/dock_solv.prm

>  <Rbt.Receptor>
prm/blind_docking_20.prm

>  <SCORE>
-17.692

>  <SCORE.INTER>
-7.89781

>  <SCORE.INTER.CONST>
1

>  <SCORE.INTER.POLAR>
0

>  <SCORE.INTER.ROT>
7

>  <SCORE.INTER.SOLV>
5.62091

>  <SCORE.INTER.VDW>
-15.4055

>  <SCORE.INTER.norm>
-0.292511

>  <SCORE.INTRA>
-9.79422

>  <SCORE.INTRA.DIHEDRAL>
-9.4069

>  <SCORE.INTRA.DIHEDRAL.0>
15.0182

>  <SCORE.INTRA.POLAR>
0

>  <SCORE.INTRA.POLAR.0>
0

>  <SCORE.INTRA.REPUL>
0

>  <SCORE.INTRA.REPUL.0>
0

>  <SCORE.INTRA.SOLV>
-0.42926

>  <SCORE.INTRA.SOLV.lig_0>
-47.9129

>  <SCORE.INTRA.VDW>
-4.87614

>  <SCORE.INTRA.VDW.0>
2.00851

>  <SCORE.INTRA.norm>
-0.362749

>  <SCORE.RESTR>
0

>  <SCORE.RESTR.CAVITY>
0

>  <SCORE.RESTR.norm>
0

>  <SCORE.SYSTEM>
0

>  <SCORE.SYSTEM.CONST>
0

>  <SCORE.SYSTEM.DIHEDRAL>
0

>  <SCORE.SYSTEM.SOLV>
0

>  <SCORE.SYSTEM.norm>
0

>  <SCORE.heavy>
27

>  <SCORE.norm>
-0.65526

>  <RMSD>
21.493

$$$$
ligand
 OpenBabel11021811483D
libRbt.so/2013.1/901 2013/11/27
 27 29  0  0  0  0  0  0  0  0999 V2000
   -8.8318    0.1404   19.8385 N   0  0  0  0  0  0  0  0  0  0  0  0
   -9.1294    1.3876   19.1394 C   0  0  2  0  0  0  0  0  0  0  0  0
  -10.5595    1.4143   18.6065 C   0  0  0  0  0  0  0  0  0  0  0  0
  -11.1370    0.3749   18.2800 O   0  0  0  0  0  0  0  0  0  0  0  0
   -8.1169    1.6433   18.0270 C   0  0  0  0  0  0  0  0  0  0  0  0
   -8.2831    3.0007   17.3614 C   0  0  0  0  0  0  0  0  0  0  0  0
   -7.2886    3.2078   15.8633 S   0  0  2  0  0  0  0  0  0  0  0  0
   -5.6399    3.3940   16.5871 C   0  0  0  0  0  0  0  0  0  0  0  0
   -7.6794    4.9235   15.4246 C   0  0  0  0  0  0  0  0  0  0  0  0
   -9.1429    5.0194   15.0184 C   0  0  1  0  0  0  0  0  0  0  0  0
   -9.3452    6.2581   14.3808 O   0  0  0  0  0  0  0  0  0  0  0  0
   -9.6146    3.9898   14.0089 C   0  0  1  0  0  0  0  0  0  0  0  0
  -10.2280    2.8959   14.6537 O   0  0  0  0  0  0  0  0  0  0  0  0
  -10.6385    4.7538   13.1941 C   0  0  1  0  0  0  0  0  0  0  0  0
  -11.9215    4.3151   13.5676 O   0  0  0  0  0  0  0  0  0  0  0  0
  -10.4801    6.2249   13.5538 C   0  0  2  0  0  0  0  0  0  0  0  0
  -11.1639    2.4802   18.4874 O   0  0  0  0  0  0  0  0  0  0  0  0
   -7.4480    6.7080    9.2703 N   0  0  0  0  0  0  0  0  0  0  0  0
   -7.3713    5.7533   10.2651 C   0  0  0  0  0  0  0  0  0  0  0  0
   -8.2521    5.7747   11.3300 N   0  0  0  0  0  0  0  0  0  0  0  0
   -9.2006    6.7377   11.4132 C   0  0  0  0  0  0  0  0  0  0  0  0
   -9.2984    7.7016   10.4172 C   0  0  0  0  0  0  0  0  0  0  0  0
   -8.4144    7.6876    9.3452 C   0  0  0  0  0  0  0  0  0  0  0  0
   -8.5021    8.6165    8.3963 N   0  0  0  0  0  0  0  0  0  0  0  0
  -10.3194    8.5255   10.7370 N   0  0  0  0  0  0  0  0  0  0  0  0
  -10.8757    8.0970   11.8944 C   0  0  0  0  0  0  0  0  0  0  0  0
  -10.1956    6.9896   12.3279 N   0  0  0  0  0  0  0  0  0  0  0  0
  2  1  1  6  0  0  0
  2  3  1  0  0  0  0
  2  5  1  0  0  0  0
  3  4  1  0  0  0  0
  3 17  1  0  0  0  0
  5  6  1  0  0  0  0
  7  6  1  1  0  0  0
  7  8  1  0  0  0  0
  7  9  1  0  0  0  0
 10  9  1  6  0  0  0
 10 11  1  0  0  0  0
 10 12  1  0  0  0  0
 11 16  1  0  0  0  0
 12 13  1  1  0  0  0
 12 14  1  0  0  0  0
 14 15  1  1  0  0  0
 14 16  1  0  0  0  0
 16 27  1  6  0  0  0
 18 19  2  0  0  0  0
 18 23  1  0  0  0  0
 19 20  1  0  0  0  0
 20 21  2  0  0  0  0
 21 22  1  0  0  0  0
 21 27  1  0  0  0  0
 22 23  2  0  0  0  0
 22 25  1  0  0  0  0
 23 24  1  0  0  0  0
 25 26  2  0  0  0  0
 26 27  1  0  0  0  0
M  END
>  <CHROM.1>
-29.66875516,-173.71407611,-170.00675331,-73.46595203,-66.91146778,-165.92914643
59.81682416,-9.15591223,4.58909160,14.31208265,-1.59004028,0.08273565,-0.93459121

>  <Name>
ligand

>  <RI>
0

>  <Rbt.Current_Directory>
/home/itssahil/PROJECTS/Mol_Feturizer/New_Systems/rnas/3GX6

>  <Rbt.Executable>
rbdock ($Id: //depot/dev/client3/rdock/2013.1/src/exe/rbdock.cxx#4 $)

>  <Rbt.Library>
libRbt.so (2013.1, Build901 2013/11/27)

>  <Rbt.Parameter_File>
/export/apps/rDock/src/rDock_2013.1_src/data/scripts/dock_solv.prm

>  <Rbt.Receptor>
prm/blind_docking_60.prm

>  <SCORE>
-23.2041

>  <SCORE.INTER>
-12.5408

>  <SCORE.INTER.CONST>
1

>  <SCORE.INTER.POLAR>
0

>  <SCORE.INTER.ROT>
7

>  <SCORE.INTER.SOLV>
9.14702

>  <SCORE.INTER.VDW>
-19.6762

>  <SCORE.INTER.norm>
-0.464473

>  <SCORE.INTRA>
-10.6633

>  <SCORE.INTRA.DIHEDRAL>
-10.5504

>  <SCORE.INTRA.DIHEDRAL.0>
15.0182

>  <SCORE.INTRA.POLAR>
0

>  <SCORE.INTRA.POLAR.0>
0

>  <SCORE.INTRA.REPUL>
0

>  <SCORE.INTRA.REPUL.0>
0

>  <SCORE.INTRA.SOLV>
-1.44139

>  <SCORE.INTRA.SOLV.lig_0>
-47.9129

>  <SCORE.INTRA.VDW>
-4.66745

>  <SCORE.INTRA.VDW.0>
2.00851

>  <SCORE.INTRA.norm>
-0.394939

>  <SCORE.RESTR>
0

>  <SCORE.RESTR.CAVITY>
0

>  <SCORE.RESTR.norm>
0

>  <SCORE.SYSTEM>
0

>  <SCORE.SYSTEM.CONST>
0

>  <SCORE.SYSTEM.DIHEDRAL>
0

>  <SCORE.SYSTEM.SOLV>
0

>  <SCORE.SYSTEM.norm>
0

>  <SCORE.heavy>
27

>  <SCORE.norm>
-0.859412

>  <RMSD>
21.499

$$$$
ligand
 OpenBabel11021811483D
libRbt.so/2013.1/901 2013/11/27
 27 29  0  0  0  0  0  0  0  0999 V2000
  -12.6138    3.2922    8.1213 N   0  0  0  0  0  0  0  0  0  0  0  0
  -12.6561    4.6929    8.5324 C   0  0  2  0  0  0  0  0  0  0  0  0
  -11.8409    5.5848    7.5997 C   0  0  0  0  0  0  0  0  0  0  0  0
  -10.8192    5.1667    7.0505 O   0  0  0  0  0  0  0  0  0  0  0  0
  -12.2080    4.8487    9.9825 C   0  0  0  0  0  0  0  0  0  0  0  0
  -13.0788    4.0843   10.9676 C   0  0  0  0  0  0  0  0  0  0  0  0
  -12.4145    4.0406   12.6508 S   0  0  2  0  0  0  0  0  0  0  0  0
  -12.3419    5.8110   13.0209 C   0  0  0  0  0  0  0  0  0  0  0  0
  -10.6689    3.6746   12.3231 C   0  0  0  0  0  0  0  0  0  0  0  0
   -9.9259    3.5364   13.6442 C   0  0  1  0  0  0  0  0  0  0  0  0
  -10.2471    2.2855   14.2040 O   0  0  0  0  0  0  0  0  0  0  0  0
   -8.4116    3.5344   13.5504 C   0  0  1  0  0  0  0  0  0  0  0  0
   -7.8899    4.8218   13.7935 O   0  0  0  0  0  0  0  0  0  0  0  0
   -8.0016    2.5890   14.6613 C   0  0  1  0  0  0  0  0  0  0  0  0
   -7.4857    3.3502   15.7255 O   0  0  0  0  0  0  0  0  0  0  0  0
   -9.2638    1.8693   15.1167 C   0  0  2  0  0  0  0  0  0  0  0  0
  -12.1877    6.7458    7.3816 O   0  0  0  0  0  0  0  0  0  0  0  0
   -8.0436   -2.1044   11.8769 N   0  0  0  0  0  0  0  0  0  0  0  0
   -8.1217   -0.7577   11.5815 C   0  0  0  0  0  0  0  0  0  0  0  0
   -8.4613    0.1583   12.5593 N   0  0  0  0  0  0  0  0  0  0  0  0
   -8.7267   -0.2556   13.8210 C   0  0  0  0  0  0  0  0  0  0  0  0
   -8.6448   -1.6057   14.1389 C   0  0  0  0  0  0  0  0  0  0  0  0
   -8.3066   -2.5324   13.1601 C   0  0  0  0  0  0  0  0  0  0  0  0
   -8.2375   -3.8265   13.4625 N   0  0  0  0  0  0  0  0  0  0  0  0
   -8.9463   -1.7422   15.4481 N   0  0  0  0  0  0  0  0  0  0  0  0
   -9.1979   -0.5164   15.9647 C   0  0  0  0  0  0  0  0  0  0  0  0
   -9.0660    0.4173   14.9710 N   0  0  0  0  0  0  0  0  0  0  0  0
  2  1  1  6  0  0  0
  2  3  1  0  0  0  0
  2  5  1  0  0  0  0
  3  4  1  0  0  0  0
  3 17  1  0  0  0  0
  5  6  1  0  0  0  0
  7  6  1  6  0  0  0
  7  8  1  0  0  0  0
  7  9  1  0  0  0  0
 10  9  1  6  0  0  0
 10 11  1  0  0  0  0
 10 12  1  0  0  0  0
 11 16  1  0  0  0  0
 12 13  1  1  0  0  0
 12 14  1  0  0  0  0
 14 15  1  1  0  0  0
 14 16  1  0  0  0  0
 16 27  1  6  0  0  0
 18 19  2  0  0  0  0
 18 23  1  0  0  0  0
 19 20  1  0  0  0  0
 20 21  2  0  0  0  0
 21 22  1  0  0  0  0
 21 27  1  0  0  0  0
 22 23  2  0  0  0  0
 22 25  1  0  0  0  0
 23 24  1  0  0  0  0
 25 26  2  0  0  0  0
 26 27  1  0  0  0  0
M  END
>  <CHROM.1>
-32.87233573,-60.33440128,170.79370790,59.58312561,-177.66871327,76.01491388
56.53251991,-10.06327978,2.32741187,12.39328378,3.04199372,-1.13381538,0.75788488

>  <Name>
ligand

>  <RI>
0

>  <Rbt.Current_Directory>
/home/itssahil/PROJECTS/Mol_Feturizer/New_Systems/rnas/3GX6

>  <Rbt.Executable>
rbdock ($Id: //depot/dev/client3/rdock/2013.1/src/exe/rbdock.cxx#4 $)

>  <Rbt.Library>
libRbt.so (2013.1, Build901 2013/11/27)

>  <Rbt.Parameter_File>
/export/apps/rDock/src/rDock_2013.1_src/data/scripts/dock_solv.prm

>  <Rbt.Receptor>
prm/blind_docking_20.prm

>  <SCORE>
-20.1492

>  <SCORE.INTER>
-10.838

>  <SCORE.INTER.CONST>
1

>  <SCORE.INTER.POLAR>
0

>  <SCORE.INTER.ROT>
7

>  <SCORE.INTER.SOLV>
7.71637

>  <SCORE.INTER.VDW>
-18.0641

>  <SCORE.INTER.norm>
-0.401406

>  <SCORE.INTRA>
-9.31122

>  <SCORE.INTRA.DIHEDRAL>
-10.1301

>  <SCORE.INTRA.DIHEDRAL.0>
15.0182

>  <SCORE.INTRA.POLAR>
0

>  <SCORE.INTRA.POLAR.0>
0

>  <SCORE.INTRA.REPUL>
0

>  <SCORE.INTRA.REPUL.0>
0

>  <SCORE.INTRA.SOLV>
-1.10776

>  <SCORE.INTRA.SOLV.lig_0>
-47.9129

>  <SCORE.INTRA.VDW>
-3.69228

>  <SCORE.INTRA.VDW.0>
2.00851

>  <SCORE.INTRA.norm>
-0.34486

>  <SCORE.RESTR>
0

>  <SCORE.RESTR.CAVITY>
0

>  <SCORE.RESTR.norm>
0

>  <SCORE.SYSTEM>
0

>  <SCORE.SYSTEM.CONST>
0

>  <SCORE.SYSTEM.DIHEDRAL>
0

>  <SCORE.SYSTEM.SOLV>
0

>  <SCORE.SYSTEM.norm>
0

>  <SCORE.heavy>
27

>  <SCORE.norm>
-0.746266

>  <RMSD>
21.510

$$$$
ligand
 OpenBabel11021811483D
libRbt.so/2013.1/901 2013/11/27
 27 29  0  0  0  0  0  0  0  0999 V2000
  -11.8735    6.2202   12.9509 N   0  0  0  0  0  0  0  0  0  0  0  0
  -11.3555    6.9082   11.7714 C   0  0  2  0  0  0  0  0  0  0  0  0
  -11.7326    6.1867   10.4802 C   0  0  0  0  0  0  0  0  0  0  0  0
  -11.4214    6.6467    9.3793 O   0  0  0  0  0  0  0  0  0  0  0  0
   -9.8465    7.1077   11.8761 C   0  0  0  0  0  0  0  0  0  0  0  0
   -9.0847    5.8171   12.1349 C   0  0  0  0  0  0  0  0  0  0  0  0
   -7.2958    5.9636   11.9009 S   0  0  2  0  0  0  0  0  0  0  0  0
   -7.2061    6.0358   10.0944 C   0  0  0  0  0  0  0  0  0  0  0  0
   -6.7662    4.2579   12.2146 C   0  0  0  0  0  0  0  0  0  0  0  0
   -6.9444    3.9380   13.6919 C   0  0  1  0  0  0  0  0  0  0  0  0
   -7.9457    2.9561   13.8146 O   0  0  0  0  0  0  0  0  0  0  0  0
   -5.7358    3.3386   14.3860 C   0  0  1  0  0  0  0  0  0  0  0  0
   -4.9911    4.3345   15.0508 O   0  0  0  0  0  0  0  0  0  0  0  0
   -6.3551    2.3923   15.3944 C   0  0  1  0  0  0  0  0  0  0  0  0
   -6.2413    2.9677   16.6726 O   0  0  0  0  0  0  0  0  0  0  0  0
   -7.8267    2.2574   15.0273 C   0  0  2  0  0  0  0  0  0  0  0  0
  -12.3622    5.1293   10.5144 O   0  0  0  0  0  0  0  0  0  0  0  0
   -8.8300   -1.4891   11.4590 N   0  0  0  0  0  0  0  0  0  0  0  0
   -8.5697   -0.1509   11.2390 C   0  0  0  0  0  0  0  0  0  0  0  0
   -8.3277    0.7022   12.2992 N   0  0  0  0  0  0  0  0  0  0  0  0
   -8.3475    0.2354   13.5703 C   0  0  0  0  0  0  0  0  0  0  0  0
   -8.5991   -1.1098   13.8105 C   0  0  0  0  0  0  0  0  0  0  0  0
   -8.8459   -1.9724   12.7494 C   0  0  0  0  0  0  0  0  0  0  0  0
   -9.0963   -3.2589   12.9803 N   0  0  0  0  0  0  0  0  0  0  0  0
   -8.5536   -1.3078   15.1455 N   0  0  0  0  0  0  0  0  0  0  0  0
   -8.2639   -0.1308   15.7484 C   0  0  0  0  0  0  0  0  0  0  0  0
   -8.1322    0.8369   14.7878 N   0  0  0  0  0  0  0  0  0  0  0  0
  2  1  1  1  0  0  0
  2  3  1  0  0  0  0
  2  5  1  0  0  0  0
  3  4  1  0  0  0  0
  3 17  1  0  0  0  0
  5  6  1  0  0  0  0
  7  6  1  6  0  0  0
  7  8  1  0  0  0  0
  7  9  1  0  0  0  0
 10  9  1  6  0  0  0
 10 11  1  0  0  0  0
 10 12  1  0  0  0  0
 11 16  1  0  0  0  0
 12 13  1  1  0  0  0
 12 14  1  0  0  0  0
 14 15  1  1  0  0  0
 14 16  1  0  0  0  0
 16 27  1  6  0  0  0
 18 19  2  0  0  0  0
 18 23  1  0  0  0  0
 19 20  1  0  0  0  0
 20 21  2  0  0  0  0
 21 22  1  0  0  0  0
 21 27  1  0  0  0  0
 22 23  2  0  0  0  0
 22 25  1  0  0  0  0
 23 24  1  0  0  0  0
 25 26  2  0  0  0  0
 26 27  1  0  0  0  0
M  END
>  <CHROM.1>
177.45927305,54.27118748,167.22474269,-73.72656900,-69.70495211,113.64450233
7.03800797,-8.47463684,3.02606892,12.93747053,1.90842249,-0.68138311,-0.17351041

>  <Name>
ligand

>  <RI>
0

>  <Rbt.Current_Directory>
/home/itssahil/PROJECTS/Mol_Feturizer/New_Systems/rnas/3GX6

>  <Rbt.Executable>
rbdock ($Id: //depot/dev/client3/rdock/2013.1/src/exe/rbdock.cxx#4 $)

>  <Rbt.Library>
libRbt.so (2013.1, Build901 2013/11/27)

>  <Rbt.Parameter_File>
/export/apps/rDock/src/rDock_2013.1_src/data/scripts/dock_solv.prm

>  <Rbt.Receptor>
prm/blind_docking_20.prm

>  <SCORE>
-21.2851

>  <SCORE.INTER>
-13.4923

>  <SCORE.INTER.CONST>
1

>  <SCORE.INTER.POLAR>
0

>  <SCORE.INTER.ROT>
7

>  <SCORE.INTER.SOLV>
13.8548

>  <SCORE.INTER.VDW>
-21.8798

>  <SCORE.INTER.norm>
-0.499714

>  <SCORE.INTRA>
-7.79281

>  <SCORE.INTRA.DIHEDRAL>
-5.89069

>  <SCORE.INTRA.DIHEDRAL.0>
15.0182

>  <SCORE.INTRA.POLAR>
0

>  <SCORE.INTRA.POLAR.0>
0

>  <SCORE.INTRA.REPUL>
0

>  <SCORE.INTRA.REPUL.0>
0

>  <SCORE.INTRA.SOLV>
-1.05424

>  <SCORE.INTRA.SOLV.lig_0>
-47.9129

>  <SCORE.INTRA.VDW>
-4.32035

>  <SCORE.INTRA.VDW.0>
2.00851

>  <SCORE.INTRA.norm>
-0.288623

>  <SCORE.RESTR>
0

>  <SCORE.RESTR.CAVITY>
0

>  <SCORE.RESTR.norm>
0

>  <SCORE.SYSTEM>
0

>  <SCORE.SYSTEM.CONST>
0

>  <SCORE.SYSTEM.DIHEDRAL>
0

>  <SCORE.SYSTEM.SOLV>
0

>  <SCORE.SYSTEM.norm>
0

>  <SCORE.heavy>
27

>  <SCORE.norm>
-0.788336

>  <RMSD>
21.564

$$$$
ligand
 OpenBabel11021811483D
libRbt.so/2013.1/901 2013/11/27
 27 29  0  0  0  0  0  0  0  0999 V2000
  -11.8616    5.3704   11.0547 N   0  0  0  0  0  0  0  0  0  0  0  0
  -11.5766    6.6373   10.3865 C   0  0  2  0  0  0  0  0  0  0  0  0
  -10.7516    6.4387    9.1176 C   0  0  0  0  0  0  0  0  0  0  0  0
   -9.8340    5.6161    9.0768 O   0  0  0  0  0  0  0  0  0  0  0  0
  -10.9005    7.6166   11.3413 C   0  0  0  0  0  0  0  0  0  0  0  0
   -9.5689    7.1137   11.8770 C   0  0  0  0  0  0  0  0  0  0  0  0
   -9.7221    5.7405   13.0462 S   0  0  2  0  0  0  0  0  0  0  0  0
  -10.2712    6.6284   14.5250 C   0  0  0  0  0  0  0  0  0  0  0  0
   -7.9803    5.4309   13.4445 C   0  0  0  0  0  0  0  0  0  0  0  0
   -7.8903    4.3332   14.4948 C   0  0  1  0  0  0  0  0  0  0  0  0
   -8.6765    3.2463   14.0678 O   0  0  0  0  0  0  0  0  0  0  0  0
   -6.5100    3.7425   14.7129 C   0  0  1  0  0  0  0  0  0  0  0  0
   -5.8655    4.3576   15.8060 O   0  0  0  0  0  0  0  0  0  0  0  0
   -6.8058    2.2913   15.0333 C   0  0  1  0  0  0  0  0  0  0  0  0
   -6.6163    2.0926   16.4125 O   0  0  0  0  0  0  0  0  0  0  0  0
   -8.2677    2.0509   14.6816 C   0  0  2  0  0  0  0  0  0  0  0  0
  -10.9853    7.1034    8.1081 O   0  0  0  0  0  0  0  0  0  0  0  0
   -8.6209   -3.1472   13.8876 N   0  0  0  0  0  0  0  0  0  0  0  0
   -8.5664   -2.4709   15.0903 C   0  0  0  0  0  0  0  0  0  0  0  0
   -8.4716   -1.0923   15.1184 N   0  0  0  0  0  0  0  0  0  0  0  0
   -8.4261   -0.3867   13.9635 C   0  0  0  0  0  0  0  0  0  0  0  0
   -8.4883   -1.0494   12.7439 C   0  0  0  0  0  0  0  0  0  0  0  0
   -8.5810   -2.4354   12.7083 C   0  0  0  0  0  0  0  0  0  0  0  0
   -8.6310   -3.0706   11.5399 N   0  0  0  0  0  0  0  0  0  0  0  0
   -8.4324   -0.1211   11.7647 N   0  0  0  0  0  0  0  0  0  0  0  0
   -8.3546    1.1047   12.3338 C   0  0  0  0  0  0  0  0  0  0  0  0
   -8.3499    0.9598   13.6961 N   0  0  0  0  0  0  0  0  0  0  0  0
  2  1  1  1  0  0  0
  2  3  1  0  0  0  0
  2  5  1  0  0  0  0
  3  4  1  0  0  0  0
  3 17  1  0  0  0  0
  5  6  1  0  0  0  0
  7  6  1  6  0  0  0
  7  8  1  0  0  0  0
  7  9  1  0  0  0  0
 10  9  1  6  0  0  0
 10 11  1  0  0  0  0
 10 12  1  0  0  0  0
 11 16  1  0  0  0  0
 12 13  1  1  0  0  0
 12 14  1  0  0  0  0
 14 15  1  1  0  0  0
 14 16  1  0  0  0  0
 16 27  1  6  0  0  0
 18 19  2  0  0  0  0
 18 23  1  0  0  0  0
 19 20  1  0  0  0  0
 20 21  2  0  0  0  0
 21 22  1  0  0  0  0
 21 27  1  0  0  0  0
 22 23  2  0  0  0  0
 22 25  1  0  0  0  0
 23 24  1  0  0  0  0
 25 26  2  0  0  0  0
 26 27  1  0  0  0  0
M  END
>  <CHROM.1>
-39.73137703,60.78869966,-70.50100379,-76.27743003,176.99373967,50.01344262
-159.34776067,-8.89234560,3.00282673,12.96307599,2.12771141,-1.04133994,0.12312335

>  <Name>
ligand

>  <RI>
0

>  <Rbt.Current_Directory>
/home/itssahil/PROJECTS/Mol_Feturizer/New_Systems/rnas/3GX6

>  <Rbt.Executable>
rbdock ($Id: //depot/dev/client3/rdock/2013.1/src/exe/rbdock.cxx#4 $)

>  <Rbt.Library>
libRbt.so (2013.1, Build901 2013/11/27)

>  <Rbt.Parameter_File>
/export/apps/rDock/src/rDock_2013.1_src/data/scripts/dock_solv.prm

>  <Rbt.Receptor>
prm/blind_docking_20.prm

>  <SCORE>
-19.8615

>  <SCORE.INTER>
-10.5946

>  <SCORE.INTER.CONST>
1

>  <SCORE.INTER.POLAR>
0

>  <SCORE.INTER.ROT>
7

>  <SCORE.INTER.SOLV>
9.71111

>  <SCORE.INTER.VDW>
-18.5667

>  <SCORE.INTER.norm>
-0.392391

>  <SCORE.INTRA>
-9.26689

>  <SCORE.INTRA.DIHEDRAL>
-10.8215

>  <SCORE.INTRA.DIHEDRAL.0>
15.0182

>  <SCORE.INTRA.POLAR>
0

>  <SCORE.INTRA.POLAR.0>
0

>  <SCORE.INTRA.REPUL>
0

>  <SCORE.INTRA.REPUL.0>
0

>  <SCORE.INTRA.SOLV>
0.742827

>  <SCORE.INTRA.SOLV.lig_0>
-47.9129

>  <SCORE.INTRA.VDW>
-4.22754

>  <SCORE.INTRA.VDW.0>
2.00851

>  <SCORE.INTRA.norm>
-0.343218

>  <SCORE.RESTR>
0

>  <SCORE.RESTR.CAVITY>
0

>  <SCORE.RESTR.norm>
0

>  <SCORE.SYSTEM>
0

>  <SCORE.SYSTEM.CONST>
0

>  <SCORE.SYSTEM.DIHEDRAL>
0

>  <SCORE.SYSTEM.SOLV>
0

>  <SCORE.SYSTEM.norm>
0

>  <SCORE.heavy>
27

>  <SCORE.norm>
-0.735609

>  <RMSD>
21.600

$$$$
ligand
 OpenBabel11021811483D
libRbt.so/2013.1/901 2013/11/27
 27 29  0  0  0  0  0  0  0  0999 V2000
   -9.7740    6.4348    9.4327 N   0  0  0  0  0  0  0  0  0  0  0  0
  -10.1509    7.7149   10.0262 C   0  0  2  0  0  0  0  0  0  0  0  0
   -9.1226    8.8038    9.7314 C   0  0  0  0  0  0  0  0  0  0  0  0
   -9.4691    9.9707    9.5350 O   0  0  0  0  0  0  0  0  0  0  0  0
  -10.3924    7.5699   11.5257 C   0  0  0  0  0  0  0  0  0  0  0  0
  -11.6925    6.8552   11.8602 C   0  0  0  0  0  0  0  0  0  0  0  0
  -11.5497    5.0510   11.8883 S   0  0  2  0  0  0  0  0  0  0  0  0
  -13.2933    4.5861   12.0301 C   0  0  0  0  0  0  0  0  0  0  0  0
  -10.9703    4.7774   13.5847 C   0  0  0  0  0  0  0  0  0  0  0  0
   -9.5116    5.1979   13.6935 C   0  0  1  0  0  0  0  0  0  0  0  0
   -9.2274    5.4644   15.0462 O   0  0  0  0  0  0  0  0  0  0  0  0
   -8.4925    4.1491   13.2895 C   0  0  1  0  0  0  0  0  0  0  0  0
   -8.0821    4.3337   11.9531 O   0  0  0  0  0  0  0  0  0  0  0  0
   -7.3353    4.4165   14.2304 C   0  0  1  0  0  0  0  0  0  0  0  0
   -6.3082    5.0459   13.5047 O   0  0  0  0  0  0  0  0  0  0  0  0
   -7.8508    5.3630   15.3061 C   0  0  2  0  0  0  0  0  0  0  0  0
   -7.9224    8.5344    9.6790 O   0  0  0  0  0  0  0  0  0  0  0  0
   -4.5099    2.9734   18.6081 N   0  0  0  0  0  0  0  0  0  0  0  0
   -4.2554    3.4540   17.3388 C   0  0  0  0  0  0  0  0  0  0  0  0
   -5.2566    4.0573   16.6013 N   0  0  0  0  0  0  0  0  0  0  0  0
   -6.5038    4.1806   17.1144 C   0  0  0  0  0  0  0  0  0  0  0  0
   -6.7763    3.7107   18.3932 C   0  0  0  0  0  0  0  0  0  0  0  0
   -5.7751    3.1006   19.1391 C   0  0  0  0  0  0  0  0  0  0  0  0
   -6.0388    2.6420   20.3603 N   0  0  0  0  0  0  0  0  0  0  0  0
   -8.0760    3.9632   18.6591 N   0  0  0  0  0  0  0  0  0  0  0  0
   -8.6220    4.5928   17.5923 C   0  0  0  0  0  0  0  0  0  0  0  0
   -7.6623    4.7366   16.6254 N   0  0  0  0  0  0  0  0  0  0  0  0
  2  1  1  1  0  0  0
  2  3  1  0  0  0  0
  2  5  1  0  0  0  0
  3  4  1  0  0  0  0
  3 17  1  0  0  0  0
  5  6  1  0  0  0  0
  7  6  1  1  0  0  0
  7  8  1  0  0  0  0
  7  9  1  0  0  0  0
 10  9  1  1  0  0  0
 10 11  1  0  0  0  0
 10 12  1  0  0  0  0
 11 16  1  0  0  0  0
 12 13  1  6  0  0  0
 12 14  1  0  0  0  0
 14 15  1  6  0  0  0
 14 16  1  0  0  0  0
 16 27  1  1  0  0  0
 18 19  2  0  0  0  0
 18 23  1  0  0  0  0
 19 20  1  0  0  0  0
 20 21  2  0  0  0  0
 21 22  1  0  0  0  0
 21 27  1  0  0  0  0
 22 23  2  0  0  0  0
 22 25  1  0  0  0  0
 23 24  1  0  0  0  0
 25 26  2  0  0  0  0
 26 27  1  0  0  0  0
M  END
>  <CHROM.1>
144.23444927,-73.52303236,85.72233185,-170.89739424,-73.59304630,158.04698151
163.74248214,-8.52010283,5.29016462,14.08878378,-2.04335884,0.22937574,2.13315053

>  <Name>
ligand

>  <RI>
0

>  <Rbt.Current_Directory>
/home/itssahil/PROJECTS/Mol_Feturizer/New_Systems/rnas/3GX6

>  <Rbt.Executable>
rbdock ($Id: //depot/dev/client3/rdock/2013.1/src/exe/rbdock.cxx#4 $)

>  <Rbt.Library>
libRbt.so (2013.1, Build901 2013/11/27)

>  <Rbt.Parameter_File>
/export/apps/rDock/src/rDock_2013.1_src/data/scripts/dock_solv.prm

>  <Rbt.Receptor>
prm/blind_docking_60.prm

>  <SCORE>
-21.4409

>  <SCORE.INTER>
-13.1758

>  <SCORE.INTER.CONST>
1

>  <SCORE.INTER.POLAR>
0

>  <SCORE.INTER.ROT>
7

>  <SCORE.INTER.SOLV>
7.55111

>  <SCORE.INTER.VDW>
-19.5676

>  <SCORE.INTER.norm>
-0.487993

>  <SCORE.INTRA>
-8.26506

>  <SCORE.INTRA.DIHEDRAL>
-6.50612

>  <SCORE.INTRA.DIHEDRAL.0>
15.0182

>  <SCORE.INTRA.POLAR>
0

>  <SCORE.INTRA.POLAR.0>
0

>  <SCORE.INTRA.REPUL>
0

>  <SCORE.INTRA.REPUL.0>
0

>  <SCORE.INTRA.SOLV>
0.661324

>  <SCORE.INTRA.SOLV.lig_0>
-47.9129

>  <SCORE.INTRA.VDW>
-5.34266

>  <SCORE.INTRA.VDW.0>
2.00851

>  <SCORE.INTRA.norm>
-0.306113

>  <SCORE.RESTR>
0

>  <SCORE.RESTR.CAVITY>
0

>  <SCORE.RESTR.norm>
0

>  <SCORE.SYSTEM>
0

>  <SCORE.SYSTEM.CONST>
0

>  <SCORE.SYSTEM.DIHEDRAL>
0

>  <SCORE.SYSTEM.SOLV>
0

>  <SCORE.SYSTEM.norm>
0

>  <SCORE.heavy>
27

>  <SCORE.norm>
-0.794106

>  <RMSD>
21.600

$$$$
ligand
 OpenBabel11021811483D
libRbt.so/2013.1/901 2013/11/27
 27 29  0  0  0  0  0  0  0  0999 V2000
   -9.4281    7.6271    9.7661 N   0  0  0  0  0  0  0  0  0  0  0  0
   -8.5681    6.4891   10.0791 C   0  0  2  0  0  0  0  0  0  0  0  0
   -8.3470    5.5915    8.8644 C   0  0  0  0  0  0  0  0  0  0  0  0
   -7.3052    5.6536    8.2078 O   0  0  0  0  0  0  0  0  0  0  0  0
   -9.1201    5.6982   11.2614 C   0  0  0  0  0  0  0  0  0  0  0  0
  -10.5778    5.2991   11.0912 C   0  0  0  0  0  0  0  0  0  0  0  0
  -11.1958    4.2101   12.3983 S   0  0  2  0  0  0  0  0  0  0  0  0
  -12.9762    4.2982   12.0842 C   0  0  0  0  0  0  0  0  0  0  0  0
  -11.0374    5.2875   13.8482 C   0  0  0  0  0  0  0  0  0  0  0  0
   -9.9534    4.7416   14.7664 C   0  0  1  0  0  0  0  0  0  0  0  0
  -10.3052    3.4295   15.1357 O   0  0  0  0  0  0  0  0  0  0  0  0
   -8.5742    4.6067   14.1488 C   0  0  1  0  0  0  0  0  0  0  0  0
   -7.7750    5.7287   14.4504 O   0  0  0  0  0  0  0  0  0  0  0  0
   -8.0150    3.3726   14.8272 C   0  0  1  0  0  0  0  0  0  0  0  0
   -7.0582    3.7803   15.7739 O   0  0  0  0  0  0  0  0  0  0  0  0
   -9.1779    2.6954   15.5396 C   0  0  2  0  0  0  0  0  0  0  0  0
   -9.2116    4.7885    8.5132 O   0  0  0  0  0  0  0  0  0  0  0  0
   -8.4470   -0.6130   11.5028 N   0  0  0  0  0  0  0  0  0  0  0  0
   -8.1605    0.7367   11.5608 C   0  0  0  0  0  0  0  0  0  0  0  0
   -8.4201    1.4621   12.7082 N   0  0  0  0  0  0  0  0  0  0  0  0
   -8.9644    0.8573   13.7907 C   0  0  0  0  0  0  0  0  0  0  0  0
   -9.2514   -0.5016   13.7538 C   0  0  0  0  0  0  0  0  0  0  0  0
   -8.9954   -1.2365   12.6025 C   0  0  0  0  0  0  0  0  0  0  0  0
   -9.2793   -2.5361   12.5641 N   0  0  0  0  0  0  0  0  0  0  0  0
   -9.7723   -0.8477   14.9507 N   0  0  0  0  0  0  0  0  0  0  0  0
   -9.8044    0.2497   15.7427 C   0  0  0  0  0  0  0  0  0  0  0  0
   -9.3071    1.3159   15.0408 N   0  0  0  0  0  0  0  0  0  0  0  0
  2  1  1  6  0  0  0
  2  3  1  0  0  0  0
  2  5  1  0  0  0  0
  3  4  1  0  0  0  0
  3 17  1  0  0  0  0
  5  6  1  0  0  0  0
  7  6  1  6  0  0  0
  7  8  1  0  0  0  0
  7  9  1  0  0  0  0
 10  9  1  6  0  0  0
 10 11  1  0  0  0  0
 10 12  1  0  0  0  0
 11 16  1  0  0  0  0
 12 13  1  1  0  0  0
 12 14  1  0  0  0  0
 14 15  1  1  0  0  0
 14 16  1  0  0  0  0
 16 27  1  6  0  0  0
 18 19  2  0  0  0  0
 18 23  1  0  0  0  0
 19 20  1  0  0  0  0
 20 21  2  0  0  0  0
 21 22  1  0  0  0  0
 21 27  1  0  0  0  0
 22 23  2  0  0  0  0
 22 25  1  0  0  0  0
 23 24  1  0  0  0  0
 25 26  2  0  0  0  0
 26 27  1  0  0  0  0
M  END
>  <CHROM.1>
100.99630581,52.23882208,173.72531643,166.91036400,-111.88593530,-58.33382677
83.96548751,-9.31565756,3.19046478,12.73603475,-1.63744935,-1.42615791,2.49059848

>  <Name>
ligand

>  <RI>
0

>  <Rbt.Current_Directory>
/home/itssahil/PROJECTS/Mol_Feturizer/New_Systems/rnas/3GX6

>  <Rbt.Executable>
rbdock ($Id: //depot/dev/client3/rdock/2013.1/src/exe/rbdock.cxx#4 $)

>  <Rbt.Library>
libRbt.so (2013.1, Build901 2013/11/27)

>  <Rbt.Parameter_File>
/export/apps/rDock/src/rDock_2013.1_src/data/scripts/dock_solv.prm

>  <Rbt.Receptor>
prm/blind_docking_20.prm

>  <SCORE>
-18.6208

>  <SCORE.INTER>
-9.97735

>  <SCORE.INTER.CONST>
1

>  <SCORE.INTER.POLAR>
0

>  <SCORE.INTER.ROT>
7

>  <SCORE.INTER.SOLV>
7.18971

>  <SCORE.INTER.VDW>
-17.3148

>  <SCORE.INTER.norm>
-0.369531

>  <SCORE.INTRA>
-8.64345

>  <SCORE.INTRA.DIHEDRAL>
-7.79545

>  <SCORE.INTRA.DIHEDRAL.0>
15.0182

>  <SCORE.INTRA.POLAR>
0

>  <SCORE.INTRA.POLAR.0>
0

>  <SCORE.INTRA.REPUL>
0

>  <SCORE.INTRA.REPUL.0>
0

>  <SCORE.INTRA.SOLV>
-0.68623

>  <SCORE.INTRA.SOLV.lig_0>
-47.9129

>  <SCORE.INTRA.VDW>
-4.40261

>  <SCORE.INTRA.VDW.0>
2.00851

>  <SCORE.INTRA.norm>
-0.320128

>  <SCORE.RESTR>
0

>  <SCORE.RESTR.CAVITY>
0

>  <SCORE.RESTR.norm>
0

>  <SCORE.SYSTEM>
0

>  <SCORE.SYSTEM.CONST>
0

>  <SCORE.SYSTEM.DIHEDRAL>
0

>  <SCORE.SYSTEM.SOLV>
0

>  <SCORE.SYSTEM.norm>
0

>  <SCORE.heavy>
27

>  <SCORE.norm>
-0.689659

>  <RMSD>
21.601

$$$$
ligand
 OpenBabel11021811483D
libRbt.so/2013.1/901 2013/11/27
 27 29  0  0  0  0  0  0  0  0999 V2000
  -10.1987    6.6819    9.1343 N   0  0  0  0  0  0  0  0  0  0  0  0
  -10.2551    7.6573   10.2198 C   0  0  2  0  0  0  0  0  0  0  0  0
   -9.3056    8.8287    9.9824 C   0  0  0  0  0  0  0  0  0  0  0  0
   -8.0982    8.7262   10.2105 O   0  0  0  0  0  0  0  0  0  0  0  0
   -9.9888    6.9901   11.5658 C   0  0  0  0  0  0  0  0  0  0  0  0
  -11.0321    5.9483   11.9387 C   0  0  0  0  0  0  0  0  0  0  0  0
  -10.6752    5.0754   13.4837 S   0  0  2  0  0  0  0  0  0  0  0  0
  -10.4091    6.4767   14.5982 C   0  0  0  0  0  0  0  0  0  0  0  0
   -8.9715    4.5302   13.1860 C   0  0  0  0  0  0  0  0  0  0  0  0
   -8.4120    3.9070   14.4568 C   0  0  1  0  0  0  0  0  0  0  0  0
   -9.1246    2.7218   14.7196 O   0  0  0  0  0  0  0  0  0  0  0  0
   -6.9599    3.4721   14.3923 C   0  0  1  0  0  0  0  0  0  0  0  0
   -6.1122    4.4657   14.9241 O   0  0  0  0  0  0  0  0  0  0  0  0
   -6.9327    2.2396   15.2733 C   0  0  1  0  0  0  0  0  0  0  0  0
   -6.3101    2.5752   16.4888 O   0  0  0  0  0  0  0  0  0  0  0  0
   -8.3819    1.8520   15.5349 C   0  0  2  0  0  0  0  0  0  0  0  0
   -9.7312    9.9046    9.5616 O   0  0  0  0  0  0  0  0  0  0  0  0
   -8.5738   -1.4398   11.4237 N   0  0  0  0  0  0  0  0  0  0  0  0
   -8.3097   -0.0843   11.4181 C   0  0  0  0  0  0  0  0  0  0  0  0
   -8.3010    0.6354   12.5980 N   0  0  0  0  0  0  0  0  0  0  0  0
   -8.5567    0.0191   13.7765 C   0  0  0  0  0  0  0  0  0  0  0  0
   -8.8160   -1.3457   13.8025 C   0  0  0  0  0  0  0  0  0  0  0  0
   -8.8290   -2.0749   12.6197 C   0  0  0  0  0  0  0  0  0  0  0  0
   -9.0868   -3.3802   12.6439 N   0  0  0  0  0  0  0  0  0  0  0  0
   -9.0269   -1.7028   15.0877 N   0  0  0  0  0  0  0  0  0  0  0  0
   -8.8905   -0.6064   15.8699 C   0  0  0  0  0  0  0  0  0  0  0  0
   -8.5985    0.4701   15.0746 N   0  0  0  0  0  0  0  0  0  0  0  0
  2  1  1  6  0  0  0
  2  3  1  0  0  0  0
  2  5  1  0  0  0  0
  3  4  1  0  0  0  0
  3 17  1  0  0  0  0
  5  6  1  0  0  0  0
  7  6  1  6  0  0  0
  7  8  1  0  0  0  0
  7  9  1  0  0  0  0
 10  9  1  6  0  0  0
 10 11  1  0  0  0  0
 10 12  1  0  0  0  0
 11 16  1  0  0  0  0
 12 13  1  1  0  0  0
 12 14  1  0  0  0  0
 14 15  1  1  0  0  0
 14 16  1  0  0  0  0
 16 27  1  6  0  0  0
 18 19  2  0  0  0  0
 18 23  1  0  0  0  0
 19 20  1  0  0  0  0
 20 21  2  0  0  0  0
 21 22  1  0  0  0  0
 21 27  1  0  0  0  0
 22 23  2  0  0  0  0
 22 25  1  0  0  0  0
 23 24  1  0  0  0  0
 25 26  2  0  0  0  0
 26 27  1  0  0  0  0
M  END
>  <CHROM.1>
-79.22911843,-62.93993276,176.42344310,52.02273797,173.14344211,66.48036817
46.56614552,-8.88607936,3.28669369,13.12857571,1.94966368,-1.19577804,0.00555394

>  <Name>
ligand

>  <RI>
0

>  <Rbt.Current_Directory>
/home/itssahil/PROJECTS/Mol_Feturizer/New_Systems/rnas/3GX6

>  <Rbt.Executable>
rbdock ($Id: //depot/dev/client3/rdock/2013.1/src/exe/rbdock.cxx#4 $)

>  <Rbt.Library>
libRbt.so (2013.1, Build901 2013/11/27)

>  <Rbt.Parameter_File>
/export/apps/rDock/src/rDock_2013.1_src/data/scripts/dock_solv.prm

>  <Rbt.Receptor>
prm/blind_docking_20.prm

>  <SCORE>
-22.2482

>  <SCORE.INTER>
-12.5187

>  <SCORE.INTER.CONST>
1

>  <SCORE.INTER.POLAR>
0

>  <SCORE.INTER.ROT>
7

>  <SCORE.INTER.SOLV>
7.21388

>  <SCORE.INTER.VDW>
-19.0171

>  <SCORE.INTER.norm>
-0.463657

>  <SCORE.INTRA>
-9.72946

>  <SCORE.INTRA.DIHEDRAL>
-11.5592

>  <SCORE.INTRA.DIHEDRAL.0>
15.0182

>  <SCORE.INTRA.POLAR>
0

>  <SCORE.INTRA.POLAR.0>
0

>  <SCORE.INTRA.REPUL>
0

>  <SCORE.INTRA.REPUL.0>
0

>  <SCORE.INTRA.SOLV>
-1.16319

>  <SCORE.INTRA.SOLV.lig_0>
-47.9129

>  <SCORE.INTRA.VDW>
-3.36828

>  <SCORE.INTRA.VDW.0>
2.00851

>  <SCORE.INTRA.norm>
-0.36035

>  <SCORE.RESTR>
0

>  <SCORE.RESTR.CAVITY>
0

>  <SCORE.RESTR.norm>
0

>  <SCORE.SYSTEM>
0

>  <SCORE.SYSTEM.CONST>
0

>  <SCORE.SYSTEM.DIHEDRAL>
0

>  <SCORE.SYSTEM.SOLV>
0

>  <SCORE.SYSTEM.norm>
0

>  <SCORE.heavy>
27

>  <SCORE.norm>
-0.824007

>  <RMSD>
21.604

$$$$
ligand
 OpenBabel11021811483D
libRbt.so/2013.1/901 2013/11/27
 27 29  0  0  0  0  0  0  0  0999 V2000
  -10.2550    5.5637    7.6395 N   0  0  0  0  0  0  0  0  0  0  0  0
   -9.7614    5.7640    8.9993 C   0  0  2  0  0  0  0  0  0  0  0  0
   -8.2457    5.6041    9.0840 C   0  0  0  0  0  0  0  0  0  0  0  0
   -7.5480    5.5992    8.0673 O   0  0  0  0  0  0  0  0  0  0  0  0
  -10.4737    4.8366    9.9793 C   0  0  0  0  0  0  0  0  0  0  0  0
  -10.3564    5.2859   11.4276 C   0  0  0  0  0  0  0  0  0  0  0  0
  -11.3258    4.2869   12.5845 S   0  0  2  0  0  0  0  0  0  0  0  0
  -13.0042    4.7696   12.1083 C   0  0  0  0  0  0  0  0  0  0  0  0
  -11.1079    5.2281   14.1192 C   0  0  0  0  0  0  0  0  0  0  0  0
   -9.8819    4.7112   14.8582 C   0  0  1  0  0  0  0  0  0  0  0  0
  -10.1504    3.4017   15.2996 O   0  0  0  0  0  0  0  0  0  0  0  0
   -8.6188    4.5817   14.0276 C   0  0  1  0  0  0  0  0  0  0  0  0
   -7.7977    5.7182   14.1787 O   0  0  0  0  0  0  0  0  0  0  0  0
   -7.9395    3.3664   14.6255 C   0  0  1  0  0  0  0  0  0  0  0  0
   -6.8484    3.8019   15.3985 O   0  0  0  0  0  0  0  0  0  0  0  0
   -8.9622    2.6881   15.5270 C   0  0  2  0  0  0  0  0  0  0  0  0
   -7.6898    5.4711   10.1744 O   0  0  0  0  0  0  0  0  0  0  0  0
   -8.4896   -0.7597   11.5692 N   0  0  0  0  0  0  0  0  0  0  0  0
   -8.1632    0.5821   11.5737 C   0  0  0  0  0  0  0  0  0  0  0  0
   -8.3554    1.3489   12.7074 N   0  0  0  0  0  0  0  0  0  0  0  0
   -8.8718    0.7930   13.8291 C   0  0  0  0  0  0  0  0  0  0  0  0
   -9.1981   -0.5575   13.8460 C   0  0  0  0  0  0  0  0  0  0  0  0
   -9.0100   -1.3336   12.7088 C   0  0  0  0  0  0  0  0  0  0  0  0
   -9.3315   -2.6250   12.7222 N   0  0  0  0  0  0  0  0  0  0  0  0
   -9.6792   -0.8521   15.0728 N   0  0  0  0  0  0  0  0  0  0  0  0
   -9.6482    0.2690   15.8310 C   0  0  0  0  0  0  0  0  0  0  0  0
   -9.1502    1.2986   15.0770 N   0  0  0  0  0  0  0  0  0  0  0  0
  2  1  1  6  0  0  0
  2  3  1  0  0  0  0
  2  5  1  0  0  0  0
  3  4  1  0  0  0  0
  3 17  1  0  0  0  0
  5  6  1  0  0  0  0
  7  6  1  6  0  0  0
  7  8  1  0  0  0  0
  7  9  1  0  0  0  0
 10  9  1  6  0  0  0
 10 11  1  0  0  0  0
 10 12  1  0  0  0  0
 11 16  1  0  0  0  0
 12 13  1  1  0  0  0
 12 14  1  0  0  0  0
 14 15  1  1  0  0  0
 14 16  1  0  0  0  0
 16 27  1  6  0  0  0
 18 19  2  0  0  0  0
 18 23  1  0  0  0  0
 19 20  1  0  0  0  0
 20 21  2  0  0  0  0
 21 22  1  0  0  0  0
 21 27  1  0  0  0  0
 22 23  2  0  0  0  0
 22 25  1  0  0  0  0
 23 24  1  0  0  0  0
 25 26  2  0  0  0  0
 26 27  1  0  0  0  0
M  END
>  <CHROM.1>
14.38606780,-161.17246621,174.48370181,-69.39567334,-90.20905660,-67.37037058
91.40109262,-9.34328555,3.08215766,12.68096565,-1.98235884,-1.41237803,2.05178227

>  <Name>
ligand

>  <RI>
0

>  <Rbt.Current_Directory>
/home/itssahil/PROJECTS/Mol_Feturizer/New_Systems/rnas/3GX6

>  <Rbt.Executable>
rbdock ($Id: //depot/dev/client3/rdock/2013.1/src/exe/rbdock.cxx#4 $)

>  <Rbt.Library>
libRbt.so (2013.1, Build901 2013/11/27)

>  <Rbt.Parameter_File>
/export/apps/rDock/src/rDock_2013.1_src/data/scripts/dock_solv.prm

>  <Rbt.Receptor>
prm/blind_docking_20.prm

>  <SCORE>
-19.4407

>  <SCORE.INTER>
-10.3468

>  <SCORE.INTER.CONST>
1

>  <SCORE.INTER.POLAR>
0

>  <SCORE.INTER.ROT>
7

>  <SCORE.INTER.SOLV>
7.57341

>  <SCORE.INTER.VDW>
-17.689

>  <SCORE.INTER.norm>
-0.383216

>  <SCORE.INTRA>
-9.09384

>  <SCORE.INTRA.DIHEDRAL>
-9.03269

>  <SCORE.INTRA.DIHEDRAL.0>
15.0182

>  <SCORE.INTRA.POLAR>
0

>  <SCORE.INTRA.POLAR.0>
0

>  <SCORE.INTRA.REPUL>
0

>  <SCORE.INTRA.REPUL.0>
0

>  <SCORE.INTRA.SOLV>
-1.49577

>  <SCORE.INTRA.SOLV.lig_0>
-47.9129

>  <SCORE.INTRA.VDW>
-3.8296

>  <SCORE.INTRA.VDW.0>
2.00851

>  <SCORE.INTRA.norm>
-0.336809

>  <SCORE.RESTR>
0

>  <SCORE.RESTR.CAVITY>
0

>  <SCORE.RESTR.norm>
0

>  <SCORE.SYSTEM>
0

>  <SCORE.SYSTEM.CONST>
0

>  <SCORE.SYSTEM.DIHEDRAL>
0

>  <SCORE.SYSTEM.SOLV>
0

>  <SCORE.SYSTEM.norm>
0

>  <SCORE.heavy>
27

>  <SCORE.norm>
-0.720025

>  <RMSD>
21.619

$$$$
ligand
 OpenBabel11021811483D
libRbt.so/2013.1/901 2013/11/27
 27 29  0  0  0  0  0  0  0  0999 V2000
   -9.2138    8.0365    8.8148 N   0  0  0  0  0  0  0  0  0  0  0  0
   -8.3025    6.9558    9.1816 C   0  0  2  0  0  0  0  0  0  0  0  0
   -8.2154    5.8902    8.0922 C   0  0  0  0  0  0  0  0  0  0  0  0
   -8.8787    4.8531    8.1613 O   0  0  0  0  0  0  0  0  0  0  0  0
   -8.6928    6.3467   10.5249 C   0  0  0  0  0  0  0  0  0  0  0  0
   -7.6006    5.4812   11.1340 C   0  0  0  0  0  0  0  0  0  0  0  0
   -8.1857    4.3804   12.4464 S   0  0  2  0  0  0  0  0  0  0  0  0
   -8.8275    5.5916   13.6287 C   0  0  0  0  0  0  0  0  0  0  0  0
   -6.6182    3.9152   13.2305 C   0  0  0  0  0  0  0  0  0  0  0  0
   -6.8953    3.3536   14.6177 C   0  0  1  0  0  0  0  0  0  0  0  0
   -7.9031    2.3771   14.5069 O   0  0  0  0  0  0  0  0  0  0  0  0
   -5.7362    2.6316   15.2789 C   0  0  1  0  0  0  0  0  0  0  0  0
   -5.0370    3.4926   16.1498 O   0  0  0  0  0  0  0  0  0  0  0  0
   -6.4223    1.5367   16.0705 C   0  0  1  0  0  0  0  0  0  0  0  0
   -6.3940    1.8876   17.4320 O   0  0  0  0  0  0  0  0  0  0  0  0
   -7.8661    1.4831   15.5896 C   0  0  2  0  0  0  0  0  0  0  0  0
   -7.4734    6.0453    7.1221 O   0  0  0  0  0  0  0  0  0  0  0  0
   -8.7271   -1.5791   11.3876 N   0  0  0  0  0  0  0  0  0  0  0  0
   -8.4664   -0.2233   11.4146 C   0  0  0  0  0  0  0  0  0  0  0  0
   -8.2653    0.4305   12.6156 N   0  0  0  0  0  0  0  0  0  0  0  0
   -8.3262   -0.2518   13.7838 C   0  0  0  0  0  0  0  0  0  0  0  0
   -8.5789   -1.6180   13.7757 C   0  0  0  0  0  0  0  0  0  0  0  0
   -8.7847   -2.2811   12.5720 C   0  0  0  0  0  0  0  0  0  0  0  0
   -9.0361   -3.5880   12.5651 N   0  0  0  0  0  0  0  0  0  0  0  0
   -8.5780   -2.0470   15.0562 N   0  0  0  0  0  0  0  0  0  0  0  0
   -8.3153   -0.9942   15.8656 C   0  0  0  0  0  0  0  0  0  0  0  0
   -8.1558    0.1268   15.0945 N   0  0  0  0  0  0  0  0  0  0  0  0
  2  1  1  6  0  0  0
  2  3  1  0  0  0  0
  2  5  1  0  0  0  0
  3  4  1  0  0  0  0
  3 17  1  0  0  0  0
  5  6  1  0  0  0  0
  7  6  1  6  0  0  0
  7  8  1  0  0  0  0
  7  9  1  0  0  0  0
 10  9  1  6  0  0  0
 10 11  1  0  0  0  0
 10 12  1  0  0  0  0
 11 16  1  0  0  0  0
 12 13  1  1  0  0  0
 12 14  1  0  0  0  0
 14 15  1  1  0  0  0
 14 16  1  0  0  0  0
 16 27  1  6  0  0  0
 18 19  2  0  0  0  0
 18 23  1  0  0  0  0
 19 20  1  0  0  0  0
 20 21  2  0  0  0  0
 21 22  1  0  0  0  0
 21 27  1  0  0  0  0
 22 23  2  0  0  0  0
 22 25  1  0  0  0  0
 23 24  1  0  0  0  0
 25 26  2  0  0  0  0
 26 27  1  0  0  0  0
M  END
>  <CHROM.1>
-97.82524894,-164.98447638,-163.13114499,-60.19568016,162.02143908,49.70668698
5.09064496,-7.89721392,2.50324584,12.79041157,1.70612563,-1.20215354,-0.54161062

>  <Name>
ligand

>  <RI>
0

>  <Rbt.Current_Directory>
/home/itssahil/PROJECTS/Mol_Feturizer/New_Systems/rnas/3GX6

>  <Rbt.Executable>
rbdock ($Id: //depot/dev/client3/rdock/2013.1/src/exe/rbdock.cxx#4 $)

>  <Rbt.Library>
libRbt.so (2013.1, Build901 2013/11/27)

>  <Rbt.Parameter_File>
/export/apps/rDock/src/rDock_2013.1_src/data/scripts/dock_solv.prm

>  <Rbt.Receptor>
prm/blind_docking_20.prm

>  <SCORE>
-21.0365

>  <SCORE.INTER>
-12.276

>  <SCORE.INTER.CONST>
1

>  <SCORE.INTER.POLAR>
0

>  <SCORE.INTER.ROT>
7

>  <SCORE.INTER.SOLV>
8.52658

>  <SCORE.INTER.VDW>
-19.2928

>  <SCORE.INTER.norm>
-0.454666

>  <SCORE.INTRA>
-8.76051

>  <SCORE.INTRA.DIHEDRAL>
-9.19375

>  <SCORE.INTRA.DIHEDRAL.0>
15.0182

>  <SCORE.INTRA.POLAR>
0

>  <SCORE.INTRA.POLAR.0>
0

>  <SCORE.INTRA.REPUL>
0

>  <SCORE.INTRA.REPUL.0>
0

>  <SCORE.INTRA.SOLV>
-1.73681

>  <SCORE.INTRA.SOLV.lig_0>
-47.9129

>  <SCORE.INTRA.VDW>
-3.29523

>  <SCORE.INTRA.VDW.0>
2.00851

>  <SCORE.INTRA.norm>
-0.324463

>  <SCORE.RESTR>
0

>  <SCORE.RESTR.CAVITY>
0

>  <SCORE.RESTR.norm>
0

>  <SCORE.SYSTEM>
0

>  <SCORE.SYSTEM.CONST>
0

>  <SCORE.SYSTEM.DIHEDRAL>
0

>  <SCORE.SYSTEM.SOLV>
0

>  <SCORE.SYSTEM.norm>
0

>  <SCORE.heavy>
27

>  <SCORE.norm>
-0.779129

>  <RMSD>
21.657

$$$$
ligand
 OpenBabel11021811483D
libRbt.so/2013.1/901 2013/11/27
 27 29  0  0  0  0  0  0  0  0999 V2000
  -11.2250    6.2156   12.6252 N   0  0  0  0  0  0  0  0  0  0  0  0
  -11.2449    6.9605   11.3692 C   0  0  2  0  0  0  0  0  0  0  0  0
  -11.5606    6.0596   10.1781 C   0  0  0  0  0  0  0  0  0  0  0  0
  -11.7263    4.8464   10.3234 O   0  0  0  0  0  0  0  0  0  0  0  0
   -9.9353    7.7157   11.1631 C   0  0  0  0  0  0  0  0  0  0  0  0
   -8.7447    6.8015   10.9186 C   0  0  0  0  0  0  0  0  0  0  0  0
   -8.2603    5.8278   12.3655 S   0  0  2  0  0  0  0  0  0  0  0  0
   -6.5134    5.5340   11.9933 C   0  0  0  0  0  0  0  0  0  0  0  0
   -8.9861    4.2173   11.9560 C   0  0  0  0  0  0  0  0  0  0  0  0
   -9.0048    3.3413   13.2005 C   0  0  1  0  0  0  0  0  0  0  0  0
   -9.4398    2.0548   12.8299 O   0  0  0  0  0  0  0  0  0  0  0  0
   -7.6599    3.1122   13.8643 C   0  0  1  0  0  0  0  0  0  0  0  0
   -7.4633    4.0153   14.9294 O   0  0  0  0  0  0  0  0  0  0  0  0
   -7.7777    1.6984   14.3964 C   0  0  1  0  0  0  0  0  0  0  0  0
   -7.9498    1.7607   15.7908 O   0  0  0  0  0  0  0  0  0  0  0  0
   -9.0184    1.0885   13.7582 C   0  0  2  0  0  0  0  0  0  0  0  0
  -11.6509    6.5296    9.0438 O   0  0  0  0  0  0  0  0  0  0  0  0
   -8.0922   -4.0927   14.0279 N   0  0  0  0  0  0  0  0  0  0  0  0
   -8.4731   -3.2412   15.0461 C   0  0  0  0  0  0  0  0  0  0  0  0
   -8.6731   -1.8959   14.8003 N   0  0  0  0  0  0  0  0  0  0  0  0
   -8.4928   -1.3944   13.5553 C   0  0  0  0  0  0  0  0  0  0  0  0
   -8.1179   -2.2375   12.5165 C   0  0  0  0  0  0  0  0  0  0  0  0
   -7.9126   -3.5906   12.7572 C   0  0  0  0  0  0  0  0  0  0  0  0
   -7.5443   -4.3962   11.7640 N   0  0  0  0  0  0  0  0  0  0  0  0
   -8.0164   -1.4927   11.3946 N   0  0  0  0  0  0  0  0  0  0  0  0
   -8.3332   -0.2113   11.6952 C   0  0  0  0  0  0  0  0  0  0  0  0
   -8.6317   -0.1315   13.0298 N   0  0  0  0  0  0  0  0  0  0  0  0
  2  1  1  1  0  0  0
  2  3  1  0  0  0  0
  2  5  1  0  0  0  0
  3  4  1  0  0  0  0
  3 17  1  0  0  0  0
  5  6  1  0  0  0  0
  7  6  1  6  0  0  0
  7  8  1  0  0  0  0
  7  9  1  0  0  0  0
 10  9  1  6  0  0  0
 10 11  1  0  0  0  0
 10 12  1  0  0  0  0
 11 16  1  0  0  0  0
 12 13  1  1  0  0  0
 12 14  1  0  0  0  0
 14 15  1  1  0  0  0
 14 16  1  0  0  0  0
 16 27  1  6  0  0  0
 18 19  2  0  0  0  0
 18 23  1  0  0  0  0
 19 20  1  0  0  0  0
 20 21  2  0  0  0  0
 21 22  1  0  0  0  0
 21 27  1  0  0  0  0
 22 23  2  0  0  0  0
 22 25  1  0  0  0  0
 23 24  1  0  0  0  0
 25 26  2  0  0  0  0
 26 27  1  0  0  0  0
M  END
>  <CHROM.1>
-2.12554433,68.07105018,-68.72957804,-154.64641772,-165.54380832,-173.92194247
-162.19318783,-8.89063664,2.34253043,12.61628964,1.92781225,-0.95029336,0.05484477

>  <Name>
ligand

>  <RI>
0

>  <Rbt.Current_Directory>
/home/itssahil/PROJECTS/Mol_Feturizer/New_Systems/rnas/3GX6

>  <Rbt.Executable>
rbdock ($Id: //depot/dev/client3/rdock/2013.1/src/exe/rbdock.cxx#4 $)

>  <Rbt.Library>
libRbt.so (2013.1, Build901 2013/11/27)

>  <Rbt.Parameter_File>
/export/apps/rDock/src/rDock_2013.1_src/data/scripts/dock_solv.prm

>  <Rbt.Receptor>
prm/blind_docking_20.prm

>  <SCORE>
-18.473

>  <SCORE.INTER>
-11.0731

>  <SCORE.INTER.CONST>
1

>  <SCORE.INTER.POLAR>
0

>  <SCORE.INTER.ROT>
7

>  <SCORE.INTER.SOLV>
8.77835

>  <SCORE.INTER.VDW>
-18.5749

>  <SCORE.INTER.norm>
-0.410115

>  <SCORE.INTRA>
-7.40529

>  <SCORE.INTRA.DIHEDRAL>
-7.23061

>  <SCORE.INTRA.DIHEDRAL.0>
15.0182

>  <SCORE.INTRA.POLAR>
0

>  <SCORE.INTRA.POLAR.0>
0

>  <SCORE.INTRA.REPUL>
0

>  <SCORE.INTRA.REPUL.0>
0

>  <SCORE.INTRA.SOLV>
1.98992

>  <SCORE.INTRA.SOLV.lig_0>
-47.9129

>  <SCORE.INTRA.VDW>
-4.78495

>  <SCORE.INTRA.VDW.0>
2.00851

>  <SCORE.INTRA.norm>
-0.27427

>  <SCORE.RESTR>
0.00538409

>  <SCORE.RESTR.CAVITY>
0.00538409

>  <SCORE.RESTR.norm>
0.000199411

>  <SCORE.SYSTEM>
0

>  <SCORE.SYSTEM.CONST>
0

>  <SCORE.SYSTEM.DIHEDRAL>
0

>  <SCORE.SYSTEM.SOLV>
0

>  <SCORE.SYSTEM.norm>
0

>  <SCORE.heavy>
27

>  <SCORE.norm>
-0.684186

>  <RMSD>
21.661

$$$$
ligand
 OpenBabel11021811483D
libRbt.so/2013.1/901 2013/11/27
 27 29  0  0  0  0  0  0  0  0999 V2000
  -10.2571    6.6016    9.4067 N   0  0  0  0  0  0  0  0  0  0  0  0
  -10.3260    7.8062   10.2296 C   0  0  2  0  0  0  0  0  0  0  0  0
   -9.2191    8.7977    9.8811 C   0  0  0  0  0  0  0  0  0  0  0  0
   -9.4808    9.9644    9.5797 O   0  0  0  0  0  0  0  0  0  0  0  0
  -10.3090    7.4534   11.7139 C   0  0  0  0  0  0  0  0  0  0  0  0
  -11.5693    6.7397   12.1779 C   0  0  0  0  0  0  0  0  0  0  0  0
  -11.5773    4.9645   11.8247 S   0  0  2  0  0  0  0  0  0  0  0  0
  -13.3314    4.5894   12.0678 C   0  0  0  0  0  0  0  0  0  0  0  0
  -10.8583    4.3056   13.3536 C   0  0  0  0  0  0  0  0  0  0  0  0
   -9.3572    4.5563   13.3541 C   0  0  1  0  0  0  0  0  0  0  0  0
   -8.8476    4.1907   14.6143 O   0  0  0  0  0  0  0  0  0  0  0  0
   -8.5524    3.7345   12.3647 C   0  0  1  0  0  0  0  0  0  0  0  0
   -8.3197    4.4604   11.1783 O   0  0  0  0  0  0  0  0  0  0  0  0
   -7.2461    3.5016   13.0964 C   0  0  1  0  0  0  0  0  0  0  0  0
   -6.2621    4.3273   12.5238 O   0  0  0  0  0  0  0  0  0  0  0  0
   -7.4728    3.9113   14.5453 C   0  0  2  0  0  0  0  0  0  0  0  0
   -8.0389    8.4475    9.8896 O   0  0  0  0  0  0  0  0  0  0  0  0
   -8.3496   -1.1843   15.5657 N   0  0  0  0  0  0  0  0  0  0  0  0
   -8.8766   -0.4167   14.5458 C   0  0  0  0  0  0  0  0  0  0  0  0
   -8.5396    0.9181   14.4240 N   0  0  0  0  0  0  0  0  0  0  0  0
   -7.6898    1.4920   15.3085 C   0  0  0  0  0  0  0  0  0  0  0  0
   -7.1430    0.7333   16.3360 C   0  0  0  0  0  0  0  0  0  0  0  0
   -7.4795   -0.6086   16.4660 C   0  0  0  0  0  0  0  0  0  0  0  0
   -6.9631   -1.3328   17.4559 N   0  0  0  0  0  0  0  0  0  0  0  0
   -6.3338    1.5371   17.0591 N   0  0  0  0  0  0  0  0  0  0  0  0
   -6.3434    2.7724   16.5056 C   0  0  0  0  0  0  0  0  0  0  0  0
   -7.1780    2.7633   15.4192 N   0  0  0  0  0  0  0  0  0  0  0  0
  2  1  1  6  0  0  0
  2  3  1  0  0  0  0
  2  5  1  0  0  0  0
  3  4  1  0  0  0  0
  3 17  1  0  0  0  0
  5  6  1  0  0  0  0
  7  6  1  1  0  0  0
  7  8  1  0  0  0  0
  7  9  1  0  0  0  0
 10  9  1  1  0  0  0
 10 11  1  0  0  0  0
 10 12  1  0  0  0  0
 11 16  1  0  0  0  0
 12 13  1  6  0  0  0
 12 14  1  0  0  0  0
 14 15  1  6  0  0  0
 14 16  1  0  0  0  0
 16 27  1  1  0  0  0
 18 19  2  0  0  0  0
 18 23  1  0  0  0  0
 19 20  1  0  0  0  0
 20 21  2  0  0  0  0
 21 22  1  0  0  0  0
 21 27  1  0  0  0  0
 22 23  2  0  0  0  0
 22 25  1  0  0  0  0
 23 24  1  0  0  0  0
 25 26  2  0  0  0  0
 26 27  1  0  0  0  0
M  END
>  <CHROM.1>
125.38241134,-68.28061122,81.56027440,-164.78346392,-75.68939664,172.74725546
60.87621814,-8.89846066,4.04645690,13.20813423,1.87275275,-0.22803112,-0.59211170

>  <Name>
ligand

>  <RI>
0

>  <Rbt.Current_Directory>
/home/itssahil/PROJECTS/Mol_Feturizer/New_Systems/rnas/3GX6

>  <Rbt.Executable>
rbdock ($Id: //depot/dev/client3/rdock/2013.1/src/exe/rbdock.cxx#4 $)

>  <Rbt.Library>
libRbt.so (2013.1, Build901 2013/11/27)

>  <Rbt.Parameter_File>
/export/apps/rDock/src/rDock_2013.1_src/data/scripts/dock_solv.prm

>  <Rbt.Receptor>
prm/blind_docking_20.prm

>  <SCORE>
-21.0852

>  <SCORE.INTER>
-11.5857

>  <SCORE.INTER.CONST>
1

>  <SCORE.INTER.POLAR>
0

>  <SCORE.INTER.ROT>
7

>  <SCORE.INTER.SOLV>
7.30331

>  <SCORE.INTER.VDW>
-18.4249

>  <SCORE.INTER.norm>
-0.429102

>  <SCORE.INTRA>
-9.49942

>  <SCORE.INTRA.DIHEDRAL>
-8.19268

>  <SCORE.INTRA.DIHEDRAL.0>
15.0182

>  <SCORE.INTRA.POLAR>
0

>  <SCORE.INTRA.POLAR.0>
0

>  <SCORE.INTRA.REPUL>
0

>  <SCORE.INTRA.REPUL.0>
0

>  <SCORE.INTRA.SOLV>
1.29122

>  <SCORE.INTRA.SOLV.lig_0>
-47.9129

>  <SCORE.INTRA.VDW>
-6.0487

>  <SCORE.INTRA.VDW.0>
2.00851

>  <SCORE.INTRA.norm>
-0.35183

>  <SCORE.RESTR>
0

>  <SCORE.RESTR.CAVITY>
0

>  <SCORE.RESTR.norm>
0

>  <SCORE.SYSTEM>
0

>  <SCORE.SYSTEM.CONST>
0

>  <SCORE.SYSTEM.DIHEDRAL>
0

>  <SCORE.SYSTEM.SOLV>
0

>  <SCORE.SYSTEM.norm>
0

>  <SCORE.heavy>
27

>  <SCORE.norm>
-0.780932

>  <RMSD>
21.702

$$$$
ligand
 OpenBabel11021811483D
libRbt.so/2013.1/901 2013/11/27
 27 29  0  0  0  0  0  0  0  0999 V2000
  -10.4607    0.2372   19.1094 N   0  0  0  0  0  0  0  0  0  0  0  0
  -10.5267    1.3161   18.1272 C   0  0  2  0  0  0  0  0  0  0  0  0
   -9.7401    0.9831   16.8622 C   0  0  0  0  0  0  0  0  0  0  0  0
   -8.5118    0.8774   16.8853 O   0  0  0  0  0  0  0  0  0  0  0  0
  -10.0658    2.6366   18.7369 C   0  0  0  0  0  0  0  0  0  0  0  0
  -10.1398    3.8060   17.7674 C   0  0  0  0  0  0  0  0  0  0  0  0
   -8.8037    3.8301   16.5465 S   0  0  2  0  0  0  0  0  0  0  0  0
   -7.4109    4.3194   17.5939 C   0  0  0  0  0  0  0  0  0  0  0  0
   -9.1576    5.3826   15.6787 C   0  0  0  0  0  0  0  0  0  0  0  0
  -10.3799    5.1970   14.7911 C   0  0  1  0  0  0  0  0  0  0  0  0
  -10.5666    6.3746   14.0427 O   0  0  0  0  0  0  0  0  0  0  0  0
  -10.2773    4.0970   13.7512 C   0  0  1  0  0  0  0  0  0  0  0  0
  -10.8695    2.9053   14.2180 O   0  0  0  0  0  0  0  0  0  0  0  0
  -11.0729    4.6517   12.5871 C   0  0  1  0  0  0  0  0  0  0  0  0
  -12.3044    3.9751   12.5273 O   0  0  0  0  0  0  0  0  0  0  0  0
  -11.3168    6.1256   12.8816 C   0  0  2  0  0  0  0  0  0  0  0  0
  -10.3203    0.8183   15.7889 O   0  0  0  0  0  0  0  0  0  0  0  0
   -7.9778    6.3156    8.8085 N   0  0  0  0  0  0  0  0  0  0  0  0
   -8.2128    5.2614    9.6689 C   0  0  0  0  0  0  0  0  0  0  0  0
   -9.1297    5.3828   10.6960 N   0  0  0  0  0  0  0  0  0  0  0  0
   -9.8070    6.5418   10.8741 C   0  0  0  0  0  0  0  0  0  0  0  0
   -9.5900    7.6104   10.0130 C   0  0  0  0  0  0  0  0  0  0  0  0
   -8.6677    7.4962    8.9800 C   0  0  0  0  0  0  0  0  0  0  0  0
   -8.4530    8.5230    8.1611 N   0  0  0  0  0  0  0  0  0  0  0  0
  -10.3886    8.6266   10.4044 N   0  0  0  0  0  0  0  0  0  0  0  0
  -11.1124    8.2214   11.4742 C   0  0  0  0  0  0  0  0  0  0  0  0
  -10.7657    6.9317   11.7793 N   0  0  0  0  0  0  0  0  0  0  0  0
  2  1  1  1  0  0  0
  2  3  1  0  0  0  0
  2  5  1  0  0  0  0
  3  4  1  0  0  0  0
  3 17  1  0  0  0  0
  5  6  1  0  0  0  0
  7  6  1  1  0  0  0
  7  8  1  0  0  0  0
  7  9  1  0  0  0  0
 10  9  1  6  0  0  0
 10 11  1  0  0  0  0
 10 12  1  0  0  0  0
 11 16  1  0  0  0  0
 12 13  1  1  0  0  0
 12 14  1  0  0  0  0
 14 15  1  1  0  0  0
 14 16  1  0  0  0  0
 16 27  1  6  0  0  0
 18 19  2  0  0  0  0
 18 23  1  0  0  0  0
 19 20  1  0  0  0  0
 20 21  2  0  0  0  0
 21 22  1  0  0  0  0
 21 27  1  0  0  0  0
 22 23  2  0  0  0  0
 22 25  1  0  0  0  0
 23 24  1  0  0  0  0
 25 26  2  0  0  0  0
 26 27  1  0  0  0  0
M  END
>  <CHROM.1>
-66.74900262,-178.81436056,-76.56001292,-72.41816353,-73.43604815,-175.00863493
92.22900997,-9.81412882,4.63528653,13.89075365,1.72212211,1.42669099,2.02442052

>  <Name>
ligand

>  <RI>
0

>  <Rbt.Current_Directory>
/home/itssahil/PROJECTS/Mol_Feturizer/New_Systems/rnas/3GX6

>  <Rbt.Executable>
rbdock ($Id: //depot/dev/client3/rdock/2013.1/src/exe/rbdock.cxx#4 $)

>  <Rbt.Library>
libRbt.so (2013.1, Build901 2013/11/27)

>  <Rbt.Parameter_File>
/export/apps/rDock/src/rDock_2013.1_src/data/scripts/dock_solv.prm

>  <Rbt.Receptor>
prm/blind_docking_80.prm

>  <SCORE>
-21.5017

>  <SCORE.INTER>
-11.0462

>  <SCORE.INTER.CONST>
1

>  <SCORE.INTER.POLAR>
0

>  <SCORE.INTER.ROT>
7

>  <SCORE.INTER.SOLV>
13.6703

>  <SCORE.INTER.VDW>
-20.1875

>  <SCORE.INTER.norm>
-0.409117

>  <SCORE.INTRA>
-10.4579

>  <SCORE.INTRA.DIHEDRAL>
-10.6424

>  <SCORE.INTRA.DIHEDRAL.0>
15.0182

>  <SCORE.INTRA.POLAR>
0

>  <SCORE.INTRA.POLAR.0>
0

>  <SCORE.INTRA.REPUL>
0

>  <SCORE.INTRA.REPUL.0>
0

>  <SCORE.INTRA.SOLV>
-1.27143

>  <SCORE.INTRA.SOLV.lig_0>
-47.9129

>  <SCORE.INTRA.VDW>
-4.50101

>  <SCORE.INTRA.VDW.0>
2.00851

>  <SCORE.INTRA.norm>
-0.38733

>  <SCORE.RESTR>
0.00236632

>  <SCORE.RESTR.CAVITY>
0.00236632

>  <SCORE.RESTR.norm>
8.76416e-05

>  <SCORE.SYSTEM>
0

>  <SCORE.SYSTEM.CONST>
0

>  <SCORE.SYSTEM.DIHEDRAL>
0

>  <SCORE.SYSTEM.SOLV>
0

>  <SCORE.SYSTEM.norm>
0

>  <SCORE.heavy>
27

>  <SCORE.norm>
-0.79636

>  <RMSD>
21.750

$$$$
ligand
 OpenBabel11021811483D
libRbt.so/2013.1/901 2013/11/27
 27 29  0  0  0  0  0  0  0  0999 V2000
   -6.7415    4.6275   14.4352 N   0  0  0  0  0  0  0  0  0  0  0  0
   -7.4243    4.4559   13.1557 C   0  0  2  0  0  0  0  0  0  0  0  0
   -6.4388    4.2715   12.0047 C   0  0  0  0  0  0  0  0  0  0  0  0
   -5.9841    5.2414   11.3940 O   0  0  0  0  0  0  0  0  0  0  0  0
   -8.3800    5.6149   12.8887 C   0  0  0  0  0  0  0  0  0  0  0  0
   -9.2913    5.3813   11.6937 C   0  0  0  0  0  0  0  0  0  0  0  0
  -10.7745    4.4190   12.0814 S   0  0  2  0  0  0  0  0  0  0  0  0
  -11.3966    5.3372   13.5120 C   0  0  0  0  0  0  0  0  0  0  0  0
  -10.0430    2.9661   12.8830 C   0  0  0  0  0  0  0  0  0  0  0  0
   -9.4538    2.0478   11.8220 C   0  0  1  0  0  0  0  0  0  0  0  0
   -8.5893    1.1358   12.4563 O   0  0  0  0  0  0  0  0  0  0  0  0
  -10.4492    1.1760   11.0796 C   0  0  1  0  0  0  0  0  0  0  0  0
  -10.8252    1.7695    9.8569 O   0  0  0  0  0  0  0  0  0  0  0  0
   -9.6650   -0.0945   10.8214 C   0  0  1  0  0  0  0  0  0  0  0  0
   -9.3057   -0.1271    9.4621 O   0  0  0  0  0  0  0  0  0  0  0  0
   -8.4079   -0.0189   11.6773 C   0  0  2  0  0  0  0  0  0  0  0  0
   -6.0821    3.1448   11.6600 O   0  0  0  0  0  0  0  0  0  0  0  0
   -6.8175   -5.0014   12.3262 N   0  0  0  0  0  0  0  0  0  0  0  0
   -6.6324   -4.1841   11.2286 C   0  0  0  0  0  0  0  0  0  0  0  0
   -7.1215   -2.8914   11.2236 N   0  0  0  0  0  0  0  0  0  0  0  0
   -7.7942   -2.4111   12.2964 C   0  0  0  0  0  0  0  0  0  0  0  0
   -7.9827   -3.2160   13.4131 C   0  0  0  0  0  0  0  0  0  0  0  0
   -7.4958   -4.5175   13.4238 C   0  0  0  0  0  0  0  0  0  0  0  0
   -7.6848   -5.2914   14.4898 N   0  0  0  0  0  0  0  0  0  0  0  0
   -8.6677   -2.4989   14.3297 N   0  0  0  0  0  0  0  0  0  0  0  0
   -8.8992   -1.2631   13.8281 C   0  0  0  0  0  0  0  0  0  0  0  0
   -8.3645   -1.1901   12.5689 N   0  0  0  0  0  0  0  0  0  0  0  0
  2  1  1  1  0  0  0
  2  3  1  0  0  0  0
  2  5  1  0  0  0  0
  3  4  1  0  0  0  0
  3 17  1  0  0  0  0
  5  6  1  0  0  0  0
  7  6  1  1  0  0  0
  7  8  1  0  0  0  0
  7  9  1  0  0  0  0
 10  9  1  1  0  0  0
 10 11  1  0  0  0  0
 10 12  1  0  0  0  0
 11 16  1  0  0  0  0
 12 13  1  6  0  0  0
 12 14  1  0  0  0  0
 14 15  1  6  0  0  0
 14 16  1  0  0  0  0
 16 27  1  1  0  0  0
 18 19  2  0  0  0  0
 18 23  1  0  0  0  0
 19 20  1  0  0  0  0
 20 21  2  0  0  0  0
 21 22  1  0  0  0  0
 21 27  1  0  0  0  0
 22 23  2  0  0  0  0
 22 25  1  0  0  0  0
 23 24  1  0  0  0  0
 25 26  2  0  0  0  0
 26 27  1  0  0  0  0
M  END
>  <CHROM.1>
-88.30191742,-170.20545748,83.96872682,50.98298643,-76.96992290,164.19987439
-157.52507843,-8.52626111,0.99238926,12.25111106,-1.72671297,0.33872669,-3.13712548

>  <Name>
ligand

>  <RI>
0

>  <Rbt.Current_Directory>
/home/itssahil/PROJECTS/Mol_Feturizer/New_Systems/rnas/3GX6

>  <Rbt.Executable>
rbdock ($Id: //depot/dev/client3/rdock/2013.1/src/exe/rbdock.cxx#4 $)

>  <Rbt.Library>
libRbt.so (2013.1, Build901 2013/11/27)

>  <Rbt.Parameter_File>
/export/apps/rDock/src/rDock_2013.1_src/data/scripts/dock_solv.prm

>  <Rbt.Receptor>
prm/blind_docking_100.prm

>  <SCORE>
-17.7597

>  <SCORE.INTER>
-9.18465

>  <SCORE.INTER.CONST>
1

>  <SCORE.INTER.POLAR>
0

>  <SCORE.INTER.ROT>
7

>  <SCORE.INTER.SOLV>
9.97179

>  <SCORE.INTER.VDW>
-17.7137

>  <SCORE.INTER.norm>
-0.340172

>  <SCORE.INTRA>
-8.57508

>  <SCORE.INTRA.DIHEDRAL>
-8.54149

>  <SCORE.INTRA.DIHEDRAL.0>
15.0182

>  <SCORE.INTRA.POLAR>
0

>  <SCORE.INTRA.POLAR.0>
0

>  <SCORE.INTRA.REPUL>
0

>  <SCORE.INTRA.REPUL.0>
0

>  <SCORE.INTRA.SOLV>
-0.935006

>  <SCORE.INTRA.SOLV.lig_0>
-47.9129

>  <SCORE.INTRA.VDW>
-3.83683

>  <SCORE.INTRA.VDW.0>
2.00851

>  <SCORE.INTRA.norm>
-0.317596

>  <SCORE.RESTR>
0

>  <SCORE.RESTR.CAVITY>
0

>  <SCORE.RESTR.norm>
0

>  <SCORE.SYSTEM>
0

>  <SCORE.SYSTEM.CONST>
0

>  <SCORE.SYSTEM.DIHEDRAL>
0

>  <SCORE.SYSTEM.SOLV>
0

>  <SCORE.SYSTEM.norm>
0

>  <SCORE.heavy>
27

>  <SCORE.norm>
-0.657768

>  <RMSD>
21.773

$$$$
ligand
 OpenBabel11021811483D
libRbt.so/2013.1/901 2013/11/27
 27 29  0  0  0  0  0  0  0  0999 V2000
   -8.9882    0.2128   17.2896 N   0  0  0  0  0  0  0  0  0  0  0  0
   -7.5413    0.2300   17.0919 C   0  0  2  0  0  0  0  0  0  0  0  0
   -6.8748   -1.0223   17.6552 C   0  0  0  0  0  0  0  0  0  0  0  0
   -7.4117   -1.6832   18.5470 O   0  0  0  0  0  0  0  0  0  0  0  0
   -6.9268    1.4978   17.6776 C   0  0  0  0  0  0  0  0  0  0  0  0
   -7.3199    2.7604   16.9264 C   0  0  0  0  0  0  0  0  0  0  0  0
   -6.8454    2.7505   15.1796 S   0  0  2  0  0  0  0  0  0  0  0  0
   -5.0416    2.7364   15.3297 C   0  0  0  0  0  0  0  0  0  0  0  0
   -7.1506    4.4804   14.7296 C   0  0  0  0  0  0  0  0  0  0  0  0
   -8.6504    4.7180   14.6274 C   0  0  1  0  0  0  0  0  0  0  0  0
   -8.8599    6.0190   14.1321 O   0  0  0  0  0  0  0  0  0  0  0  0
   -9.3950    3.8175   13.6597 C   0  0  1  0  0  0  0  0  0  0  0  0
   -9.9688    2.7193   14.3331 O   0  0  0  0  0  0  0  0  0  0  0  0
  -10.4836    4.7223   13.1192 C   0  0  1  0  0  0  0  0  0  0  0  0
  -11.7056    4.3476   13.7057 O   0  0  0  0  0  0  0  0  0  0  0  0
  -10.1299    6.1410   13.5445 C   0  0  2  0  0  0  0  0  0  0  0  0
   -5.7808   -1.3945   17.2307 O   0  0  0  0  0  0  0  0  0  0  0  0
   -7.5455    7.0837    9.0492 N   0  0  0  0  0  0  0  0  0  0  0  0
   -7.3058    6.0897    9.9774 C   0  0  0  0  0  0  0  0  0  0  0  0
   -8.0852    5.9859   11.1140 N   0  0  0  0  0  0  0  0  0  0  0  0
   -9.0933    6.8630   11.3340 C   0  0  0  0  0  0  0  0  0  0  0  0
   -9.3548    7.8644   10.4070 C   0  0  0  0  0  0  0  0  0  0  0  0
   -8.5734    7.9762    9.2634 C   0  0  0  0  0  0  0  0  0  0  0  0
   -8.8180    8.9413    8.3803 N   0  0  0  0  0  0  0  0  0  0  0  0
  -10.4028    8.5853   10.8605 N   0  0  0  0  0  0  0  0  0  0  0  0
  -10.8171    8.0553   12.0353 C   0  0  0  0  0  0  0  0  0  0  0  0
  -10.0175    6.9868   12.3443 N   0  0  0  0  0  0  0  0  0  0  0  0
  2  1  1  1  0  0  0
  2  3  1  0  0  0  0
  2  5  1  0  0  0  0
  3  4  1  0  0  0  0
  3 17  1  0  0  0  0
  5  6  1  0  0  0  0
  7  6  1  1  0  0  0
  7  8  1  0  0  0  0
  7  9  1  0  0  0  0
 10  9  1  6  0  0  0
 10 11  1  0  0  0  0
 10 12  1  0  0  0  0
 11 16  1  0  0  0  0
 12 13  1  1  0  0  0
 12 14  1  0  0  0  0
 14 15  1  1  0  0  0
 14 16  1  0  0  0  0
 16 27  1  6  0  0  0
 18 19  2  0  0  0  0
 18 23  1  0  0  0  0
 19 20  1  0  0  0  0
 20 21  2  0  0  0  0
 21 22  1  0  0  0  0
 21 27  1  0  0  0  0
 22 23  2  0  0  0  0
 22 25  1  0  0  0  0
 23 24  1  0  0  0  0
 25 26  2  0  0  0  0
 26 27  1  0  0  0  0
M  END
>  <CHROM.1>
-23.56100599,-68.03743367,-59.23467834,-65.13069707,-73.86520265,-173.44754104
48.67654593,-8.39106025,4.16848759,13.85859826,1.34976003,-0.26568445,2.34294276

>  <Name>
ligand

>  <RI>
0

>  <Rbt.Current_Directory>
/home/itssahil/PROJECTS/Mol_Feturizer/New_Systems/rnas/3GX6

>  <Rbt.Executable>
rbdock ($Id: //depot/dev/client3/rdock/2013.1/src/exe/rbdock.cxx#4 $)

>  <Rbt.Library>
libRbt.so (2013.1, Build901 2013/11/27)

>  <Rbt.Parameter_File>
/export/apps/rDock/src/rDock_2013.1_src/data/scripts/dock_solv.prm

>  <Rbt.Receptor>
prm/blind_docking_40.prm

>  <SCORE>
-19.784

>  <SCORE.INTER>
-9.03499

>  <SCORE.INTER.CONST>
1

>  <SCORE.INTER.POLAR>
0

>  <SCORE.INTER.ROT>
7

>  <SCORE.INTER.SOLV>
7.78095

>  <SCORE.INTER.VDW>
-16.8836

>  <SCORE.INTER.norm>
-0.334629

>  <SCORE.INTRA>
-10.749

>  <SCORE.INTRA.DIHEDRAL>
-11.2882

>  <SCORE.INTRA.DIHEDRAL.0>
15.0182

>  <SCORE.INTRA.POLAR>
0

>  <SCORE.INTRA.POLAR.0>
0

>  <SCORE.INTRA.REPUL>
0

>  <SCORE.INTRA.REPUL.0>
0

>  <SCORE.INTRA.SOLV>
-0.126057

>  <SCORE.INTRA.SOLV.lig_0>
-47.9129

>  <SCORE.INTRA.VDW>
-5.04192

>  <SCORE.INTRA.VDW.0>
2.00851

>  <SCORE.INTRA.norm>
-0.398113

>  <SCORE.RESTR>
0

>  <SCORE.RESTR.CAVITY>
0

>  <SCORE.RESTR.norm>
0

>  <SCORE.SYSTEM>
0

>  <SCORE.SYSTEM.CONST>
0

>  <SCORE.SYSTEM.DIHEDRAL>
0

>  <SCORE.SYSTEM.SOLV>
0

>  <SCORE.SYSTEM.norm>
0

>  <SCORE.heavy>
27

>  <SCORE.norm>
-0.732742

>  <RMSD>
21.835

$$$$
ligand
 OpenBabel11021811483D
libRbt.so/2013.1/901 2013/11/27
 27 29  0  0  0  0  0  0  0  0999 V2000
  -10.1365    6.4762    8.2599 N   0  0  0  0  0  0  0  0  0  0  0  0
  -10.2346    5.0971    8.7303 C   0  0  2  0  0  0  0  0  0  0  0  0
  -10.4963    4.1223    7.5852 C   0  0  0  0  0  0  0  0  0  0  0  0
  -11.2051    4.4402    6.6276 O   0  0  0  0  0  0  0  0  0  0  0  0
  -11.2921    4.9682    9.8225 C   0  0  0  0  0  0  0  0  0  0  0  0
  -11.2481    3.6328   10.5490 C   0  0  0  0  0  0  0  0  0  0  0  0
  -12.4485    3.4929   11.8966 S   0  0  2  0  0  0  0  0  0  0  0  0
  -13.9914    3.7713   10.9918 C   0  0  0  0  0  0  0  0  0  0  0  0
  -12.2278    5.0922   12.7223 C   0  0  0  0  0  0  0  0  0  0  0  0
  -10.9854    5.0397   13.5999 C   0  0  1  0  0  0  0  0  0  0  0  0
  -11.0404    3.8661   14.3753 O   0  0  0  0  0  0  0  0  0  0  0  0
   -9.6625    4.9478   12.8629 C   0  0  1  0  0  0  0  0  0  0  0  0
   -9.0777    6.2226   12.7163 O   0  0  0  0  0  0  0  0  0  0  0  0
   -8.8172    4.0909   13.7833 C   0  0  1  0  0  0  0  0  0  0  0  0
   -7.8846    4.9203   14.4315 O   0  0  0  0  0  0  0  0  0  0  0  0
   -9.7612    3.4858   14.8135 C   0  0  2  0  0  0  0  0  0  0  0  0
  -10.0060    2.9931    7.5994 O   0  0  0  0  0  0  0  0  0  0  0  0
   -8.2605   -0.7121   12.0028 N   0  0  0  0  0  0  0  0  0  0  0  0
   -8.1706    0.6216   11.6562 C   0  0  0  0  0  0  0  0  0  0  0  0
   -8.6183    1.6042   12.5189 N   0  0  0  0  0  0  0  0  0  0  0  0
   -9.1563    1.2696   13.7158 C   0  0  0  0  0  0  0  0  0  0  0  0
   -9.2471   -0.0667   14.0852 C   0  0  0  0  0  0  0  0  0  0  0  0
   -8.8013   -1.0599   13.2216 C   0  0  0  0  0  0  0  0  0  0  0  0
   -8.8971   -2.3403   13.5717 N   0  0  0  0  0  0  0  0  0  0  0  0
   -9.8071   -0.1200   15.3129 N   0  0  0  0  0  0  0  0  0  0  0  0
  -10.0543    1.1435   15.7315 C   0  0  0  0  0  0  0  0  0  0  0  0
   -9.6570    2.0181   14.7548 N   0  0  0  0  0  0  0  0  0  0  0  0
  2  1  1  6  0  0  0
  2  3  1  0  0  0  0
  2  5  1  0  0  0  0
  3  4  1  0  0  0  0
  3 17  1  0  0  0  0
  5  6  1  0  0  0  0
  7  6  1  6  0  0  0
  7  8  1  0  0  0  0
  7  9  1  0  0  0  0
 10  9  1  6  0  0  0
 10 11  1  0  0  0  0
 10 12  1  0  0  0  0
 11 16  1  0  0  0  0
 12 13  1  1  0  0  0
 12 14  1  0  0  0  0
 14 15  1  1  0  0  0
 14 16  1  0  0  0  0
 16 27  1  6  0  0  0
 18 19  2  0  0  0  0
 18 23  1  0  0  0  0
 19 20  1  0  0  0  0
 20 21  2  0  0  0  0
 21 22  1  0  0  0  0
 21 27  1  0  0  0  0
 22 23  2  0  0  0  0
 22 25  1  0  0  0  0
 23 24  1  0  0  0  0
 25 26  2  0  0  0  0
 26 27  1  0  0  0  0
M  END
>  <CHROM.1>
-35.40402920,-168.23434931,177.43098782,58.36933371,-79.27561777,-48.49365170
93.82120509,-10.18468079,3.03373740,12.08201501,2.57935647,1.24851950,-1.87273654

>  <Name>
ligand

>  <RI>
0

>  <Rbt.Current_Directory>
/home/itssahil/PROJECTS/Mol_Feturizer/New_Systems/rnas/3GX6

>  <Rbt.Executable>
rbdock ($Id: //depot/dev/client3/rdock/2013.1/src/exe/rbdock.cxx#4 $)

>  <Rbt.Library>
libRbt.so (2013.1, Build901 2013/11/27)

>  <Rbt.Parameter_File>
/export/apps/rDock/src/rDock_2013.1_src/data/scripts/dock_solv.prm

>  <Rbt.Receptor>
prm/blind_docking_20.prm

>  <SCORE>
-19.5348

>  <SCORE.INTER>
-10.1222

>  <SCORE.INTER.CONST>
1

>  <SCORE.INTER.POLAR>
0

>  <SCORE.INTER.ROT>
7

>  <SCORE.INTER.SOLV>
8.78735

>  <SCORE.INTER.VDW>
-17.9439

>  <SCORE.INTER.norm>
-0.374897

>  <SCORE.INTRA>
-9.41259

>  <SCORE.INTRA.DIHEDRAL>
-10.398

>  <SCORE.INTRA.DIHEDRAL.0>
15.0182

>  <SCORE.INTRA.POLAR>
0

>  <SCORE.INTRA.POLAR.0>
0

>  <SCORE.INTRA.REPUL>
0

>  <SCORE.INTRA.REPUL.0>
0

>  <SCORE.INTRA.SOLV>
-1.35478

>  <SCORE.INTRA.SOLV.lig_0>
-47.9129

>  <SCORE.INTRA.VDW>
-3.53618

>  <SCORE.INTRA.VDW.0>
2.00851

>  <SCORE.INTRA.norm>
-0.348614

>  <SCORE.RESTR>
0

>  <SCORE.RESTR.CAVITY>
0

>  <SCORE.RESTR.norm>
0

>  <SCORE.SYSTEM>
0

>  <SCORE.SYSTEM.CONST>
0

>  <SCORE.SYSTEM.DIHEDRAL>
0

>  <SCORE.SYSTEM.SOLV>
0

>  <SCORE.SYSTEM.norm>
0

>  <SCORE.heavy>
27

>  <SCORE.norm>
-0.723511

>  <RMSD>
21.891

$$$$
ligand
 OpenBabel11021811483D
libRbt.so/2013.1/901 2013/11/27
 27 29  0  0  0  0  0  0  0  0999 V2000
  -10.9109    3.7577    8.0909 N   0  0  0  0  0  0  0  0  0  0  0  0
  -12.2886    4.2382    8.0287 C   0  0  2  0  0  0  0  0  0  0  0  0
  -12.3637    5.6948    7.5784 C   0  0  0  0  0  0  0  0  0  0  0  0
  -11.5939    6.5430    8.0348 O   0  0  0  0  0  0  0  0  0  0  0  0
  -12.9981    4.0319    9.3636 C   0  0  0  0  0  0  0  0  0  0  0  0
  -12.3744    4.8195   10.5054 C   0  0  0  0  0  0  0  0  0  0  0  0
  -13.1860    4.5602   12.1024 S   0  0  2  0  0  0  0  0  0  0  0  0
  -12.2079    5.6652   13.1507 C   0  0  0  0  0  0  0  0  0  0  0  0
  -12.5160    2.9415   12.5708 C   0  0  0  0  0  0  0  0  0  0  0  0
  -11.0203    3.0682   12.8222 C   0  0  1  0  0  0  0  0  0  0  0  0
  -10.6708    2.1901   13.8655 O   0  0  0  0  0  0  0  0  0  0  0  0
  -10.1224    2.6647   11.6677 C   0  0  1  0  0  0  0  0  0  0  0  0
   -9.7360    3.7911   10.9123 O   0  0  0  0  0  0  0  0  0  0  0  0
   -8.9168    2.0676   12.3647 C   0  0  1  0  0  0  0  0  0  0  0  0
   -7.8547    2.9856   12.2811 O   0  0  0  0  0  0  0  0  0  0  0  0
   -9.3037    1.8701   13.8242 C   0  0  2  0  0  0  0  0  0  0  0  0
  -13.2021    6.0522    6.7508 O   0  0  0  0  0  0  0  0  0  0  0  0
   -7.9243   -2.9412   12.1736 N   0  0  0  0  0  0  0  0  0  0  0  0
   -7.9343   -1.7635   11.4525 C   0  0  0  0  0  0  0  0  0  0  0  0
   -8.3308   -0.5794   12.0449 N   0  0  0  0  0  0  0  0  0  0  0  0
   -8.7197   -0.5608   13.3420 C   0  0  0  0  0  0  0  0  0  0  0  0
   -8.7080   -1.7344   14.0856 C   0  0  0  0  0  0  0  0  0  0  0  0
   -8.3131   -2.9288   13.4956 C   0  0  0  0  0  0  0  0  0  0  0  0
   -8.3110   -4.0546   14.2054 N   0  0  0  0  0  0  0  0  0  0  0  0
   -9.1285   -1.4378   15.3342 N   0  0  0  0  0  0  0  0  0  0  0  0
   -9.3869   -0.1106   15.4005 C   0  0  0  0  0  0  0  0  0  0  0  0
   -9.1387    0.4495   14.1752 N   0  0  0  0  0  0  0  0  0  0  0  0
  2  1  1  1  0  0  0
  2  3  1  0  0  0  0
  2  5  1  0  0  0  0
  3  4  1  0  0  0  0
  3 17  1  0  0  0  0
  5  6  1  0  0  0  0
  7  6  1  6  0  0  0
  7  8  1  0  0  0  0
  7  9  1  0  0  0  0
 10  9  1  6  0  0  0
 10 11  1  0  0  0  0
 10 12  1  0  0  0  0
 11 16  1  0  0  0  0
 12 13  1  1  0  0  0
 12 14  1  0  0  0  0
 14 15  1  1  0  0  0
 14 16  1  0  0  0  0
 16 27  1  6  0  0  0
 18 19  2  0  0  0  0
 18 23  1  0  0  0  0
 19 20  1  0  0  0  0
 20 21  2  0  0  0  0
 21 22  1  0  0  0  0
 21 27  1  0  0  0  0
 22 23  2  0  0  0  0
 22 25  1  0  0  0  0
 23 24  1  0  0  0  0
 25 26  2  0  0  0  0
 26 27  1  0  0  0  0
M  END
>  <CHROM.1>
-44.05054731,62.96370480,-178.88979118,-178.66358047,66.46572081,145.23382210
112.41446220,-10.44532505,2.14841582,11.79503074,-2.46556644,-0.99524983
1.74771103

>  <Name>
ligand

>  <RI>
0

>  <Rbt.Current_Directory>
/home/itssahil/PROJECTS/Mol_Feturizer/New_Systems/rnas/3GX6

>  <Rbt.Executable>
rbdock ($Id: //depot/dev/client3/rdock/2013.1/src/exe/rbdock.cxx#4 $)

>  <Rbt.Library>
libRbt.so (2013.1, Build901 2013/11/27)

>  <Rbt.Parameter_File>
/export/apps/rDock/src/rDock_2013.1_src/data/scripts/dock_solv.prm

>  <Rbt.Receptor>
prm/blind_docking_20.prm

>  <SCORE>
-19.0935

>  <SCORE.INTER>
-13.6093

>  <SCORE.INTER.CONST>
1

>  <SCORE.INTER.POLAR>
0

>  <SCORE.INTER.ROT>
7

>  <SCORE.INTER.SOLV>
10.0534

>  <SCORE.INTER.VDW>
-20.6907

>  <SCORE.INTER.norm>
-0.50405

>  <SCORE.INTRA>
-5.48783

>  <SCORE.INTRA.DIHEDRAL>
-7.67796

>  <SCORE.INTRA.DIHEDRAL.0>
15.0182

>  <SCORE.INTRA.POLAR>
0

>  <SCORE.INTRA.POLAR.0>
0

>  <SCORE.INTRA.REPUL>
0

>  <SCORE.INTRA.REPUL.0>
0

>  <SCORE.INTRA.SOLV>
0.968453

>  <SCORE.INTRA.SOLV.lig_0>
-47.9129

>  <SCORE.INTRA.VDW>
-2.13308

>  <SCORE.INTRA.VDW.0>
2.00851

>  <SCORE.INTRA.norm>
-0.203253

>  <SCORE.RESTR>
0.0036646

>  <SCORE.RESTR.CAVITY>
0.0036646

>  <SCORE.RESTR.norm>
0.000135726

>  <SCORE.SYSTEM>
0

>  <SCORE.SYSTEM.CONST>
0

>  <SCORE.SYSTEM.DIHEDRAL>
0

>  <SCORE.SYSTEM.SOLV>
0

>  <SCORE.SYSTEM.norm>
0

>  <SCORE.heavy>
27

>  <SCORE.norm>
-0.707167

>  <RMSD>
21.919

$$$$
ligand
 OpenBabel11021811483D
libRbt.so/2013.1/901 2013/11/27
 27 29  0  0  0  0  0  0  0  0999 V2000
  -10.9898    5.9521    9.2864 N   0  0  0  0  0  0  0  0  0  0  0  0
   -9.6364    6.4137    8.9892 C   0  0  2  0  0  0  0  0  0  0  0  0
   -9.0394    5.6893    7.7855 C   0  0  0  0  0  0  0  0  0  0  0  0
   -8.0511    6.1362    7.1991 O   0  0  0  0  0  0  0  0  0  0  0  0
   -8.7369    6.2889   10.2153 C   0  0  0  0  0  0  0  0  0  0  0  0
   -8.6194    4.8639   10.7336 C   0  0  0  0  0  0  0  0  0  0  0  0
   -7.5819    4.7048   12.2083 S   0  0  2  0  0  0  0  0  0  0  0  0
   -5.9722    5.1789   11.5296 C   0  0  0  0  0  0  0  0  0  0  0  0
   -7.4060    2.9030   12.3134 C   0  0  0  0  0  0  0  0  0  0  0  0
   -8.5446    2.3328   13.1470 C   0  0  1  0  0  0  0  0  0  0  0  0
   -8.7548    0.9973   12.7547 O   0  0  0  0  0  0  0  0  0  0  0  0
   -8.2919    2.2558   14.6410 C   0  0  1  0  0  0  0  0  0  0  0  0
   -8.8351    3.3766   15.3024 O   0  0  0  0  0  0  0  0  0  0  0  0
   -9.0355    1.0003   15.0492 C   0  0  1  0  0  0  0  0  0  0  0  0
  -10.2108    1.3784   15.7226 O   0  0  0  0  0  0  0  0  0  0  0  0
   -9.3992    0.2658   13.7660 C   0  0  2  0  0  0  0  0  0  0  0  0
   -9.5395    4.6427    7.3729 O   0  0  0  0  0  0  0  0  0  0  0  0
   -7.3700   -3.7479   11.0186 N   0  0  0  0  0  0  0  0  0  0  0  0
   -7.8318   -2.5368   10.5424 C   0  0  0  0  0  0  0  0  0  0  0  0
   -8.3396   -1.5876   11.4092 N   0  0  0  0  0  0  0  0  0  0  0  0
   -8.3947   -1.8364   12.7392 C   0  0  0  0  0  0  0  0  0  0  0  0
   -7.9267   -3.0460   13.2376 C   0  0  0  0  0  0  0  0  0  0  0  0
   -7.4174   -4.0059   12.3715 C   0  0  0  0  0  0  0  0  0  0  0  0
   -6.9780   -5.1681   12.8481 N   0  0  0  0  0  0  0  0  0  0  0  0
   -8.0887   -3.0321   14.5782 N   0  0  0  0  0  0  0  0  0  0  0  0
   -8.6281   -1.8435   14.9371 C   0  0  0  0  0  0  0  0  0  0  0  0
   -8.8243   -1.0892   13.8104 N   0  0  0  0  0  0  0  0  0  0  0  0
  2  1  1  1  0  0  0
  2  3  1  0  0  0  0
  2  5  1  0  0  0  0
  3  4  1  0  0  0  0
  3 17  1  0  0  0  0
  5  6  1  0  0  0  0
  7  6  1  6  0  0  0
  7  8  1  0  0  0  0
  7  9  1  0  0  0  0
 10  9  1  6  0  0  0
 10 11  1  0  0  0  0
 10 12  1  0  0  0  0
 11 16  1  0  0  0  0
 12 13  1  1  0  0  0
 12 14  1  0  0  0  0
 14 15  1  6  0  0  0
 14 16  1  0  0  0  0
 16 27  1  1  0  0  0
 18 19  2  0  0  0  0
 18 23  1  0  0  0  0
 19 20  1  0  0  0  0
 20 21  2  0  0  0  0
 21 22  1  0  0  0  0
 21 27  1  0  0  0  0
 22 23  2  0  0  0  0
 22 25  1  0  0  0  0
 23 24  1  0  0  0  0
 25 26  2  0  0  0  0
 26 27  1  0  0  0  0
M  END
>  <CHROM.1>
163.41374084,59.50568977,-178.83366895,-65.16825148,-89.21841265,154.41212459
-35.97441687,-8.43063815,1.63321398,12.04178731,-2.16374781,-1.43989529,2.12343906

>  <Name>
ligand

>  <RI>
0

>  <Rbt.Current_Directory>
/home/itssahil/PROJECTS/Mol_Feturizer/New_Systems/rnas/3GX6

>  <Rbt.Executable>
rbdock ($Id: //depot/dev/client3/rdock/2013.1/src/exe/rbdock.cxx#4 $)

>  <Rbt.Library>
libRbt.so (2013.1, Build901 2013/11/27)

>  <Rbt.Parameter_File>
/export/apps/rDock/src/rDock_2013.1_src/data/scripts/dock_solv.prm

>  <Rbt.Receptor>
prm/blind_docking_60.prm

>  <SCORE>
-18.3215

>  <SCORE.INTER>
-9.68507

>  <SCORE.INTER.CONST>
1

>  <SCORE.INTER.POLAR>
0

>  <SCORE.INTER.ROT>
7

>  <SCORE.INTER.SOLV>
8.8838

>  <SCORE.INTER.VDW>
-17.6846

>  <SCORE.INTER.norm>
-0.358706

>  <SCORE.INTRA>
-8.63644

>  <SCORE.INTRA.DIHEDRAL>
-8.64301

>  <SCORE.INTRA.DIHEDRAL.0>
15.0182

>  <SCORE.INTRA.POLAR>
0

>  <SCORE.INTRA.POLAR.0>
0

>  <SCORE.INTRA.REPUL>
0

>  <SCORE.INTRA.REPUL.0>
0

>  <SCORE.INTRA.SOLV>
-1.06484

>  <SCORE.INTRA.SOLV.lig_0>
-47.9129

>  <SCORE.INTRA.VDW>
-3.78252

>  <SCORE.INTRA.VDW.0>
2.00851

>  <SCORE.INTRA.norm>
-0.319868

>  <SCORE.RESTR>
0

>  <SCORE.RESTR.CAVITY>
0

>  <SCORE.RESTR.norm>
0

>  <SCORE.SYSTEM>
0

>  <SCORE.SYSTEM.CONST>
0

>  <SCORE.SYSTEM.DIHEDRAL>
0

>  <SCORE.SYSTEM.SOLV>
0

>  <SCORE.SYSTEM.norm>
0

>  <SCORE.heavy>
27

>  <SCORE.norm>
-0.678575

>  <RMSD>
21.947

$$$$
ligand
 OpenBabel11021811483D
libRbt.so/2013.1/901 2013/11/27
 27 29  0  0  0  0  0  0  0  0999 V2000
  -10.2999    8.4613    8.0013 N   0  0  0  0  0  0  0  0  0  0  0  0
   -9.9901    8.4063    9.4275 C   0  0  2  0  0  0  0  0  0  0  0  0
   -8.4930    8.5453    9.6906 C   0  0  0  0  0  0  0  0  0  0  0  0
   -7.7121    7.6284    9.4262 O   0  0  0  0  0  0  0  0  0  0  0  0
  -10.5494    7.1343   10.0576 C   0  0  0  0  0  0  0  0  0  0  0  0
  -10.2248    7.0020   11.5375 C   0  0  0  0  0  0  0  0  0  0  0  0
  -10.7137    5.4137   12.2549 S   0  0  2  0  0  0  0  0  0  0  0  0
  -12.4026    5.7974   12.7811 C   0  0  0  0  0  0  0  0  0  0  0  0
   -9.8291    5.4632   13.8371 C   0  0  0  0  0  0  0  0  0  0  0  0
   -8.3381    5.2882   13.5872 C   0  0  1  0  0  0  0  0  0  0  0  0
   -7.7056    5.0598   14.8239 O   0  0  0  0  0  0  0  0  0  0  0  0
   -7.9493    4.0951   12.7344 C   0  0  1  0  0  0  0  0  0  0  0  0
   -7.7746    4.4740   11.3873 O   0  0  0  0  0  0  0  0  0  0  0  0
   -6.6235    3.6666   13.3300 C   0  0  1  0  0  0  0  0  0  0  0  0
   -5.5951    4.0579   12.4542 O   0  0  0  0  0  0  0  0  0  0  0  0
   -6.4739    4.4069   14.6522 C   0  0  2  0  0  0  0  0  0  0  0  0
   -8.0360    9.5789   10.1789 O   0  0  0  0  0  0  0  0  0  0  0  0
   -7.7470   -0.3567   16.5129 N   0  0  0  0  0  0  0  0  0  0  0  0
   -8.1667    0.2399   15.3404 C   0  0  0  0  0  0  0  0  0  0  0  0
   -7.7339    1.5083   15.0026 N   0  0  0  0  0  0  0  0  0  0  0  0
   -6.8944    2.1849   15.8219 C   0  0  0  0  0  0  0  0  0  0  0  0
   -6.4547    1.5971   17.0017 C   0  0  0  0  0  0  0  0  0  0  0  0
   -6.8880    0.3233   17.3488 C   0  0  0  0  0  0  0  0  0  0  0  0
   -6.4743   -0.2357   18.4835 N   0  0  0  0  0  0  0  0  0  0  0  0
   -5.6316    2.4721   17.6187 N   0  0  0  0  0  0  0  0  0  0  0  0
   -5.5283    3.5836   16.8529 C   0  0  0  0  0  0  0  0  0  0  0  0
   -6.3038    3.4234   15.7350 N   0  0  0  0  0  0  0  0  0  0  0  0
  2  1  1  6  0  0  0
  2  3  1  0  0  0  0
  2  5  1  0  0  0  0
  3  4  1  0  0  0  0
  3 17  1  0  0  0  0
  5  6  1  0  0  0  0
  7  6  1  6  0  0  0
  7  8  1  0  0  0  0
  7  9  1  0  0  0  0
 10  9  1  1  0  0  0
 10 11  1  0  0  0  0
 10 12  1  0  0  0  0
 11 16  1  0  0  0  0
 12 13  1  6  0  0  0
 12 14  1  0  0  0  0
 14 15  1  6  0  0  0
 14 16  1  0  0  0  0
 16 27  1  1  0  0  0
 18 19  2  0  0  0  0
 18 23  1  0  0  0  0
 19 20  1  0  0  0  0
 20 21  2  0  0  0  0
 21 22  1  0  0  0  0
 21 27  1  0  0  0  0
 22 23  2  0  0  0  0
 22 25  1  0  0  0  0
 23 24  1  0  0  0  0
 25 26  2  0  0  0  0
 26 27  1  0  0  0  0
M  END
>  <CHROM.1>
-72.44491939,178.41885362,-173.31680880,-89.49093762,-71.63589194,-168.31534595
77.95374604,-8.17043274,4.55182825,13.39568127,1.88097777,-0.13352362,-0.76032933

>  <Name>
ligand

>  <RI>
0

>  <Rbt.Current_Directory>
/home/itssahil/PROJECTS/Mol_Feturizer/New_Systems/rnas/3GX6

>  <Rbt.Executable>
rbdock ($Id: //depot/dev/client3/rdock/2013.1/src/exe/rbdock.cxx#4 $)

>  <Rbt.Library>
libRbt.so (2013.1, Build901 2013/11/27)

>  <Rbt.Parameter_File>
/export/apps/rDock/src/rDock_2013.1_src/data/scripts/dock_solv.prm

>  <Rbt.Receptor>
prm/blind_docking_80.prm

>  <SCORE>
-20.1077

>  <SCORE.INTER>
-10.0595

>  <SCORE.INTER.CONST>
1

>  <SCORE.INTER.POLAR>
0

>  <SCORE.INTER.ROT>
7

>  <SCORE.INTER.SOLV>
10.7447

>  <SCORE.INTER.VDW>
-18.5546

>  <SCORE.INTER.norm>
-0.372573

>  <SCORE.INTRA>
-10.0482

>  <SCORE.INTRA.DIHEDRAL>
-9.90574

>  <SCORE.INTRA.DIHEDRAL.0>
15.0182

>  <SCORE.INTRA.POLAR>
0

>  <SCORE.INTRA.POLAR.0>
0

>  <SCORE.INTRA.REPUL>
0

>  <SCORE.INTRA.REPUL.0>
0

>  <SCORE.INTRA.SOLV>
-1.47702

>  <SCORE.INTRA.SOLV.lig_0>
-47.9129

>  <SCORE.INTRA.VDW>
-4.35681

>  <SCORE.INTRA.VDW.0>
2.00851

>  <SCORE.INTRA.norm>
-0.372155

>  <SCORE.RESTR>
0

>  <SCORE.RESTR.CAVITY>
0

>  <SCORE.RESTR.norm>
0

>  <SCORE.SYSTEM>
0

>  <SCORE.SYSTEM.CONST>
0

>  <SCORE.SYSTEM.DIHEDRAL>
0

>  <SCORE.SYSTEM.SOLV>
0

>  <SCORE.SYSTEM.norm>
0

>  <SCORE.heavy>
27

>  <SCORE.norm>
-0.744728

>  <RMSD>
21.959

$$$$
ligand
 OpenBabel11021811483D
libRbt.so/2013.1/901 2013/11/27
 27 29  0  0  0  0  0  0  0  0999 V2000
  -10.0405    7.1909    9.1707 N   0  0  0  0  0  0  0  0  0  0  0  0
   -9.5254    8.1958   10.0968 C   0  0  2  0  0  0  0  0  0  0  0  0
   -8.5159    9.1238    9.4262 C   0  0  0  0  0  0  0  0  0  0  0  0
   -7.5799    8.6731    8.7620 O   0  0  0  0  0  0  0  0  0  0  0  0
   -8.9350    7.5383   11.3406 C   0  0  0  0  0  0  0  0  0  0  0  0
   -7.9526    6.4216   11.0230 C   0  0  0  0  0  0  0  0  0  0  0  0
   -6.8810    5.9728   12.4110 S   0  0  2  0  0  0  0  0  0  0  0  0
   -6.1931    4.4127   11.8033 C   0  0  0  0  0  0  0  0  0  0  0  0
   -8.1030    5.3780   13.6116 C   0  0  0  0  0  0  0  0  0  0  0  0
   -9.0687    4.4269   12.9194 C   0  0  1  0  0  0  0  0  0  0  0  0
   -8.5600    3.1193   13.0327 O   0  0  0  0  0  0  0  0  0  0  0  0
  -10.4594    4.3481   13.5209 C   0  0  1  0  0  0  0  0  0  0  0  0
  -11.3536    5.1965   12.8358 O   0  0  0  0  0  0  0  0  0  0  0  0
  -10.8455    2.8995   13.3009 C   0  0  1  0  0  0  0  0  0  0  0  0
  -11.7836    2.8430   12.2547 O   0  0  0  0  0  0  0  0  0  0  0  0
   -9.5785    2.1630   12.8873 C   0  0  2  0  0  0  0  0  0  0  0  0
   -8.6153   10.3455    9.5412 O   0  0  0  0  0  0  0  0  0  0  0  0
   -6.4660    0.2203   16.6707 N   0  0  0  0  0  0  0  0  0  0  0  0
   -6.3236    1.4046   15.9749 C   0  0  0  0  0  0  0  0  0  0  0  0
   -7.2386    1.7640   15.0034 N   0  0  0  0  0  0  0  0  0  0  0  0
   -8.2861    0.9546   14.7182 C   0  0  0  0  0  0  0  0  0  0  0  0
   -8.4504   -0.2368   15.4139 C   0  0  0  0  0  0  0  0  0  0  0  0
   -7.5328   -0.6056   16.3900 C   0  0  0  0  0  0  0  0  0  0  0  0
   -7.6851   -1.7514   17.0496 N   0  0  0  0  0  0  0  0  0  0  0  0
   -9.5637   -0.8403   14.9447 N   0  0  0  0  0  0  0  0  0  0  0  0
  -10.1118   -0.0549   13.9880 C   0  0  0  0  0  0  0  0  0  0  0  0
   -9.3338    1.0622   13.8343 N   0  0  0  0  0  0  0  0  0  0  0  0
  2  1  1  6  0  0  0
  2  3  1  0  0  0  0
  2  5  1  0  0  0  0
  3  4  1  0  0  0  0
  3 17  1  0  0  0  0
  5  6  1  0  0  0  0
  7  6  1  6  0  0  0
  7  8  1  0  0  0  0
  7  9  1  0  0  0  0
 10  9  1  1  0  0  0
 10 11  1  0  0  0  0
 10 12  1  0  0  0  0
 11 16  1  0  0  0  0
 12 13  1  6  0  0  0
 12 14  1  0  0  0  0
 14 15  1  6  0  0  0
 14 16  1  0  0  0  0
 16 27  1  1  0  0  0
 18 19  2  0  0  0  0
 18 23  1  0  0  0  0
 19 20  1  0  0  0  0
 20 21  2  0  0  0  0
 21 22  1  0  0  0  0
 21 27  1  0  0  0  0
 22 23  2  0  0  0  0
 22 25  1  0  0  0  0
 23 24  1  0  0  0  0
 25 26  2  0  0  0  0
 26 27  1  0  0  0  0
M  END
>  <CHROM.1>
-49.30770135,50.01113084,162.49298354,166.65290035,46.93486086,90.65217723
-0.49932934,-8.63471279,3.92698931,12.92421081,1.60998806,-0.26744725,-0.57479272

>  <Name>
ligand

>  <RI>
0

>  <Rbt.Current_Directory>
/home/itssahil/PROJECTS/Mol_Feturizer/New_Systems/rnas/3GX6

>  <Rbt.Executable>
rbdock ($Id: //depot/dev/client3/rdock/2013.1/src/exe/rbdock.cxx#4 $)

>  <Rbt.Library>
libRbt.so (2013.1, Build901 2013/11/27)

>  <Rbt.Parameter_File>
/export/apps/rDock/src/rDock_2013.1_src/data/scripts/dock_solv.prm

>  <Rbt.Receptor>
prm/blind_docking_20.prm

>  <SCORE>
-18.9493

>  <SCORE.INTER>
-11.4124

>  <SCORE.INTER.CONST>
1

>  <SCORE.INTER.POLAR>
0

>  <SCORE.INTER.ROT>
7

>  <SCORE.INTER.SOLV>
8.76616

>  <SCORE.INTER.VDW>
-18.797

>  <SCORE.INTER.norm>
-0.422681

>  <SCORE.INTRA>
-7.53694

>  <SCORE.INTRA.DIHEDRAL>
-7.47807

>  <SCORE.INTRA.DIHEDRAL.0>
15.0182

>  <SCORE.INTRA.POLAR>
0

>  <SCORE.INTRA.POLAR.0>
0

>  <SCORE.INTRA.REPUL>
0

>  <SCORE.INTRA.REPUL.0>
0

>  <SCORE.INTRA.SOLV>
-0.730541

>  <SCORE.INTRA.SOLV.lig_0>
-47.9129

>  <SCORE.INTRA.VDW>
-3.43264

>  <SCORE.INTRA.VDW.0>
2.00851

>  <SCORE.INTRA.norm>
-0.279146

>  <SCORE.RESTR>
0

>  <SCORE.RESTR.CAVITY>
0

>  <SCORE.RESTR.norm>
0

>  <SCORE.SYSTEM>
0

>  <SCORE.SYSTEM.CONST>
0

>  <SCORE.SYSTEM.DIHEDRAL>
0

>  <SCORE.SYSTEM.SOLV>
0

>  <SCORE.SYSTEM.norm>
0

>  <SCORE.heavy>
27

>  <SCORE.norm>
-0.701827

>  <RMSD>
21.960

$$$$
ligand
 OpenBabel11021811483D
libRbt.so/2013.1/901 2013/11/27
 27 29  0  0  0  0  0  0  0  0999 V2000
   -7.7767   -4.1055   11.9910 N   0  0  0  0  0  0  0  0  0  0  0  0
   -8.3318   -3.1924   12.9864 C   0  0  2  0  0  0  0  0  0  0  0  0
   -8.7966   -3.9302   14.2392 C   0  0  0  0  0  0  0  0  0  0  0  0
   -8.2737   -3.7163   15.3352 O   0  0  0  0  0  0  0  0  0  0  0  0
   -9.4554   -2.3517   12.3876 C   0  0  0  0  0  0  0  0  0  0  0  0
  -10.1194   -1.4273   13.3963 C   0  0  0  0  0  0  0  0  0  0  0  0
   -9.0004   -0.1946   14.1068 S   0  0  2  0  0  0  0  0  0  0  0  0
  -10.1216    0.6434   15.2545 C   0  0  0  0  0  0  0  0  0  0  0  0
   -8.9114    1.0102   12.7544 C   0  0  0  0  0  0  0  0  0  0  0  0
   -8.0026    2.1607   13.1628 C   0  0  1  0  0  0  0  0  0  0  0  0
   -7.4861    2.7530   11.9949 O   0  0  0  0  0  0  0  0  0  0  0  0
   -8.6766    3.3012   13.9024 C   0  0  1  0  0  0  0  0  0  0  0  0
   -8.5316    3.1528   15.2972 O   0  0  0  0  0  0  0  0  0  0  0  0
   -7.9094    4.5180   13.4264 C   0  0  1  0  0  0  0  0  0  0  0  0
   -7.0606    4.9428   14.4642 O   0  0  0  0  0  0  0  0  0  0  0  0
   -7.0718    4.0735   12.2350 C   0  0  2  0  0  0  0  0  0  0  0  0
   -9.7035   -4.7606   14.1769 O   0  0  0  0  0  0  0  0  0  0  0  0
  -10.6739    5.1875    8.5527 N   0  0  0  0  0  0  0  0  0  0  0  0
  -10.7500    4.2485    9.5625 C   0  0  0  0  0  0  0  0  0  0  0  0
   -9.7031    4.0831   10.4495 N   0  0  0  0  0  0  0  0  0  0  0  0
   -8.5851    4.8387   10.3359 C   0  0  0  0  0  0  0  0  0  0  0  0
   -8.4941    5.7945    9.3315 C   0  0  0  0  0  0  0  0  0  0  0  0
   -9.5418    5.9642    8.4346 C   0  0  0  0  0  0  0  0  0  0  0  0
   -9.4505    6.8731    7.4668 N   0  0  0  0  0  0  0  0  0  0  0  0
   -7.2947    6.4041    9.4472 N   0  0  0  0  0  0  0  0  0  0  0  0
   -6.6382    5.8714   10.5046 C   0  0  0  0  0  0  0  0  0  0  0  0
   -7.4229    4.9000   11.0679 N   0  0  0  0  0  0  0  0  0  0  0  0
  2  1  1  6  0  0  0
  2  3  1  0  0  0  0
  2  5  1  0  0  0  0
  3  4  1  0  0  0  0
  3 17  1  0  0  0  0
  5  6  1  0  0  0  0
  7  6  1  6  0  0  0
  7  8  1  0  0  0  0
  7  9  1  0  0  0  0
 10  9  1  6  0  0  0
 10 11  1  0  0  0  0
 10 12  1  0  0  0  0
 11 16  1  0  0  0  0
 12 13  1  1  0  0  0
 12 14  1  0  0  0  0
 14 15  1  1  0  0  0
 14 16  1  0  0  0  0
 16 27  1  6  0  0  0
 18 19  2  0  0  0  0
 18 23  1  0  0  0  0
 19 20  1  0  0  0  0
 20 21  2  0  0  0  0
 21 22  1  0  0  0  0
 21 27  1  0  0  0  0
 22 23  2  0  0  0  0
 22 25  1  0  0  0  0
 23 24  1  0  0  0  0
 25 26  2  0  0  0  0
 26 27  1  0  0  0  0
M  END
>  <CHROM.1>
116.98307833,177.20306926,62.00262582,-178.36784911,179.66711189,155.05592661
40.72316681,-8.67099786,1.90736513,12.27949264,1.68063410,1.21968130,2.59025186

>  <Name>
ligand

>  <RI>
0

>  <Rbt.Current_Directory>
/home/itssahil/PROJECTS/Mol_Feturizer/New_Systems/rnas/3GX6

>  <Rbt.Executable>
rbdock ($Id: //depot/dev/client3/rdock/2013.1/src/exe/rbdock.cxx#4 $)

>  <Rbt.Library>
libRbt.so (2013.1, Build901 2013/11/27)

>  <Rbt.Parameter_File>
/export/apps/rDock/src/rDock_2013.1_src/data/scripts/dock_solv.prm

>  <Rbt.Receptor>
prm/blind_docking_20.prm

>  <SCORE>
-18.4454

>  <SCORE.INTER>
-8.2841

>  <SCORE.INTER.CONST>
1

>  <SCORE.INTER.POLAR>
0

>  <SCORE.INTER.ROT>
7

>  <SCORE.INTER.SOLV>
8.54435

>  <SCORE.INTER.VDW>
-16.6375

>  <SCORE.INTER.norm>
-0.306819

>  <SCORE.INTRA>
-10.1613

>  <SCORE.INTRA.DIHEDRAL>
-9.38227

>  <SCORE.INTRA.DIHEDRAL.0>
15.0182

>  <SCORE.INTRA.POLAR>
0

>  <SCORE.INTRA.POLAR.0>
0

>  <SCORE.INTRA.REPUL>
0

>  <SCORE.INTRA.REPUL.0>
0

>  <SCORE.INTRA.SOLV>
-1.43805

>  <SCORE.INTRA.SOLV.lig_0>
-47.9129

>  <SCORE.INTRA.VDW>
-4.75111

>  <SCORE.INTRA.VDW.0>
2.00851

>  <SCORE.INTRA.norm>
-0.376343

>  <SCORE.RESTR>
0

>  <SCORE.RESTR.CAVITY>
0

>  <SCORE.RESTR.norm>
0

>  <SCORE.SYSTEM>
0

>  <SCORE.SYSTEM.CONST>
0

>  <SCORE.SYSTEM.DIHEDRAL>
0

>  <SCORE.SYSTEM.SOLV>
0

>  <SCORE.SYSTEM.norm>
0

>  <SCORE.heavy>
27

>  <SCORE.norm>
-0.683162

>  <RMSD>
22.000

$$$$
ligand
 OpenBabel11021811483D
libRbt.so/2013.1/901 2013/11/27
 27 29  0  0  0  0  0  0  0  0999 V2000
   -5.8027    3.3035   21.2194 N   0  0  0  0  0  0  0  0  0  0  0  0
   -6.0580    4.2723   20.1568 C   0  0  2  0  0  0  0  0  0  0  0  0
   -6.1091    5.7017   20.6899 C   0  0  0  0  0  0  0  0  0  0  0  0
   -6.4525    5.9366   21.8506 O   0  0  0  0  0  0  0  0  0  0  0  0
   -7.3297    3.9188   19.3915 C   0  0  0  0  0  0  0  0  0  0  0  0
   -7.5016    4.7158   18.1077 C   0  0  0  0  0  0  0  0  0  0  0  0
   -8.9526    4.2367   17.1375 S   0  0  2  0  0  0  0  0  0  0  0  0
   -8.3276    2.7427   16.3287 C   0  0  0  0  0  0  0  0  0  0  0  0
   -8.8707    5.4359   15.7797 C   0  0  0  0  0  0  0  0  0  0  0  0
  -10.1490    5.3551   14.9576 C   0  0  1  0  0  0  0  0  0  0  0  0
  -10.2717    6.5429   14.2120 O   0  0  0  0  0  0  0  0  0  0  0  0
  -10.1960    4.2482   13.9211 C   0  0  1  0  0  0  0  0  0  0  0  0
  -10.8641    3.1134   14.4257 O   0  0  0  0  0  0  0  0  0  0  0  0
  -11.0001    4.8673   12.7959 C   0  0  1  0  0  0  0  0  0  0  0  0
  -12.2869    4.3000   12.8043 O   0  0  0  0  0  0  0  0  0  0  0  0
  -11.0999    6.3574   13.0928 C   0  0  2  0  0  0  0  0  0  0  0  0
   -5.8117    6.6515   19.9652 O   0  0  0  0  0  0  0  0  0  0  0  0
   -7.2147    6.7393    9.5524 N   0  0  0  0  0  0  0  0  0  0  0  0
   -7.3793    5.7851   10.5370 C   0  0  0  0  0  0  0  0  0  0  0  0
   -8.4651    5.8354   11.3907 N   0  0  0  0  0  0  0  0  0  0  0  0
   -9.3805    6.8266   11.2746 C   0  0  0  0  0  0  0  0  0  0  0  0
   -9.2360    7.7905   10.2844 C   0  0  0  0  0  0  0  0  0  0  0  0
   -8.1454    7.7475    9.4244 C   0  0  0  0  0  0  0  0  0  0  0  0
   -8.0020    8.6764    8.4822 N   0  0  0  0  0  0  0  0  0  0  0  0
  -10.2767    8.6454   10.3835 N   0  0  0  0  0  0  0  0  0  0  0  0
  -11.0785    8.2364   11.3947 C   0  0  0  0  0  0  0  0  0  0  0  0
  -10.5391    7.1103   11.9583 N   0  0  0  0  0  0  0  0  0  0  0  0
  2  1  1  1  0  0  0
  2  3  1  0  0  0  0
  2  5  1  0  0  0  0
  3  4  1  0  0  0  0
  3 17  1  0  0  0  0
  5  6  1  0  0  0  0
  7  6  1  1  0  0  0
  7  8  1  0  0  0  0
  7  9  1  0  0  0  0
 10  9  1  6  0  0  0
 10 11  1  0  0  0  0
 10 12  1  0  0  0  0
 11 16  1  0  0  0  0
 12 13  1  1  0  0  0
 12 14  1  0  0  0  0
 14 15  1  1  0  0  0
 14 16  1  0  0  0  0
 16 27  1  6  0  0  0
 18 19  2  0  0  0  0
 18 23  1  0  0  0  0
 19 20  1  0  0  0  0
 20 21  2  0  0  0  0
 21 22  1  0  0  0  0
 21 27  1  0  0  0  0
 22 23  2  0  0  0  0
 22 25  1  0  0  0  0
 23 24  1  0  0  0  0
 25 26  2  0  0  0  0
 26 27  1  0  0  0  0
M  END
>  <CHROM.1>
-27.85366735,-168.40471065,176.45261956,-79.25665054,-170.60959864,160.91271843
69.46855780,-8.78173774,5.62546264,14.74523502,-1.24349819,-0.59494279,-1.13088306

>  <Name>
ligand

>  <RI>
0

>  <Rbt.Current_Directory>
/home/itssahil/PROJECTS/Mol_Feturizer/New_Systems/rnas/3GX6

>  <Rbt.Executable>
rbdock ($Id: //depot/dev/client3/rdock/2013.1/src/exe/rbdock.cxx#4 $)

>  <Rbt.Library>
libRbt.so (2013.1, Build901 2013/11/27)

>  <Rbt.Parameter_File>
/export/apps/rDock/src/rDock_2013.1_src/data/scripts/dock_solv.prm

>  <Rbt.Receptor>
prm/blind_docking_80.prm

>  <SCORE>
-20.3289

>  <SCORE.INTER>
-10.4178

>  <SCORE.INTER.CONST>
1

>  <SCORE.INTER.POLAR>
0

>  <SCORE.INTER.ROT>
7

>  <SCORE.INTER.SOLV>
11.4654

>  <SCORE.INTER.VDW>
-19.0337

>  <SCORE.INTER.norm>
-0.385844

>  <SCORE.INTRA>
-9.92266

>  <SCORE.INTRA.DIHEDRAL>
-8.89152

>  <SCORE.INTRA.DIHEDRAL.0>
15.0182

>  <SCORE.INTRA.POLAR>
0

>  <SCORE.INTRA.POLAR.0>
0

>  <SCORE.INTRA.REPUL>
0

>  <SCORE.INTRA.REPUL.0>
0

>  <SCORE.INTRA.SOLV>
-1.55703

>  <SCORE.INTRA.SOLV.lig_0>
-47.9129

>  <SCORE.INTRA.VDW>
-4.69838

>  <SCORE.INTRA.VDW.0>
2.00851

>  <SCORE.INTRA.norm>
-0.367506

>  <SCORE.RESTR>
0.0114969

>  <SCORE.RESTR.CAVITY>
0.0114969

>  <SCORE.RESTR.norm>
0.000425812

>  <SCORE.SYSTEM>
0

>  <SCORE.SYSTEM.CONST>
0

>  <SCORE.SYSTEM.DIHEDRAL>
0

>  <SCORE.SYSTEM.SOLV>
0

>  <SCORE.SYSTEM.norm>
0

>  <SCORE.heavy>
27

>  <SCORE.norm>
-0.752924

>  <RMSD>
22.003

$$$$
ligand
 OpenBabel11021811483D
libRbt.so/2013.1/901 2013/11/27
 27 29  0  0  0  0  0  0  0  0999 V2000
   -5.8711    3.4361   19.7365 N   0  0  0  0  0  0  0  0  0  0  0  0
   -5.8521    4.8634   19.4274 C   0  0  2  0  0  0  0  0  0  0  0  0
   -5.4378    5.7016   20.6338 C   0  0  0  0  0  0  0  0  0  0  0  0
   -5.1975    5.1754   21.7228 O   0  0  0  0  0  0  0  0  0  0  0  0
   -7.1980    5.3179   18.8707 C   0  0  0  0  0  0  0  0  0  0  0  0
   -7.5290    4.7044   17.5189 C   0  0  0  0  0  0  0  0  0  0  0  0
   -9.1586    5.1700   16.8833 S   0  0  2  0  0  0  0  0  0  0  0  0
  -10.2237    4.1486   17.9316 C   0  0  0  0  0  0  0  0  0  0  0  0
   -9.1990    4.2422   15.3257 C   0  0  0  0  0  0  0  0  0  0  0  0
  -10.5061    4.5297   14.6010 C   0  0  1  0  0  0  0  0  0  0  0  0
  -10.4494    5.8396   14.0885 O   0  0  0  0  0  0  0  0  0  0  0  0
  -10.7934    3.6596   13.3918 C   0  0  1  0  0  0  0  0  0  0  0  0
  -11.6288    2.5772   13.7369 O   0  0  0  0  0  0  0  0  0  0  0  0
  -11.5238    4.6028   12.4577 C   0  0  1  0  0  0  0  0  0  0  0  0
  -12.8891    4.2653   12.4627 O   0  0  0  0  0  0  0  0  0  0  0  0
  -11.3455    6.0067   13.0199 C   0  0  2  0  0  0  0  0  0  0  0  0
   -5.3404    6.9255   20.5426 O   0  0  0  0  0  0  0  0  0  0  0  0
   -7.3993    6.5324    9.5664 N   0  0  0  0  0  0  0  0  0  0  0  0
   -7.6543    5.4723   10.4138 C   0  0  0  0  0  0  0  0  0  0  0  0
   -8.7424    5.4986   11.2656 N   0  0  0  0  0  0  0  0  0  0  0  0
   -9.5713    6.5693   11.2827 C   0  0  0  0  0  0  0  0  0  0  0  0
   -9.3355    7.6416   10.4310 C   0  0  0  0  0  0  0  0  0  0  0  0
   -8.2418    7.6229    9.5741 C   0  0  0  0  0  0  0  0  0  0  0  0
   -8.0107    8.6541    8.7652 N   0  0  0  0  0  0  0  0  0  0  0  0
  -10.3031    8.5594   10.6430 N   0  0  0  0  0  0  0  0  0  0  0  0
  -11.1481    8.0874   11.5894 C   0  0  0  0  0  0  0  0  0  0  0  0
  -10.7107    6.8550   11.9972 N   0  0  0  0  0  0  0  0  0  0  0  0
  2  1  1  1  0  0  0
  2  3  1  0  0  0  0
  2  5  1  0  0  0  0
  3  4  1  0  0  0  0
  3 17  1  0  0  0  0
  5  6  1  0  0  0  0
  7  6  1  1  0  0  0
  7  8  1  0  0  0  0
  7  9  1  0  0  0  0
 10  9  1  6  0  0  0
 10 11  1  0  0  0  0
 10 12  1  0  0  0  0
 11 16  1  0  0  0  0
 12 13  1  1  0  0  0
 12 14  1  0  0  0  0
 14 15  1  1  0  0  0
 14 16  1  0  0  0  0
 16 27  1  6  0  0  0
 18 19  2  0  0  0  0
 18 23  1  0  0  0  0
 19 20  1  0  0  0  0
 20 21  2  0  0  0  0
 21 22  1  0  0  0  0
 21 27  1  0  0  0  0
 22 23  2  0  0  0  0
 22 25  1  0  0  0  0
 23 24  1  0  0  0  0
 25 26  2  0  0  0  0
 26 27  1  0  0  0  0
M  END
>  <CHROM.1>
-1.86886872,-65.89529381,177.13485576,-75.02930669,-178.60246439,72.55657172
62.46292387,-8.95121010,5.58474298,14.60696663,-1.15282353,-0.53886873,-1.17673189

>  <Name>
ligand

>  <RI>
0

>  <Rbt.Current_Directory>
/home/itssahil/PROJECTS/Mol_Feturizer/New_Systems/rnas/3GX6

>  <Rbt.Executable>
rbdock ($Id: //depot/dev/client3/rdock/2013.1/src/exe/rbdock.cxx#4 $)

>  <Rbt.Library>
libRbt.so (2013.1, Build901 2013/11/27)

>  <Rbt.Parameter_File>
/export/apps/rDock/src/rDock_2013.1_src/data/scripts/dock_solv.prm

>  <Rbt.Receptor>
prm/blind_docking_60.prm

>  <SCORE>
-26.1231

>  <SCORE.INTER>
-15.6941

>  <SCORE.INTER.CONST>
1

>  <SCORE.INTER.POLAR>
0

>  <SCORE.INTER.ROT>
7

>  <SCORE.INTER.SOLV>
12.6695

>  <SCORE.INTER.VDW>
-22.9526

>  <SCORE.INTER.norm>
-0.581264

>  <SCORE.INTRA>
-10.4296

>  <SCORE.INTRA.DIHEDRAL>
-10.6721

>  <SCORE.INTRA.DIHEDRAL.0>
15.0182

>  <SCORE.INTRA.POLAR>
0

>  <SCORE.INTRA.POLAR.0>
0

>  <SCORE.INTRA.REPUL>
0

>  <SCORE.INTRA.REPUL.0>
0

>  <SCORE.INTRA.SOLV>
-1.17076

>  <SCORE.INTRA.SOLV.lig_0>
-47.9129

>  <SCORE.INTRA.VDW>
-4.50819

>  <SCORE.INTRA.VDW.0>
2.00851

>  <SCORE.INTRA.norm>
-0.386283

>  <SCORE.RESTR>
0.000699023

>  <SCORE.RESTR.CAVITY>
0.000699023

>  <SCORE.RESTR.norm>
2.58897e-05

>  <SCORE.SYSTEM>
0

>  <SCORE.SYSTEM.CONST>
0

>  <SCORE.SYSTEM.DIHEDRAL>
0

>  <SCORE.SYSTEM.SOLV>
0

>  <SCORE.SYSTEM.norm>
0

>  <SCORE.heavy>
27

>  <SCORE.norm>
-0.967521

>  <RMSD>
22.027

$$$$
ligand
 OpenBabel11021811483D
libRbt.so/2013.1/901 2013/11/27
 27 29  0  0  0  0  0  0  0  0999 V2000
   -7.1621   -4.1212   12.8287 N   0  0  0  0  0  0  0  0  0  0  0  0
   -8.4202   -3.4573   13.1596 C   0  0  2  0  0  0  0  0  0  0  0  0
   -9.4453   -4.4327   13.7320 C   0  0  0  0  0  0  0  0  0  0  0  0
  -10.6525   -4.1850   13.6905 O   0  0  0  0  0  0  0  0  0  0  0  0
   -8.9770   -2.7119   11.9503 C   0  0  0  0  0  0  0  0  0  0  0  0
  -10.1455   -1.7998   12.2905 C   0  0  0  0  0  0  0  0  0  0  0  0
   -9.6941   -0.3893   13.3311 S   0  0  2  0  0  0  0  0  0  0  0  0
  -11.2756    0.4887   13.3979 C   0  0  0  0  0  0  0  0  0  0  0  0
   -8.7719    0.6303   12.1486 C   0  0  0  0  0  0  0  0  0  0  0  0
   -8.1299    1.7986   12.8830 C   0  0  1  0  0  0  0  0  0  0  0  0
   -7.3911    2.5541   11.9529 O   0  0  0  0  0  0  0  0  0  0  0  0
   -9.0917    2.7940   13.5042 C   0  0  1  0  0  0  0  0  0  0  0  0
   -9.3028    2.5067   14.8686 O   0  0  0  0  0  0  0  0  0  0  0  0
   -8.3605    4.1130   13.3577 C   0  0  1  0  0  0  0  0  0  0  0  0
   -7.8640    4.4889   14.6187 O   0  0  0  0  0  0  0  0  0  0  0  0
   -7.1973    3.8695   12.4057 C   0  0  2  0  0  0  0  0  0  0  0  0
   -9.0832   -5.4878   14.2529 O   0  0  0  0  0  0  0  0  0  0  0  0
  -10.1940    5.5686    8.4172 N   0  0  0  0  0  0  0  0  0  0  0  0
  -10.4906    4.5956    9.3513 C   0  0  0  0  0  0  0  0  0  0  0  0
   -9.5808    4.2680   10.3388 N   0  0  0  0  0  0  0  0  0  0  0  0
   -8.3823    4.8956   10.3994 C   0  0  0  0  0  0  0  0  0  0  0  0
   -8.0698    5.8832    9.4733 C   0  0  0  0  0  0  0  0  0  0  0  0
   -8.9788    6.2157    8.4763 C   0  0  0  0  0  0  0  0  0  0  0  0
   -8.6755    7.1549    7.5836 N   0  0  0  0  0  0  0  0  0  0  0  0
   -6.8342    6.3453    9.7616 N   0  0  0  0  0  0  0  0  0  0  0  0
   -6.3696    5.6895   10.8509 C   0  0  0  0  0  0  0  0  0  0  0  0
   -7.3158    4.7874   11.2604 N   0  0  0  0  0  0  0  0  0  0  0  0
  2  1  1  6  0  0  0
  2  3  1  0  0  0  0
  2  5  1  0  0  0  0
  3  4  1  0  0  0  0
  3 17  1  0  0  0  0
  5  6  1  0  0  0  0
  7  6  1  6  0  0  0
  7  8  1  0  0  0  0
  7  9  1  0  0  0  0
 10  9  1  6  0  0  0
 10 11  1  0  0  0  0
 10 12  1  0  0  0  0
 11 16  1  0  0  0  0
 12 13  1  1  0  0  0
 12 14  1  0  0  0  0
 14 15  1  1  0  0  0
 14 16  1  0  0  0  0
 16 27  1  6  0  0  0
 18 19  2  0  0  0  0
 18 23  1  0  0  0  0
 19 20  1  0  0  0  0
 20 21  2  0  0  0  0
 21 22  1  0  0  0  0
 21 27  1  0  0  0  0
 22 23  2  0  0  0  0
 22 25  1  0  0  0  0
 23 24  1  0  0  0  0
 25 26  2  0  0  0  0
 26 27  1  0  0  0  0
M  END
>  <CHROM.1>
-157.57337825,-169.64354271,67.14767838,175.87367363,-172.24397350,178.42963621
55.66298674,-8.79939166,1.71060185,12.01613572,1.85643789,1.20742419,2.50322901

>  <Name>
ligand

>  <RI>
0

>  <Rbt.Current_Directory>
/home/itssahil/PROJECTS/Mol_Feturizer/New_Systems/rnas/3GX6

>  <Rbt.Executable>
rbdock ($Id: //depot/dev/client3/rdock/2013.1/src/exe/rbdock.cxx#4 $)

>  <Rbt.Library>
libRbt.so (2013.1, Build901 2013/11/27)

>  <Rbt.Parameter_File>
/export/apps/rDock/src/rDock_2013.1_src/data/scripts/dock_solv.prm

>  <Rbt.Receptor>
prm/blind_docking_20.prm

>  <SCORE>
-17.6908

>  <SCORE.INTER>
-7.88749

>  <SCORE.INTER.CONST>
1

>  <SCORE.INTER.POLAR>
0

>  <SCORE.INTER.ROT>
7

>  <SCORE.INTER.SOLV>
10.0874

>  <SCORE.INTER.VDW>
-16.8875

>  <SCORE.INTER.norm>
-0.292129

>  <SCORE.INTRA>
-9.80539

>  <SCORE.INTRA.DIHEDRAL>
-10.4722

>  <SCORE.INTRA.DIHEDRAL.0>
15.0182

>  <SCORE.INTRA.POLAR>
0

>  <SCORE.INTRA.POLAR.0>
0

>  <SCORE.INTRA.REPUL>
0

>  <SCORE.INTRA.REPUL.0>
0

>  <SCORE.INTRA.SOLV>
-1.35248

>  <SCORE.INTRA.SOLV.lig_0>
-47.9129

>  <SCORE.INTRA.VDW>
-3.89306

>  <SCORE.INTRA.VDW.0>
2.00851

>  <SCORE.INTRA.norm>
-0.363163

>  <SCORE.RESTR>
0.00209707

>  <SCORE.RESTR.CAVITY>
0.00209707

>  <SCORE.RESTR.norm>
7.76691e-05

>  <SCORE.SYSTEM>
0

>  <SCORE.SYSTEM.CONST>
0

>  <SCORE.SYSTEM.DIHEDRAL>
0

>  <SCORE.SYSTEM.SOLV>
0

>  <SCORE.SYSTEM.norm>
0

>  <SCORE.heavy>
27

>  <SCORE.norm>
-0.655214

>  <RMSD>
22.071

$$$$
ligand
 OpenBabel11021811483D
libRbt.so/2013.1/901 2013/11/27
 27 29  0  0  0  0  0  0  0  0999 V2000
   -8.9533    7.5589    9.6465 N   0  0  0  0  0  0  0  0  0  0  0  0
   -7.9112    6.6555    9.1662 C   0  0  2  0  0  0  0  0  0  0  0  0
   -8.2215    6.1190    7.7713 C   0  0  0  0  0  0  0  0  0  0  0  0
   -7.5421    6.4484    6.7965 O   0  0  0  0  0  0  0  0  0  0  0  0
   -7.6746    5.5207   10.1582 C   0  0  0  0  0  0  0  0  0  0  0  0
   -7.3461    6.0060   11.5616 C   0  0  0  0  0  0  0  0  0  0  0  0
   -7.1691    4.6737   12.7740 S   0  0  2  0  0  0  0  0  0  0  0  0
   -5.7260    3.8102   12.1043 C   0  0  0  0  0  0  0  0  0  0  0  0
   -8.5123    3.5658   12.2673 C   0  0  0  0  0  0  0  0  0  0  0  0
   -8.9642    2.7408   13.4638 C   0  0  1  0  0  0  0  0  0  0  0  0
  -10.0542    1.9438   13.0658 O   0  0  0  0  0  0  0  0  0  0  0  0
   -7.9472    1.7530   14.0039 C   0  0  1  0  0  0  0  0  0  0  0  0
   -7.2404    2.3025   15.0934 O   0  0  0  0  0  0  0  0  0  0  0  0
   -8.8082    0.5975   14.4724 C   0  0  1  0  0  0  0  0  0  0  0  0
   -8.8611    0.6232   15.8775 O   0  0  0  0  0  0  0  0  0  0  0  0
  -10.2031    0.8290   13.9072 C   0  0  2  0  0  0  0  0  0  0  0  0
   -9.1640    5.3474    7.5922 O   0  0  0  0  0  0  0  0  0  0  0  0
   -8.5676   -3.1120   10.8139 N   0  0  0  0  0  0  0  0  0  0  0  0
   -7.8031   -2.1501   11.4441 C   0  0  0  0  0  0  0  0  0  0  0  0
   -8.3993   -1.1778   12.2247 N   0  0  0  0  0  0  0  0  0  0  0  0
   -9.7447   -1.1540   12.3776 C   0  0  0  0  0  0  0  0  0  0  0  0
  -10.5294   -2.1189   11.7582 C   0  0  0  0  0  0  0  0  0  0  0  0
   -9.9368   -3.0977   10.9698 C   0  0  0  0  0  0  0  0  0  0  0  0
  -10.6895   -4.0161   10.3689 N   0  0  0  0  0  0  0  0  0  0  0  0
  -11.8182   -1.8721   12.0774 N   0  0  0  0  0  0  0  0  0  0  0  0
  -11.8635   -0.7921   12.8923 C   0  0  0  0  0  0  0  0  0  0  0  0
  -10.5876   -0.3339   13.0898 N   0  0  0  0  0  0  0  0  0  0  0  0
  2  1  1  1  0  0  0
  2  3  1  0  0  0  0
  2  5  1  0  0  0  0
  3  4  1  0  0  0  0
  3 17  1  0  0  0  0
  5  6  1  0  0  0  0
  7  6  1  6  0  0  0
  7  8  1  0  0  0  0
  7  9  1  0  0  0  0
 10  9  1  6  0  0  0
 10 11  1  0  0  0  0
 10 12  1  0  0  0  0
 11 16  1  0  0  0  0
 12 13  1  1  0  0  0
 12 14  1  0  0  0  0
 14 15  1  1  0  0  0
 14 16  1  0  0  0  0
 16 27  1  6  0  0  0
 18 19  2  0  0  0  0
 18 23  1  0  0  0  0
 19 20  1  0  0  0  0
 20 21  2  0  0  0  0
 21 22  1  0  0  0  0
 21 27  1  0  0  0  0
 22 23  2  0  0  0  0
 22 25  1  0  0  0  0
 23 24  1  0  0  0  0
 25 26  2  0  0  0  0
 26 27  1  0  0  0  0
M  END
>  <CHROM.1>
111.81541201,-55.31268628,176.22421672,63.97138331,-154.14070592,176.77943597
82.83824696,-8.77851982,1.97109292,11.81505147,0.81605310,-1.20351435,-1.06221711

>  <Name>
ligand

>  <RI>
0

>  <Rbt.Current_Directory>
/home/itssahil/PROJECTS/Mol_Feturizer/New_Systems/rnas/3GX6

>  <Rbt.Executable>
rbdock ($Id: //depot/dev/client3/rdock/2013.1/src/exe/rbdock.cxx#4 $)

>  <Rbt.Library>
libRbt.so (2013.1, Build901 2013/11/27)

>  <Rbt.Parameter_File>
/export/apps/rDock/src/rDock_2013.1_src/data/scripts/dock_solv.prm

>  <Rbt.Receptor>
prm/blind_docking_80.prm

>  <SCORE>
-16.126

>  <SCORE.INTER>
-8.28349

>  <SCORE.INTER.CONST>
1

>  <SCORE.INTER.POLAR>
0

>  <SCORE.INTER.ROT>
7

>  <SCORE.INTER.SOLV>
10.6905

>  <SCORE.INTER.VDW>
-17.3525

>  <SCORE.INTER.norm>
-0.306796

>  <SCORE.INTRA>
-7.8425

>  <SCORE.INTRA.DIHEDRAL>
-8.61183

>  <SCORE.INTRA.DIHEDRAL.0>
15.0182

>  <SCORE.INTRA.POLAR>
0

>  <SCORE.INTRA.POLAR.0>
0

>  <SCORE.INTRA.REPUL>
0

>  <SCORE.INTRA.REPUL.0>
0

>  <SCORE.INTRA.SOLV>
-0.889207

>  <SCORE.INTRA.SOLV.lig_0>
-47.9129

>  <SCORE.INTRA.VDW>
-3.09199

>  <SCORE.INTRA.VDW.0>
2.00851

>  <SCORE.INTRA.norm>
-0.290463

>  <SCORE.RESTR>
0

>  <SCORE.RESTR.CAVITY>
0

>  <SCORE.RESTR.norm>
0

>  <SCORE.SYSTEM>
0

>  <SCORE.SYSTEM.CONST>
0

>  <SCORE.SYSTEM.DIHEDRAL>
0

>  <SCORE.SYSTEM.SOLV>
0

>  <SCORE.SYSTEM.norm>
0

>  <SCORE.heavy>
27

>  <SCORE.norm>
-0.597259

>  <RMSD>
22.166

$$$$
ligand
 OpenBabel11021811483D
libRbt.so/2013.1/901 2013/11/27
 27 29  0  0  0  0  0  0  0  0999 V2000
  -10.5768    4.9427    7.5655 N   0  0  0  0  0  0  0  0  0  0  0  0
   -9.9753    5.5413    8.7541 C   0  0  2  0  0  0  0  0  0  0  0  0
   -8.4509    5.5525    8.6766 C   0  0  0  0  0  0  0  0  0  0  0  0
   -7.7608    5.3489    9.6779 O   0  0  0  0  0  0  0  0  0  0  0  0
  -10.4623    4.8441   10.0209 C   0  0  0  0  0  0  0  0  0  0  0  0
  -10.1073    5.5938   11.2956 C   0  0  0  0  0  0  0  0  0  0  0  0
  -10.6953    4.7883   12.8062 S   0  0  2  0  0  0  0  0  0  0  0  0
  -12.3933    5.4121   12.8710 C   0  0  0  0  0  0  0  0  0  0  0  0
   -9.8943    5.8073   14.0744 C   0  0  0  0  0  0  0  0  0  0  0  0
   -8.5108    5.2472   14.3719 C   0  0  1  0  0  0  0  0  0  0  0  0
   -8.6641    3.9761   14.9569 O   0  0  0  0  0  0  0  0  0  0  0  0
   -7.6246    5.0064   13.1642 C   0  0  1  0  0  0  0  0  0  0  0  0
   -6.7544    6.0957   12.9524 O   0  0  0  0  0  0  0  0  0  0  0  0
   -6.8321    3.7775   13.5612 C   0  0  1  0  0  0  0  0  0  0  0  0
   -5.5219    4.1769   13.8801 O   0  0  0  0  0  0  0  0  0  0  0  0
   -7.5032    3.2010   14.8005 C   0  0  2  0  0  0  0  0  0  0  0  0
   -7.8796    5.7712    7.6082 O   0  0  0  0  0  0  0  0  0  0  0  0
   -9.6851   -0.1702   11.3873 N   0  0  0  0  0  0  0  0  0  0  0  0
   -9.4861    1.1877   11.2344 C   0  0  0  0  0  0  0  0  0  0  0  0
   -8.8957    1.9297   12.2398 N   0  0  0  0  0  0  0  0  0  0  0  0
   -8.5082    1.3331   13.3922 C   0  0  0  0  0  0  0  0  0  0  0  0
   -8.6925   -0.0337   13.5605 C   0  0  0  0  0  0  0  0  0  0  0  0
   -9.2879   -0.7853   12.5548 C   0  0  0  0  0  0  0  0  0  0  0  0
   -9.4730   -2.0928   12.7201 N   0  0  0  0  0  0  0  0  0  0  0  0
   -8.2174   -0.3687   14.7794 N   0  0  0  0  0  0  0  0  0  0  0  0
   -7.7252    0.7438   15.3733 C   0  0  0  0  0  0  0  0  0  0  0  0
   -7.8963    1.8082   14.5280 N   0  0  0  0  0  0  0  0  0  0  0  0
  2  1  1  6  0  0  0
  2  3  1  0  0  0  0
  2  5  1  0  0  0  0
  3  4  1  0  0  0  0
  3 17  1  0  0  0  0
  5  6  1  0  0  0  0
  7  6  1  6  0  0  0
  7  8  1  0  0  0  0
  7  9  1  0  0  0  0
 10  9  1  6  0  0  0
 10 11  1  0  0  0  0
 10 12  1  0  0  0  0
 11 16  1  0  0  0  0
 12 13  1  1  0  0  0
 12 14  1  0  0  0  0
 14 15  1  1  0  0  0
 14 16  1  0  0  0  0
 16 27  1  6  0  0  0
 18 19  2  0  0  0  0
 18 23  1  0  0  0  0
 19 20  1  0  0  0  0
 20 21  2  0  0  0  0
 21 22  1  0  0  0  0
 21 27  1  0  0  0  0
 22 23  2  0  0  0  0
 22 25  1  0  0  0  0
 23 24  1  0  0  0  0
 25 26  2  0  0  0  0
 26 27  1  0  0  0  0
M  END
>  <CHROM.1>
-142.59332405,-167.99103719,179.32960486,-84.10838373,-88.05546853,-65.65828163
68.51490586,-8.86725449,3.44776259,12.32480305,1.96829131,-1.19302819,-0.32316612

>  <Name>
ligand

>  <RI>
0

>  <Rbt.Current_Directory>
/home/itssahil/PROJECTS/Mol_Feturizer/New_Systems/rnas/3GX6

>  <Rbt.Executable>
rbdock ($Id: //depot/dev/client3/rdock/2013.1/src/exe/rbdock.cxx#4 $)

>  <Rbt.Library>
libRbt.so (2013.1, Build901 2013/11/27)

>  <Rbt.Parameter_File>
/export/apps/rDock/src/rDock_2013.1_src/data/scripts/dock_solv.prm

>  <Rbt.Receptor>
prm/blind_docking_20.prm

>  <SCORE>
-19.3064

>  <SCORE.INTER>
-9.00388

>  <SCORE.INTER.CONST>
1

>  <SCORE.INTER.POLAR>
0

>  <SCORE.INTER.ROT>
7

>  <SCORE.INTER.SOLV>
8.74868

>  <SCORE.INTER.VDW>
-17.1855

>  <SCORE.INTER.norm>
-0.333477

>  <SCORE.INTRA>
-10.3025

>  <SCORE.INTRA.DIHEDRAL>
-9.44877

>  <SCORE.INTRA.DIHEDRAL.0>
15.0182

>  <SCORE.INTRA.POLAR>
0

>  <SCORE.INTRA.POLAR.0>
0

>  <SCORE.INTRA.REPUL>
0

>  <SCORE.INTRA.REPUL.0>
0

>  <SCORE.INTRA.SOLV>
-1.41822

>  <SCORE.INTRA.SOLV.lig_0>
-47.9129

>  <SCORE.INTRA.VDW>
-4.86902

>  <SCORE.INTRA.VDW.0>
2.00851

>  <SCORE.INTRA.norm>
-0.381575

>  <SCORE.RESTR>
0

>  <SCORE.RESTR.CAVITY>
0

>  <SCORE.RESTR.norm>
0

>  <SCORE.SYSTEM>
0

>  <SCORE.SYSTEM.CONST>
0

>  <SCORE.SYSTEM.DIHEDRAL>
0

>  <SCORE.SYSTEM.SOLV>
0

>  <SCORE.SYSTEM.norm>
0

>  <SCORE.heavy>
27

>  <SCORE.norm>
-0.715052

>  <RMSD>
22.177

$$$$
ligand
 OpenBabel11021811483D
libRbt.so/2013.1/901 2013/11/27
 27 29  0  0  0  0  0  0  0  0999 V2000
   -8.8937    7.3556    8.1938 N   0  0  0  0  0  0  0  0  0  0  0  0
   -8.9917    8.3474    9.2613 C   0  0  2  0  0  0  0  0  0  0  0  0
   -8.4471    9.7059    8.8279 C   0  0  0  0  0  0  0  0  0  0  0  0
   -8.8941   10.7523    9.3030 O   0  0  0  0  0  0  0  0  0  0  0  0
   -8.3039    7.8520   10.5299 C   0  0  0  0  0  0  0  0  0  0  0  0
   -8.8394    6.5168   11.0234 C   0  0  0  0  0  0  0  0  0  0  0  0
   -7.9606    5.8633   12.4645 S   0  0  2  0  0  0  0  0  0  0  0  0
   -6.4463    5.2582   11.6788 C   0  0  0  0  0  0  0  0  0  0  0  0
   -8.8597    4.3133   12.7430 C   0  0  0  0  0  0  0  0  0  0  0  0
   -8.5329    3.7830   14.1316 C   0  0  1  0  0  0  0  0  0  0  0  0
   -9.2659    2.5989   14.3372 O   0  0  0  0  0  0  0  0  0  0  0  0
   -7.0878    3.3810   14.3593 C   0  0  1  0  0  0  0  0  0  0  0  0
   -6.3642    4.4259   14.9703 O   0  0  0  0  0  0  0  0  0  0  0  0
   -7.2054    2.2057   15.3085 C   0  0  1  0  0  0  0  0  0  0  0  0
   -6.8191    2.6304   16.5923 O   0  0  0  0  0  0  0  0  0  0  0  0
   -8.6727    1.7993   15.3280 C   0  0  2  0  0  0  0  0  0  0  0  0
   -7.5505    9.7823    7.9878 O   0  0  0  0  0  0  0  0  0  0  0  0
   -8.5422   -1.6749   11.3672 N   0  0  0  0  0  0  0  0  0  0  0  0
   -8.3710   -0.3060   11.3057 C   0  0  0  0  0  0  0  0  0  0  0  0
   -8.4394    0.4636   12.4517 N   0  0  0  0  0  0  0  0  0  0  0  0
   -8.6804   -0.1167   13.6513 C   0  0  0  0  0  0  0  0  0  0  0  0
   -8.8467   -1.4936   13.7338 C   0  0  0  0  0  0  0  0  0  0  0  0
   -8.7818   -2.2731   12.5853 C   0  0  0  0  0  0  0  0  0  0  0  0
   -8.9506   -3.5909   12.6633 N   0  0  0  0  0  0  0  0  0  0  0  0
   -9.0633   -1.8078   15.0292 N   0  0  0  0  0  0  0  0  0  0  0  0
   -9.0205   -0.6714   15.7636 C   0  0  0  0  0  0  0  0  0  0  0  0
   -8.7837    0.3869   14.9265 N   0  0  0  0  0  0  0  0  0  0  0  0
  2  1  1  6  0  0  0
  2  3  1  0  0  0  0
  2  5  1  0  0  0  0
  3  4  1  0  0  0  0
  3 17  1  0  0  0  0
  5  6  1  0  0  0  0
  7  6  1  6  0  0  0
  7  8  1  0  0  0  0
  7  9  1  0  0  0  0
 10  9  1  6  0  0  0
 10 11  1  0  0  0  0
 10 12  1  0  0  0  0
 11 16  1  0  0  0  0
 12 13  1  1  0  0  0
 12 14  1  0  0  0  0
 14 15  1  1  0  0  0
 14 16  1  0  0  0  0
 16 27  1  6  0  0  0
 18 19  2  0  0  0  0
 18 23  1  0  0  0  0
 19 20  1  0  0  0  0
 20 21  2  0  0  0  0
 21 22  1  0  0  0  0
 21 27  1  0  0  0  0
 22 23  2  0  0  0  0
 22 25  1  0  0  0  0
 23 24  1  0  0  0  0
 25 26  2  0  0  0  0
 26 27  1  0  0  0  0
M  END
>  <CHROM.1>
150.22902918,-56.23032991,176.20637505,-76.15314180,-164.71185776,178.59305305
36.88522961,-8.27519457,3.43324510,12.58851304,1.47332438,-1.30899777,-0.53045129

>  <Name>
ligand

>  <RI>
0

>  <Rbt.Current_Directory>
/home/itssahil/PROJECTS/Mol_Feturizer/New_Systems/rnas/3GX6

>  <Rbt.Executable>
rbdock ($Id: //depot/dev/client3/rdock/2013.1/src/exe/rbdock.cxx#4 $)

>  <Rbt.Library>
libRbt.so (2013.1, Build901 2013/11/27)

>  <Rbt.Parameter_File>
/export/apps/rDock/src/rDock_2013.1_src/data/scripts/dock_solv.prm

>  <Rbt.Receptor>
prm/blind_docking_20.prm

>  <SCORE>
-20.7965

>  <SCORE.INTER>
-10.5904

>  <SCORE.INTER.CONST>
1

>  <SCORE.INTER.POLAR>
0

>  <SCORE.INTER.ROT>
7

>  <SCORE.INTER.SOLV>
6.77238

>  <SCORE.INTER.VDW>
-17.5844

>  <SCORE.INTER.norm>
-0.392238

>  <SCORE.INTRA>
-10.2061

>  <SCORE.INTRA.DIHEDRAL>
-10.0389

>  <SCORE.INTRA.DIHEDRAL.0>
15.0182

>  <SCORE.INTRA.POLAR>
0

>  <SCORE.INTRA.POLAR.0>
0

>  <SCORE.INTRA.REPUL>
0

>  <SCORE.INTRA.REPUL.0>
0

>  <SCORE.INTRA.SOLV>
-0.774345

>  <SCORE.INTRA.SOLV.lig_0>
-47.9129

>  <SCORE.INTRA.VDW>
-4.79949

>  <SCORE.INTRA.VDW.0>
2.00851

>  <SCORE.INTRA.norm>
-0.378004

>  <SCORE.RESTR>
0

>  <SCORE.RESTR.CAVITY>
0

>  <SCORE.RESTR.norm>
0

>  <SCORE.SYSTEM>
0

>  <SCORE.SYSTEM.CONST>
0

>  <SCORE.SYSTEM.DIHEDRAL>
0

>  <SCORE.SYSTEM.SOLV>
0

>  <SCORE.SYSTEM.norm>
0

>  <SCORE.heavy>
27

>  <SCORE.norm>
-0.770242

>  <RMSD>
22.195

$$$$
ligand
 OpenBabel11021811483D
libRbt.so/2013.1/901 2013/11/27
 27 29  0  0  0  0  0  0  0  0999 V2000
   -9.1856    5.4094    8.2748 N   0  0  0  0  0  0  0  0  0  0  0  0
  -10.6223    5.1611    8.1893 C   0  0  2  0  0  0  0  0  0  0  0  0
  -11.4079    6.4452    7.9367 C   0  0  0  0  0  0  0  0  0  0  0  0
  -12.5035    6.4208    7.3716 O   0  0  0  0  0  0  0  0  0  0  0  0
  -11.1250    4.4379    9.4352 C   0  0  0  0  0  0  0  0  0  0  0  0
  -10.7706    5.1519   10.7304 C   0  0  0  0  0  0  0  0  0  0  0  0
  -11.3733    4.3133   12.2169 S   0  0  2  0  0  0  0  0  0  0  0  0
  -13.0721    4.9351   12.2785 C   0  0  0  0  0  0  0  0  0  0  0  0
  -10.5854    5.3043   13.5152 C   0  0  0  0  0  0  0  0  0  0  0  0
   -9.1634    4.8085   13.7353 C   0  0  1  0  0  0  0  0  0  0  0  0
   -9.2142    3.4316   14.0237 O   0  0  0  0  0  0  0  0  0  0  0  0
   -8.2373    4.9131   12.5380 C   0  0  1  0  0  0  0  0  0  0  0  0
   -7.4634    6.0903   12.6009 O   0  0  0  0  0  0  0  0  0  0  0  0
   -7.3464    3.6966   12.6877 C   0  0  1  0  0  0  0  0  0  0  0  0
   -6.0829    4.1227   13.1344 O   0  0  0  0  0  0  0  0  0  0  0  0
   -7.9864    2.8083   13.7459 C   0  0  2  0  0  0  0  0  0  0  0  0
  -10.9571    7.5350    8.2899 O   0  0  0  0  0  0  0  0  0  0  0  0
   -8.8088   -2.3171   14.6564 N   0  0  0  0  0  0  0  0  0  0  0  0
   -8.5828   -1.3137   15.5779 C   0  0  0  0  0  0  0  0  0  0  0  0
   -8.3819   -0.0105   15.1636 N   0  0  0  0  0  0  0  0  0  0  0  0
   -8.3996    0.2980   13.8451 C   0  0  0  0  0  0  0  0  0  0  0  0
   -8.6341   -0.6969   12.9040 C   0  0  0  0  0  0  0  0  0  0  0  0
   -8.8342   -2.0097   13.3133 C   0  0  0  0  0  0  0  0  0  0  0  0
   -9.0493   -2.9641   12.4112 N   0  0  0  0  0  0  0  0  0  0  0  0
   -8.6072   -0.1249   11.6810 N   0  0  0  0  0  0  0  0  0  0  0  0
   -8.3802    1.2016   11.8281 C   0  0  0  0  0  0  0  0  0  0  0  0
   -8.2494    1.4820   13.1626 N   0  0  0  0  0  0  0  0  0  0  0  0
  2  1  1  1  0  0  0
  2  3  1  0  0  0  0
  2  5  1  0  0  0  0
  3  4  1  0  0  0  0
  3 17  1  0  0  0  0
  5  6  1  0  0  0  0
  7  6  1  6  0  0  0
  7  8  1  0  0  0  0
  7  9  1  0  0  0  0
 10  9  1  6  0  0  0
 10 11  1  0  0  0  0
 10 12  1  0  0  0  0
 11 16  1  0  0  0  0
 12 13  1  1  0  0  0
 12 14  1  0  0  0  0
 14 15  1  1  0  0  0
 14 16  1  0  0  0  0
 16 27  1  6  0  0  0
 18 19  2  0  0  0  0
 18 23  1  0  0  0  0
 19 20  1  0  0  0  0
 20 21  2  0  0  0  0
 21 22  1  0  0  0  0
 21 27  1  0  0  0  0
 22 23  2  0  0  0  0
 22 25  1  0  0  0  0
 23 24  1  0  0  0  0
 25 26  2  0  0  0  0
 26 27  1  0  0  0  0
M  END
>  <CHROM.1>
153.60319416,54.31580686,179.48735872,-83.50367436,-83.52476790,-55.46122839
-89.68833545,-9.48960703,3.09761797,12.01235609,2.10150091,-0.93755018,-0.15284547

>  <Name>
ligand

>  <RI>
0

>  <Rbt.Current_Directory>
/home/itssahil/PROJECTS/Mol_Feturizer/New_Systems/rnas/3GX6

>  <Rbt.Executable>
rbdock ($Id: //depot/dev/client3/rdock/2013.1/src/exe/rbdock.cxx#4 $)

>  <Rbt.Library>
libRbt.so (2013.1, Build901 2013/11/27)

>  <Rbt.Parameter_File>
/export/apps/rDock/src/rDock_2013.1_src/data/scripts/dock_solv.prm

>  <Rbt.Receptor>
prm/blind_docking_20.prm

>  <SCORE>
-19.9746

>  <SCORE.INTER>
-10.4025

>  <SCORE.INTER.CONST>
1

>  <SCORE.INTER.POLAR>
0

>  <SCORE.INTER.ROT>
7

>  <SCORE.INTER.SOLV>
8.48025

>  <SCORE.INTER.VDW>
-18.0284

>  <SCORE.INTER.norm>
-0.385279

>  <SCORE.INTRA>
-9.57207

>  <SCORE.INTRA.DIHEDRAL>
-10.2706

>  <SCORE.INTRA.DIHEDRAL.0>
15.0182

>  <SCORE.INTRA.POLAR>
0

>  <SCORE.INTRA.POLAR.0>
0

>  <SCORE.INTRA.REPUL>
0

>  <SCORE.INTRA.REPUL.0>
0

>  <SCORE.INTRA.SOLV>
-0.689304

>  <SCORE.INTRA.SOLV.lig_0>
-47.9129

>  <SCORE.INTRA.VDW>
-4.09214

>  <SCORE.INTRA.VDW.0>
2.00851

>  <SCORE.INTRA.norm>
-0.354521

>  <SCORE.RESTR>
0

>  <SCORE.RESTR.CAVITY>
0

>  <SCORE.RESTR.norm>
0

>  <SCORE.SYSTEM>
0

>  <SCORE.SYSTEM.CONST>
0

>  <SCORE.SYSTEM.DIHEDRAL>
0

>  <SCORE.SYSTEM.SOLV>
0

>  <SCORE.SYSTEM.norm>
0

>  <SCORE.heavy>
27

>  <SCORE.norm>
-0.7398

>  <RMSD>
22.257

$$$$
ligand
 OpenBabel11021811483D
libRbt.so/2013.1/901 2013/11/27
 27 29  0  0  0  0  0  0  0  0999 V2000
   -8.9376   -3.2471   10.3812 N   0  0  0  0  0  0  0  0  0  0  0  0
   -7.8367   -3.0792   11.3261 C   0  0  2  0  0  0  0  0  0  0  0  0
   -7.3840   -4.4125   11.9154 C   0  0  0  0  0  0  0  0  0  0  0  0
   -6.2237   -4.5784   12.2982 O   0  0  0  0  0  0  0  0  0  0  0  0
   -8.2067   -2.0842   12.4220 C   0  0  0  0  0  0  0  0  0  0  0  0
   -8.3276   -0.6533   11.9208 C   0  0  0  0  0  0  0  0  0  0  0  0
   -8.7135    0.5469   13.2196 S   0  0  2  0  0  0  0  0  0  0  0  0
  -10.5149    0.3849   13.2912 C   0  0  0  0  0  0  0  0  0  0  0  0
   -8.5332    2.1066   12.3122 C   0  0  0  0  0  0  0  0  0  0  0  0
   -8.6920    3.2728   13.2772 C   0  0  1  0  0  0  0  0  0  0  0  0
   -8.2729    4.4476   12.6246 O   0  0  0  0  0  0  0  0  0  0  0  0
  -10.1115    3.5700   13.7225 C   0  0  1  0  0  0  0  0  0  0  0  0
  -10.3884    2.9604   14.9637 O   0  0  0  0  0  0  0  0  0  0  0  0
  -10.1145    5.0778   13.8717 C   0  0  1  0  0  0  0  0  0  0  0  0
  -10.0980    5.3893   15.2430 O   0  0  0  0  0  0  0  0  0  0  0  0
   -8.8368    5.5883   13.2194 C   0  0  2  0  0  0  0  0  0  0  0  0
   -8.1719   -5.3532   12.0150 O   0  0  0  0  0  0  0  0  0  0  0  0
   -8.0941    7.1113    8.2290 N   0  0  0  0  0  0  0  0  0  0  0  0
   -7.5085    6.0511    8.8923 C   0  0  0  0  0  0  0  0  0  0  0  0
   -7.8168    5.7918   10.2144 N   0  0  0  0  0  0  0  0  0  0  0  0
   -8.6958    6.5794   10.8784 C   0  0  0  0  0  0  0  0  0  0  0  0
   -9.3015    7.6455   10.2249 C   0  0  0  0  0  0  0  0  0  0  0  0
   -8.9941    7.9135    8.8965 C   0  0  0  0  0  0  0  0  0  0  0  0
   -9.5671    8.9405    8.2735 N   0  0  0  0  0  0  0  0  0  0  0  0
  -10.1287    8.2533   11.1023 N   0  0  0  0  0  0  0  0  0  0  0  0
  -10.0730    7.5899   12.2811 C   0  0  0  0  0  0  0  0  0  0  0  0
   -9.1904    6.5491   12.1609 N   0  0  0  0  0  0  0  0  0  0  0  0
  2  1  1  6  0  0  0
  2  3  1  0  0  0  0
  2  5  1  0  0  0  0
  3  4  1  0  0  0  0
  3 17  1  0  0  0  0
  5  6  1  0  0  0  0
  7  6  1  6  0  0  0
  7  8  1  0  0  0  0
  7  9  1  0  0  0  0
 10  9  1  6  0  0  0
 10 11  1  0  0  0  0
 10 12  1  0  0  0  0
 11 16  1  0  0  0  0
 12 13  1  1  0  0  0
 12 14  1  0  0  0  0
 14 15  1  1  0  0  0
 14 16  1  0  0  0  0
 16 27  1  6  0  0  0
 18 19  2  0  0  0  0
 18 23  1  0  0  0  0
 19 20  1  0  0  0  0
 20 21  2  0  0  0  0
 21 22  1  0  0  0  0
 21 27  1  0  0  0  0
 22 23  2  0  0  0  0
 22 25  1  0  0  0  0
 23 24  1  0  0  0  0
 25 26  2  0  0  0  0
 26 27  1  0  0  0  0
M  END
>  <CHROM.1>
152.08956940,-69.07539318,-178.12825598,-84.16796988,-174.66187584,167.71877930
-19.69101825,-8.83709652,2.79919364,11.95512067,-1.26057954,1.19546857,-0.42160893

>  <Name>
ligand

>  <RI>
0

>  <Rbt.Current_Directory>
/home/itssahil/PROJECTS/Mol_Feturizer/New_Systems/rnas/3GX6

>  <Rbt.Executable>
rbdock ($Id: //depot/dev/client3/rdock/2013.1/src/exe/rbdock.cxx#4 $)

>  <Rbt.Library>
libRbt.so (2013.1, Build901 2013/11/27)

>  <Rbt.Parameter_File>
/export/apps/rDock/src/rDock_2013.1_src/data/scripts/dock_solv.prm

>  <Rbt.Receptor>
prm/blind_docking_20.prm

>  <SCORE>
-18.7623

>  <SCORE.INTER>
-9.42767

>  <SCORE.INTER.CONST>
1

>  <SCORE.INTER.POLAR>
0

>  <SCORE.INTER.ROT>
7

>  <SCORE.INTER.SOLV>
10.6626

>  <SCORE.INTER.VDW>
-18.106

>  <SCORE.INTER.norm>
-0.349173

>  <SCORE.INTRA>
-9.33467

>  <SCORE.INTRA.DIHEDRAL>
-9.6998

>  <SCORE.INTRA.DIHEDRAL.0>
15.0182

>  <SCORE.INTRA.POLAR>
0

>  <SCORE.INTRA.POLAR.0>
0

>  <SCORE.INTRA.REPUL>
0

>  <SCORE.INTRA.REPUL.0>
0

>  <SCORE.INTRA.SOLV>
-0.892774

>  <SCORE.INTRA.SOLV.lig_0>
-47.9129

>  <SCORE.INTRA.VDW>
-4.03838

>  <SCORE.INTRA.VDW.0>
2.00851

>  <SCORE.INTRA.norm>
-0.345728

>  <SCORE.RESTR>
0

>  <SCORE.RESTR.CAVITY>
0

>  <SCORE.RESTR.norm>
0

>  <SCORE.SYSTEM>
0

>  <SCORE.SYSTEM.CONST>
0

>  <SCORE.SYSTEM.DIHEDRAL>
0

>  <SCORE.SYSTEM.SOLV>
0

>  <SCORE.SYSTEM.norm>
0

>  <SCORE.heavy>
27

>  <SCORE.norm>
-0.694901

>  <RMSD>
22.508

$$$$
ligand
 OpenBabel11021811483D
libRbt.so/2013.1/901 2013/11/27
 27 29  0  0  0  0  0  0  0  0999 V2000
   -6.1849    3.2940   14.6938 N   0  0  0  0  0  0  0  0  0  0  0  0
   -7.1822    3.3617   15.7585 C   0  0  2  0  0  0  0  0  0  0  0  0
   -6.6744    4.1468   16.9651 C   0  0  0  0  0  0  0  0  0  0  0  0
   -7.3505    5.0454   17.4706 O   0  0  0  0  0  0  0  0  0  0  0  0
   -7.6462    1.9647   16.1597 C   0  0  0  0  0  0  0  0  0  0  0  0
   -8.3298    1.2095   15.0303 C   0  0  0  0  0  0  0  0  0  0  0  0
  -10.0063    1.7899   14.6714 S   0  0  2  0  0  0  0  0  0  0  0  0
  -10.3620    0.8534   13.1638 C   0  0  0  0  0  0  0  0  0  0  0  0
   -9.6633    3.4366   13.9937 C   0  0  0  0  0  0  0  0  0  0  0  0
  -10.9778    4.1390   13.6855 C   0  0  1  0  0  0  0  0  0  0  0  0
  -10.6972    5.4781   13.3543 O   0  0  0  0  0  0  0  0  0  0  0  0
  -11.7458    3.6041   12.4914 C   0  0  1  0  0  0  0  0  0  0  0  0
  -12.7357    2.6861   12.8989 O   0  0  0  0  0  0  0  0  0  0  0  0
  -12.3944    4.8473   11.9172 C   0  0  1  0  0  0  0  0  0  0  0  0
  -13.7633    4.8238   12.2387 O   0  0  0  0  0  0  0  0  0  0  0  0
  -11.7343    6.0416   12.5928 C   0  0  2  0  0  0  0  0  0  0  0  0
   -5.5723    3.8991   17.4548 O   0  0  0  0  0  0  0  0  0  0  0  0
  -11.1513    6.9841    7.4405 N   0  0  0  0  0  0  0  0  0  0  0  0
  -11.8550    5.9613    8.0452 C   0  0  0  0  0  0  0  0  0  0  0  0
  -11.9033    5.8593    9.4226 N   0  0  0  0  0  0  0  0  0  0  0  0
  -11.2554    6.7609   10.1979 C   0  0  0  0  0  0  0  0  0  0  0  0
  -10.5493    7.8017    9.6074 C   0  0  0  0  0  0  0  0  0  0  0  0
  -10.4944    7.9088    8.2231 C   0  0  0  0  0  0  0  0  0  0  0  0
   -9.8101    8.9002    7.6575 N   0  0  0  0  0  0  0  0  0  0  0  0
  -10.0121    8.5504   10.5946 N   0  0  0  0  0  0  0  0  0  0  0  0
  -10.3745    8.0203   11.7864 C   0  0  0  0  0  0  0  0  0  0  0  0
  -11.1457    6.9109   11.5602 N   0  0  0  0  0  0  0  0  0  0  0  0
  2  1  1  6  0  0  0
  2  3  1  0  0  0  0
  2  5  1  0  0  0  0
  3  4  1  0  0  0  0
  3 17  1  0  0  0  0
  5  6  1  0  0  0  0
  7  6  1  6  0  0  0
  7  8  1  0  0  0  0
  7  9  1  0  0  0  0
 10  9  1  6  0  0  0
 10 11  1  0  0  0  0
 10 12  1  0  0  0  0
 11 16  1  0  0  0  0
 12 13  1  1  0  0  0
 12 14  1  0  0  0  0
 14 15  1  1  0  0  0
 14 16  1  0  0  0  0
 16 27  1  6  0  0  0
 18 19  2  0  0  0  0
 18 23  1  0  0  0  0
 19 20  1  0  0  0  0
 20 21  2  0  0  0  0
 21 22  1  0  0  0  0
 21 27  1  0  0  0  0
 22 23  2  0  0  0  0
 22 25  1  0  0  0  0
 23 24  1  0  0  0  0
 25 26  2  0  0  0  0
 26 27  1  0  0  0  0
M  END
>  <CHROM.1>
130.36497559,-62.29179702,-74.51464574,171.86831088,-177.12122398,171.25353159
118.30365174,-10.04164894,4.75208625,12.75687354,-1.06514771,-0.59878624
-0.69365817

>  <Name>
ligand

>  <RI>
0

>  <Rbt.Current_Directory>
/home/itssahil/PROJECTS/Mol_Feturizer/New_Systems/rnas/3GX6

>  <Rbt.Executable>
rbdock ($Id: //depot/dev/client3/rdock/2013.1/src/exe/rbdock.cxx#4 $)

>  <Rbt.Library>
libRbt.so (2013.1, Build901 2013/11/27)

>  <Rbt.Parameter_File>
/export/apps/rDock/src/rDock_2013.1_src/data/scripts/dock_solv.prm

>  <Rbt.Receptor>
prm/blind_docking_20.prm

>  <SCORE>
-19.5941

>  <SCORE.INTER>
-11.6519

>  <SCORE.INTER.CONST>
1

>  <SCORE.INTER.POLAR>
0

>  <SCORE.INTER.ROT>
7

>  <SCORE.INTER.SOLV>
10.0819

>  <SCORE.INTER.VDW>
-19.3952

>  <SCORE.INTER.norm>
-0.43155

>  <SCORE.INTRA>
-7.96024

>  <SCORE.INTRA.DIHEDRAL>
-10.4096

>  <SCORE.INTRA.DIHEDRAL.0>
15.0182

>  <SCORE.INTRA.POLAR>
0

>  <SCORE.INTRA.POLAR.0>
0

>  <SCORE.INTRA.REPUL>
0

>  <SCORE.INTRA.REPUL.0>
0

>  <SCORE.INTRA.SOLV>
0.461745

>  <SCORE.INTRA.SOLV.lig_0>
-47.9129

>  <SCORE.INTRA.VDW>
-2.98633

>  <SCORE.INTRA.VDW.0>
2.00851

>  <SCORE.INTRA.norm>
-0.294824

>  <SCORE.RESTR>
0.01802

>  <SCORE.RESTR.CAVITY>
0.01802

>  <SCORE.RESTR.norm>
0.000667409

>  <SCORE.SYSTEM>
0

>  <SCORE.SYSTEM.CONST>
0

>  <SCORE.SYSTEM.DIHEDRAL>
0

>  <SCORE.SYSTEM.SOLV>
0

>  <SCORE.SYSTEM.norm>
0

>  <SCORE.heavy>
27

>  <SCORE.norm>
-0.725707

>  <RMSD>
22.544

$$$$
ligand
 OpenBabel11021811483D
libRbt.so/2013.1/901 2013/11/27
 27 29  0  0  0  0  0  0  0  0999 V2000
  -10.0607    7.6690    7.0458 N   0  0  0  0  0  0  0  0  0  0  0  0
   -9.3269    7.4836    8.2948 C   0  0  2  0  0  0  0  0  0  0  0  0
   -8.8229    8.8085    8.8610 C   0  0  0  0  0  0  0  0  0  0  0  0
   -9.3718    9.3367    9.8305 O   0  0  0  0  0  0  0  0  0  0  0  0
   -8.1861    6.4868    8.1134 C   0  0  0  0  0  0  0  0  0  0  0  0
   -7.4611    6.1585    9.4094 C   0  0  0  0  0  0  0  0  0  0  0  0
   -8.4505    5.1920   10.5769 S   0  0  2  0  0  0  0  0  0  0  0  0
   -9.2677    6.5216   11.4939 C   0  0  0  0  0  0  0  0  0  0  0  0
   -7.1784    4.6742   11.7609 C   0  0  0  0  0  0  0  0  0  0  0  0
   -7.8389    3.9580   12.9301 C   0  0  1  0  0  0  0  0  0  0  0  0
   -8.5097    2.8245   12.4332 O   0  0  0  0  0  0  0  0  0  0  0  0
   -6.8954    3.4106   13.9846 C   0  0  1  0  0  0  0  0  0  0  0  0
   -6.7672    4.3108   15.0624 O   0  0  0  0  0  0  0  0  0  0  0  0
   -7.5924    2.1459   14.4436 C   0  0  1  0  0  0  0  0  0  0  0  0
   -8.1524    2.3818   15.7119 O   0  0  0  0  0  0  0  0  0  0  0  0
   -8.7042    1.8661   13.4415 C   0  0  2  0  0  0  0  0  0  0  0  0
   -7.8571    9.3794    8.3540 O   0  0  0  0  0  0  0  0  0  0  0  0
   -8.2759   -3.3040   14.3696 N   0  0  0  0  0  0  0  0  0  0  0  0
   -8.4821   -2.2888   15.2827 C   0  0  0  0  0  0  0  0  0  0  0  0
   -8.5681   -0.9740   14.8652 N   0  0  0  0  0  0  0  0  0  0  0  0
   -8.4463   -0.6644   13.5525 C   0  0  0  0  0  0  0  0  0  0  0  0
   -8.2471   -1.6734   12.6183 C   0  0  0  0  0  0  0  0  0  0  0  0
   -8.1569   -2.9971   13.0314 C   0  0  0  0  0  0  0  0  0  0  0  0
   -7.9566   -3.9625   12.1375 N   0  0  0  0  0  0  0  0  0  0  0  0
   -8.1688   -1.0992   11.3986 N   0  0  0  0  0  0  0  0  0  0  0  0
   -8.3303    0.2377   11.5380 C   0  0  0  0  0  0  0  0  0  0  0  0
   -8.5040    0.5255   12.8660 N   0  0  0  0  0  0  0  0  0  0  0  0
  2  1  1  6  0  0  0
  2  3  1  0  0  0  0
  2  5  1  0  0  0  0
  3  4  1  0  0  0  0
  3 17  1  0  0  0  0
  5  6  1  0  0  0  0
  7  6  1  6  0  0  0
  7  8  1  0  0  0  0
  7  9  1  0  0  0  0
 10  9  1  6  0  0  0
 10 11  1  0  0  0  0
 10 12  1  0  0  0  0
 11 16  1  0  0  0  0
 12 13  1  1  0  0  0
 12 14  1  0  0  0  0
 14 15  1  1  0  0  0
 14 16  1  0  0  0  0
 16 27  1  6  0  0  0
 18 19  2  0  0  0  0
 18 23  1  0  0  0  0
 19 20  1  0  0  0  0
 20 21  2  0  0  0  0
 21 22  1  0  0  0  0
 21 27  1  0  0  0  0
 22 23  2  0  0  0  0
 22 25  1  0  0  0  0
 23 24  1  0  0  0  0
 25 26  2  0  0  0  0
 26 27  1  0  0  0  0
M  END
>  <CHROM.1>
104.71308505,-174.90325402,69.30895353,-89.02144348,173.91382229,60.63952639
171.64244388,-8.28581960,3.08883106,11.89579157,1.82129595,-1.37383306,-0.21521760

>  <Name>
ligand

>  <RI>
0

>  <Rbt.Current_Directory>
/home/itssahil/PROJECTS/Mol_Feturizer/New_Systems/rnas/3GX6

>  <Rbt.Executable>
rbdock ($Id: //depot/dev/client3/rdock/2013.1/src/exe/rbdock.cxx#4 $)

>  <Rbt.Library>
libRbt.so (2013.1, Build901 2013/11/27)

>  <Rbt.Parameter_File>
/export/apps/rDock/src/rDock_2013.1_src/data/scripts/dock_solv.prm

>  <Rbt.Receptor>
prm/blind_docking_20.prm

>  <SCORE>
-21.7581

>  <SCORE.INTER>
-11.4449

>  <SCORE.INTER.CONST>
1

>  <SCORE.INTER.POLAR>
0

>  <SCORE.INTER.ROT>
7

>  <SCORE.INTER.SOLV>
8.06854

>  <SCORE.INTER.VDW>
-18.5861

>  <SCORE.INTER.norm>
-0.423884

>  <SCORE.INTRA>
-10.3147

>  <SCORE.INTRA.DIHEDRAL>
-10.2183

>  <SCORE.INTRA.DIHEDRAL.0>
15.0182

>  <SCORE.INTRA.POLAR>
0

>  <SCORE.INTRA.POLAR.0>
0

>  <SCORE.INTRA.REPUL>
0

>  <SCORE.INTRA.REPUL.0>
0

>  <SCORE.INTRA.SOLV>
-1.61906

>  <SCORE.INTRA.SOLV.lig_0>
-47.9129

>  <SCORE.INTRA.VDW>
-4.396

>  <SCORE.INTRA.VDW.0>
2.00851

>  <SCORE.INTRA.norm>
-0.382025

>  <SCORE.RESTR>
0.00140659

>  <SCORE.RESTR.CAVITY>
0.00140659

>  <SCORE.RESTR.norm>
5.20959e-05

>  <SCORE.SYSTEM>
0

>  <SCORE.SYSTEM.CONST>
0

>  <SCORE.SYSTEM.DIHEDRAL>
0

>  <SCORE.SYSTEM.SOLV>
0

>  <SCORE.SYSTEM.norm>
0

>  <SCORE.heavy>
27

>  <SCORE.norm>
-0.805857

>  <RMSD>
22.658

$$$$
ligand
 OpenBabel11021811483D
libRbt.so/2013.1/901 2013/11/27
 27 29  0  0  0  0  0  0  0  0999 V2000
   -7.4827   -6.1679   12.1854 N   0  0  0  0  0  0  0  0  0  0  0  0
   -7.4003   -4.8714   11.5181 C   0  0  2  0  0  0  0  0  0  0  0  0
   -5.9904   -4.5810   11.0104 C   0  0  0  0  0  0  0  0  0  0  0  0
   -5.8030   -4.1039    9.8890 O   0  0  0  0  0  0  0  0  0  0  0  0
   -7.9031   -3.7565   12.4304 C   0  0  0  0  0  0  0  0  0  0  0  0
   -7.9306   -2.3932   11.7567 C   0  0  0  0  0  0  0  0  0  0  0  0
   -8.5047   -1.0563   12.8334 S   0  0  2  0  0  0  0  0  0  0  0  0
  -10.2962   -1.2881   12.7175 C   0  0  0  0  0  0  0  0  0  0  0  0
   -8.2626    0.3821   11.7560 C   0  0  0  0  0  0  0  0  0  0  0  0
   -8.3725    1.6555   12.5823 C   0  0  1  0  0  0  0  0  0  0  0  0
   -7.5369    2.6308   12.0059 O   0  0  0  0  0  0  0  0  0  0  0  0
   -9.7448    2.3015   12.6165 C   0  0  1  0  0  0  0  0  0  0  0  0
  -10.4579    1.9094   13.7682 O   0  0  0  0  0  0  0  0  0  0  0  0
   -9.4247    3.7811   12.6818 C   0  0  1  0  0  0  0  0  0  0  0  0
   -9.6748    4.2330   13.9898 O   0  0  0  0  0  0  0  0  0  0  0  0
   -7.9415    3.9259   12.3691 C   0  0  2  0  0  0  0  0  0  0  0  0
   -5.0091   -4.8240   11.7131 O   0  0  0  0  0  0  0  0  0  0  0  0
   -9.7660    5.3561    7.6362 N   0  0  0  0  0  0  0  0  0  0  0  0
  -10.2585    4.3800    8.4797 C   0  0  0  0  0  0  0  0  0  0  0  0
   -9.6519    4.1300    9.6961 N   0  0  0  0  0  0  0  0  0  0  0  0
   -8.5613    4.8382   10.0744 C   0  0  0  0  0  0  0  0  0  0  0  0
   -8.0567    5.8302    9.2425 C   0  0  0  0  0  0  0  0  0  0  0  0
   -8.6601    6.0849    8.0170 C   0  0  0  0  0  0  0  0  0  0  0  0
   -8.1709    7.0285    7.2162 N   0  0  0  0  0  0  0  0  0  0  0  0
   -6.9858    6.3793    9.8550 N   0  0  0  0  0  0  0  0  0  0  0  0
   -6.8143    5.7734   11.0534 C   0  0  0  0  0  0  0  0  0  0  0  0
   -7.7819    4.8158   11.2068 N   0  0  0  0  0  0  0  0  0  0  0  0
  2  1  1  1  0  0  0
  2  3  1  0  0  0  0
  2  5  1  0  0  0  0
  3  4  1  0  0  0  0
  3 17  1  0  0  0  0
  5  6  1  0  0  0  0
  7  6  1  6  0  0  0
  7  8  1  0  0  0  0
  7  9  1  0  0  0  0
 10  9  1  6  0  0  0
 10 11  1  0  0  0  0
 10 12  1  0  0  0  0
 11 16  1  0  0  0  0
 12 13  1  1  0  0  0
 12 14  1  0  0  0  0
 14 15  1  1  0  0  0
 14 16  1  0  0  0  0
 16 27  1  6  0  0  0
 18 19  2  0  0  0  0
 18 23  1  0  0  0  0
 19 20  1  0  0  0  0
 20 21  2  0  0  0  0
 21 22  1  0  0  0  0
 21 27  1  0  0  0  0
 22 23  2  0  0  0  0
 22 25  1  0  0  0  0
 23 24  1  0  0  0  0
 25 26  2  0  0  0  0
 26 27  1  0  0  0  0
M  END
>  <CHROM.1>
136.35941008,-176.07441138,-179.25272532,-80.92751453,-166.53857870,149.02126021
72.56397954,-8.24378254,1.33642885,11.26479399,-1.26667577,1.04944589,-0.47847687

>  <Name>
ligand

>  <RI>
0

>  <Rbt.Current_Directory>
/home/itssahil/PROJECTS/Mol_Feturizer/New_Systems/rnas/3GX6

>  <Rbt.Executable>
rbdock ($Id: //depot/dev/client3/rdock/2013.1/src/exe/rbdock.cxx#4 $)

>  <Rbt.Library>
libRbt.so (2013.1, Build901 2013/11/27)

>  <Rbt.Parameter_File>
/export/apps/rDock/src/rDock_2013.1_src/data/scripts/dock_solv.prm

>  <Rbt.Receptor>
prm/blind_docking_20.prm

>  <SCORE>
-21.3598

>  <SCORE.INTER>
-12.2283

>  <SCORE.INTER.CONST>
1

>  <SCORE.INTER.POLAR>
0

>  <SCORE.INTER.ROT>
7

>  <SCORE.INTER.SOLV>
12.7038

>  <SCORE.INTER.VDW>
-20.6534

>  <SCORE.INTER.norm>
-0.452898

>  <SCORE.INTRA>
-9.13157

>  <SCORE.INTRA.DIHEDRAL>
-7.2967

>  <SCORE.INTRA.DIHEDRAL.0>
15.0182

>  <SCORE.INTRA.POLAR>
0

>  <SCORE.INTRA.POLAR.0>
0

>  <SCORE.INTRA.REPUL>
0

>  <SCORE.INTRA.REPUL.0>
0

>  <SCORE.INTRA.SOLV>
-1.62803

>  <SCORE.INTRA.SOLV.lig_0>
-47.9129

>  <SCORE.INTRA.VDW>
-4.66921

>  <SCORE.INTRA.VDW.0>
2.00851

>  <SCORE.INTRA.norm>
-0.338206

>  <SCORE.RESTR>
0

>  <SCORE.RESTR.CAVITY>
0

>  <SCORE.RESTR.norm>
0

>  <SCORE.SYSTEM>
0

>  <SCORE.SYSTEM.CONST>
0

>  <SCORE.SYSTEM.DIHEDRAL>
0

>  <SCORE.SYSTEM.SOLV>
0

>  <SCORE.SYSTEM.norm>
0

>  <SCORE.heavy>
27

>  <SCORE.norm>
-0.791105

>  <RMSD>
22.704

$$$$
ligand
 OpenBabel11021811483D
libRbt.so/2013.1/901 2013/11/27
 27 29  0  0  0  0  0  0  0  0999 V2000
   -8.3284   -2.4456    9.8151 N   0  0  0  0  0  0  0  0  0  0  0  0
   -8.4001   -1.9311   11.1800 C   0  0  2  0  0  0  0  0  0  0  0  0
   -8.2317   -3.0396   12.2158 C   0  0  0  0  0  0  0  0  0  0  0  0
   -7.1723   -3.1815   12.8305 O   0  0  0  0  0  0  0  0  0  0  0  0
   -9.6947   -1.1549   11.4021 C   0  0  0  0  0  0  0  0  0  0  0  0
   -9.7980   -0.5399   12.7893 C   0  0  0  0  0  0  0  0  0  0  0  0
   -8.6440    0.8256   13.0723 S   0  0  2  0  0  0  0  0  0  0  0  0
   -8.6752    0.9122   14.8800 C   0  0  0  0  0  0  0  0  0  0  0  0
   -9.6784    2.2482   12.6309 C   0  0  0  0  0  0  0  0  0  0  0  0
   -9.1191    3.5017   13.2882 C   0  0  1  0  0  0  0  0  0  0  0  0
   -8.6326    4.3522   12.2774 O   0  0  0  0  0  0  0  0  0  0  0  0
  -10.1215    4.3490   14.0492 C   0  0  1  0  0  0  0  0  0  0  0  0
  -10.0996    4.0412   15.4253 O   0  0  0  0  0  0  0  0  0  0  0  0
   -9.6173    5.7600   13.8241 C   0  0  1  0  0  0  0  0  0  0  0  0
   -9.0129    6.2113   15.0110 O   0  0  0  0  0  0  0  0  0  0  0  0
   -8.5724    5.6843   12.7190 C   0  0  2  0  0  0  0  0  0  0  0  0
   -9.1539   -3.8197   12.4539 O   0  0  0  0  0  0  0  0  0  0  0  0
   -8.1967    6.7582    7.5731 N   0  0  0  0  0  0  0  0  0  0  0  0
   -7.5956    5.7323    8.2753 C   0  0  0  0  0  0  0  0  0  0  0  0
   -7.8011    5.5960    9.6353 N   0  0  0  0  0  0  0  0  0  0  0  0
   -8.5929    6.4723   10.2980 C   0  0  0  0  0  0  0  0  0  0  0  0
   -9.2128    7.5057    9.6066 C   0  0  0  0  0  0  0  0  0  0  0  0
   -9.0084    7.6501    8.2397 C   0  0  0  0  0  0  0  0  0  0  0  0
   -9.5947    8.6458    7.5793 N   0  0  0  0  0  0  0  0  0  0  0  0
   -9.9415    8.2183   10.4925 N   0  0  0  0  0  0  0  0  0  0  0  0
   -9.8109    7.6525   11.7154 C   0  0  0  0  0  0  0  0  0  0  0  0
   -8.9790    6.5687   11.6141 N   0  0  0  0  0  0  0  0  0  0  0  0
  2  1  1  6  0  0  0
  2  3  1  0  0  0  0
  2  5  1  0  0  0  0
  3  4  1  0  0  0  0
  3 17  1  0  0  0  0
  5  6  1  0  0  0  0
  7  6  1  1  0  0  0
  7  8  1  0  0  0  0
  7  9  1  0  0  0  0
 10  9  1  6  0  0  0
 10 11  1  0  0  0  0
 10 12  1  0  0  0  0
 11 16  1  0  0  0  0
 12 13  1  1  0  0  0
 12 14  1  0  0  0  0
 14 15  1  1  0  0  0
 14 16  1  0  0  0  0
 16 27  1  6  0  0  0
 18 19  2  0  0  0  0
 18 23  1  0  0  0  0
 19 20  1  0  0  0  0
 20 21  2  0  0  0  0
 21 22  1  0  0  0  0
 21 27  1  0  0  0  0
 22 23  2  0  0  0  0
 22 25  1  0  0  0  0
 23 24  1  0  0  0  0
 25 26  2  0  0  0  0
 26 27  1  0  0  0  0
M  END
>  <CHROM.1>
103.87798709,-177.38517320,69.46334741,-162.56098837,158.22420731,112.81972832
-43.73360511,-8.93670254,3.19357374,11.81805659,-1.31871461,1.38646140,-0.49072153

>  <Name>
ligand

>  <RI>
0

>  <Rbt.Current_Directory>
/home/itssahil/PROJECTS/Mol_Feturizer/New_Systems/rnas/3GX6

>  <Rbt.Executable>
rbdock ($Id: //depot/dev/client3/rdock/2013.1/src/exe/rbdock.cxx#4 $)

>  <Rbt.Library>
libRbt.so (2013.1, Build901 2013/11/27)

>  <Rbt.Parameter_File>
/export/apps/rDock/src/rDock_2013.1_src/data/scripts/dock_solv.prm

>  <Rbt.Receptor>
prm/blind_docking_20.prm

>  <SCORE>
-13.7571

>  <SCORE.INTER>
-7.1736

>  <SCORE.INTER.CONST>
1

>  <SCORE.INTER.POLAR>
0

>  <SCORE.INTER.ROT>
7

>  <SCORE.INTER.SOLV>
10.5047

>  <SCORE.INTER.VDW>
-16.5506

>  <SCORE.INTER.norm>
-0.265689

>  <SCORE.INTRA>
-6.5835

>  <SCORE.INTRA.DIHEDRAL>
-4.2514

>  <SCORE.INTRA.DIHEDRAL.0>
15.0182

>  <SCORE.INTRA.POLAR>
0

>  <SCORE.INTRA.POLAR.0>
0

>  <SCORE.INTRA.REPUL>
0

>  <SCORE.INTRA.REPUL.0>
0

>  <SCORE.INTRA.SOLV>
-1.62299

>  <SCORE.INTRA.SOLV.lig_0>
-47.9129

>  <SCORE.INTRA.VDW>
-3.64631

>  <SCORE.INTRA.VDW.0>
2.00851

>  <SCORE.INTRA.norm>
-0.243833

>  <SCORE.RESTR>
0

>  <SCORE.RESTR.CAVITY>
0

>  <SCORE.RESTR.norm>
0

>  <SCORE.SYSTEM>
0

>  <SCORE.SYSTEM.CONST>
0

>  <SCORE.SYSTEM.DIHEDRAL>
0

>  <SCORE.SYSTEM.SOLV>
0

>  <SCORE.SYSTEM.norm>
0

>  <SCORE.heavy>
27

>  <SCORE.norm>
-0.509522

>  <RMSD>
22.746

$$$$
ligand
 OpenBabel11021811483D
libRbt.so/2013.1/901 2013/11/27
 27 29  0  0  0  0  0  0  0  0999 V2000
  -12.6934    3.7362    7.0666 N   0  0  0  0  0  0  0  0  0  0  0  0
  -11.2879    3.4637    7.3553 C   0  0  2  0  0  0  0  0  0  0  0  0
  -10.8625    2.0835    6.8613 C   0  0  0  0  0  0  0  0  0  0  0  0
   -9.6711    1.7801    6.7670 O   0  0  0  0  0  0  0  0  0  0  0  0
  -10.9940    3.6366    8.8425 C   0  0  0  0  0  0  0  0  0  0  0  0
  -11.0752    5.0820    9.3086 C   0  0  0  0  0  0  0  0  0  0  0  0
  -10.3929    5.3571   10.9624 S   0  0  2  0  0  0  0  0  0  0  0  0
  -10.3415    7.1661   10.9993 C   0  0  0  0  0  0  0  0  0  0  0  0
   -8.6458    4.9580   10.6853 C   0  0  0  0  0  0  0  0  0  0  0  0
   -7.9378    4.8340   12.0268 C   0  0  1  0  0  0  0  0  0  0  0  0
   -8.6015    3.8541   12.7889 O   0  0  0  0  0  0  0  0  0  0  0  0
   -6.4973    4.3610   11.9695 C   0  0  1  0  0  0  0  0  0  0  0  0
   -5.6066    5.4540   11.9960 O   0  0  0  0  0  0  0  0  0  0  0  0
   -6.3552    3.5436   13.2374 C   0  0  1  0  0  0  0  0  0  0  0  0
   -5.6023    4.2870   14.1639 O   0  0  0  0  0  0  0  0  0  0  0  0
   -7.7603    3.3265   13.7824 C   0  0  2  0  0  0  0  0  0  0  0  0
  -11.7056    1.2454    6.5413 O   0  0  0  0  0  0  0  0  0  0  0  0
   -9.2131   -1.0983   11.3156 N   0  0  0  0  0  0  0  0  0  0  0  0
   -9.0943    0.1719   10.7871 C   0  0  0  0  0  0  0  0  0  0  0  0
   -8.6998    1.2308   11.5830 N   0  0  0  0  0  0  0  0  0  0  0  0
   -8.4288    1.0355   12.8954 C   0  0  0  0  0  0  0  0  0  0  0  0
   -8.5346   -0.2372   13.4427 C   0  0  0  0  0  0  0  0  0  0  0  0
   -8.9333   -1.3058   12.6489 C   0  0  0  0  0  0  0  0  0  0  0  0
   -9.0438   -2.5229   13.1755 N   0  0  0  0  0  0  0  0  0  0  0  0
   -8.2049   -0.1548   14.7496 N   0  0  0  0  0  0  0  0  0  0  0  0
   -7.8789    1.1279   15.0341 C   0  0  0  0  0  0  0  0  0  0  0  0
   -8.0113    1.8800   13.8968 N   0  0  0  0  0  0  0  0  0  0  0  0
  2  1  1  1  0  0  0
  2  3  1  0  0  0  0
  2  5  1  0  0  0  0
  3  4  1  0  0  0  0
  3 17  1  0  0  0  0
  5  6  1  0  0  0  0
  7  6  1  6  0  0  0
  7  8  1  0  0  0  0
  7  9  1  0  0  0  0
 10  9  1  6  0  0  0
 10 11  1  0  0  0  0
 10 12  1  0  0  0  0
 11 16  1  0  0  0  0
 12 13  1  1  0  0  0
 12 14  1  0  0  0  0
 14 15  1  1  0  0  0
 14 16  1  0  0  0  0
 16 27  1  6  0  0  0
 18 19  2  0  0  0  0
 18 23  1  0  0  0  0
 19 20  1  0  0  0  0
 20 21  2  0  0  0  0
 21 22  1  0  0  0  0
 21 27  1  0  0  0  0
 22 23  2  0  0  0  0
 22 25  1  0  0  0  0
 23 24  1  0  0  0  0
 25 26  2  0  0  0  0
 26 27  1  0  0  0  0
M  END
>  <CHROM.1>
165.16699421,-68.84772900,-167.61037809,168.45066372,-167.79391938,56.97719871
29.68839528,-9.02986564,2.73853258,11.22937610,2.69175141,-0.97186339,-0.20560683

>  <Name>
ligand

>  <RI>
0

>  <Rbt.Current_Directory>
/home/itssahil/PROJECTS/Mol_Feturizer/New_Systems/rnas/3GX6

>  <Rbt.Executable>
rbdock ($Id: //depot/dev/client3/rdock/2013.1/src/exe/rbdock.cxx#4 $)

>  <Rbt.Library>
libRbt.so (2013.1, Build901 2013/11/27)

>  <Rbt.Parameter_File>
/export/apps/rDock/src/rDock_2013.1_src/data/scripts/dock_solv.prm

>  <Rbt.Receptor>
prm/blind_docking_100.prm

>  <SCORE>
-20.1876

>  <SCORE.INTER>
-9.79999

>  <SCORE.INTER.CONST>
1

>  <SCORE.INTER.POLAR>
0

>  <SCORE.INTER.ROT>
7

>  <SCORE.INTER.SOLV>
10.945

>  <SCORE.INTER.VDW>
-18.4483

>  <SCORE.INTER.norm>
-0.362963

>  <SCORE.INTRA>
-10.3923

>  <SCORE.INTRA.DIHEDRAL>
-9.70939

>  <SCORE.INTRA.DIHEDRAL.0>
15.0182

>  <SCORE.INTRA.POLAR>
0

>  <SCORE.INTRA.POLAR.0>
0

>  <SCORE.INTRA.REPUL>
0

>  <SCORE.INTRA.REPUL.0>
0

>  <SCORE.INTRA.SOLV>
-1.16625

>  <SCORE.INTRA.SOLV.lig_0>
-47.9129

>  <SCORE.INTRA.VDW>
-4.95449

>  <SCORE.INTRA.VDW.0>
2.00851

>  <SCORE.INTRA.norm>
-0.3849

>  <SCORE.RESTR>
0.00469564

>  <SCORE.RESTR.CAVITY>
0.00469564

>  <SCORE.RESTR.norm>
0.000173912

>  <SCORE.SYSTEM>
0

>  <SCORE.SYSTEM.CONST>
0

>  <SCORE.SYSTEM.DIHEDRAL>
0

>  <SCORE.SYSTEM.SOLV>
0

>  <SCORE.SYSTEM.norm>
0

>  <SCORE.heavy>
27

>  <SCORE.norm>
-0.747689

>  <RMSD>
22.761

$$$$
ligand
 OpenBabel11021811483D
libRbt.so/2013.1/901 2013/11/27
 27 29  0  0  0  0  0  0  0  0999 V2000
  -12.7993    5.1803    6.0775 N   0  0  0  0  0  0  0  0  0  0  0  0
  -11.5878    4.9697    6.8654 C   0  0  2  0  0  0  0  0  0  0  0  0
  -11.7961    3.9294    7.9628 C   0  0  0  0  0  0  0  0  0  0  0  0
  -11.0093    2.9913    8.1087 O   0  0  0  0  0  0  0  0  0  0  0  0
  -11.0752    6.2874    7.4388 C   0  0  0  0  0  0  0  0  0  0  0  0
   -9.7551    6.1483    8.1812 C   0  0  0  0  0  0  0  0  0  0  0  0
   -9.9215    5.4625    9.8480 S   0  0  2  0  0  0  0  0  0  0  0  0
  -10.2876    6.9664   10.7865 C   0  0  0  0  0  0  0  0  0  0  0  0
   -8.1826    5.1873   10.2828 C   0  0  0  0  0  0  0  0  0  0  0  0
   -8.0866    4.7831   11.7469 C   0  0  1  0  0  0  0  0  0  0  0  0
   -8.8277    3.6002   11.9292 O   0  0  0  0  0  0  0  0  0  0  0  0
   -6.6950    4.4415   12.2454 C   0  0  1  0  0  0  0  0  0  0  0  0
   -6.0985    5.5530   12.8757 O   0  0  0  0  0  0  0  0  0  0  0  0
   -6.9545    3.3461   13.2597 C   0  0  1  0  0  0  0  0  0  0  0  0
   -6.7950    3.8861   14.5484 O   0  0  0  0  0  0  0  0  0  0  0  0
   -8.3986    2.9021   13.0700 C   0  0  2  0  0  0  0  0  0  0  0  0
  -12.7614    4.0055    8.7230 O   0  0  0  0  0  0  0  0  0  0  0  0
   -8.9739   -1.9691   14.9977 N   0  0  0  0  0  0  0  0  0  0  0  0
   -9.0327   -0.7702   15.6805 C   0  0  0  0  0  0  0  0  0  0  0  0
   -8.8554    0.4279   15.0147 N   0  0  0  0  0  0  0  0  0  0  0  0
   -8.6165    0.4402   13.6818 C   0  0  0  0  0  0  0  0  0  0  0  0
   -8.5624   -0.7557   12.9766 C   0  0  0  0  0  0  0  0  0  0  0  0
   -8.7371   -1.9640   13.6402 C   0  0  0  0  0  0  0  0  0  0  0  0
   -8.6757   -3.1099   12.9662 N   0  0  0  0  0  0  0  0  0  0  0  0
   -8.3219   -0.4620   11.6806 N   0  0  0  0  0  0  0  0  0  0  0  0
   -8.2410    0.8830   11.5491 C   0  0  0  0  0  0  0  0  0  0  0  0
   -8.4215    1.4587   12.7790 N   0  0  0  0  0  0  0  0  0  0  0  0
  2  1  1  1  0  0  0
  2  3  1  0  0  0  0
  2  5  1  0  0  0  0
  3  4  1  0  0  0  0
  3 17  1  0  0  0  0
  5  6  1  0  0  0  0
  7  6  1  6  0  0  0
  7  8  1  0  0  0  0
  7  9  1  0  0  0  0
 10  9  1  6  0  0  0
 10 11  1  0  0  0  0
 10 12  1  0  0  0  0
 11 16  1  0  0  0  0
 12 13  1  1  0  0  0
 12 14  1  0  0  0  0
 14 15  1  1  0  0  0
 14 16  1  0  0  0  0
 16 27  1  6  0  0  0
 18 19  2  0  0  0  0
 18 23  1  0  0  0  0
 19 20  1  0  0  0  0
 20 21  2  0  0  0  0
 21 22  1  0  0  0  0
 21 27  1  0  0  0  0
 22 23  2  0  0  0  0
 22 25  1  0  0  0  0
 23 24  1  0  0  0  0
 25 26  2  0  0  0  0
 26 27  1  0  0  0  0
M  END
>  <CHROM.1>
129.96008415,-175.57730502,-78.16793749,-85.42699430,172.20352341,59.79948392
-151.33552075,-9.21225235,2.96205625,11.32534738,2.05881191,-0.84772339,-0.40655747

>  <Name>
ligand

>  <RI>
0

>  <Rbt.Current_Directory>
/home/itssahil/PROJECTS/Mol_Feturizer/New_Systems/rnas/3GX6

>  <Rbt.Executable>
rbdock ($Id: //depot/dev/client3/rdock/2013.1/src/exe/rbdock.cxx#4 $)

>  <Rbt.Library>
libRbt.so (2013.1, Build901 2013/11/27)

>  <Rbt.Parameter_File>
/export/apps/rDock/src/rDock_2013.1_src/data/scripts/dock_solv.prm

>  <Rbt.Receptor>
prm/blind_docking_20.prm

>  <SCORE>
-19.3757

>  <SCORE.INTER>
-8.82395

>  <SCORE.INTER.CONST>
1

>  <SCORE.INTER.POLAR>
0

>  <SCORE.INTER.ROT>
7

>  <SCORE.INTER.SOLV>
9.71296

>  <SCORE.INTER.VDW>
-17.387

>  <SCORE.INTER.norm>
-0.326813

>  <SCORE.INTRA>
-10.5517

>  <SCORE.INTRA.DIHEDRAL>
-9.77801

>  <SCORE.INTRA.DIHEDRAL.0>
15.0182

>  <SCORE.INTRA.POLAR>
0

>  <SCORE.INTRA.POLAR.0>
0

>  <SCORE.INTRA.REPUL>
0

>  <SCORE.INTRA.REPUL.0>
0

>  <SCORE.INTRA.SOLV>
-1.71871

>  <SCORE.INTRA.SOLV.lig_0>
-47.9129

>  <SCORE.INTRA.VDW>
-4.80337

>  <SCORE.INTRA.VDW.0>
2.00851

>  <SCORE.INTRA.norm>
-0.390805

>  <SCORE.RESTR>
0

>  <SCORE.RESTR.CAVITY>
0

>  <SCORE.RESTR.norm>
0

>  <SCORE.SYSTEM>
0

>  <SCORE.SYSTEM.CONST>
0

>  <SCORE.SYSTEM.DIHEDRAL>
0

>  <SCORE.SYSTEM.SOLV>
0

>  <SCORE.SYSTEM.norm>
0

>  <SCORE.heavy>
27

>  <SCORE.norm>
-0.717618

>  <RMSD>
22.772

$$$$
ligand
 OpenBabel11021811483D
libRbt.so/2013.1/901 2013/11/27
 27 29  0  0  0  0  0  0  0  0999 V2000
   -8.1332    7.4668    9.6495 N   0  0  0  0  0  0  0  0  0  0  0  0
   -9.5722    7.5706    9.4232 C   0  0  2  0  0  0  0  0  0  0  0  0
   -9.8918    8.1640    8.0537 C   0  0  0  0  0  0  0  0  0  0  0  0
   -8.9975    8.5927    7.3210 O   0  0  0  0  0  0  0  0  0  0  0  0
  -10.2438    8.3614   10.5420 C   0  0  0  0  0  0  0  0  0  0  0  0
  -10.3699    7.5797   11.8404 C   0  0  0  0  0  0  0  0  0  0  0  0
  -11.4473    6.1301   11.7203 S   0  0  2  0  0  0  0  0  0  0  0  0
  -11.6461    5.7230   13.4729 C   0  0  0  0  0  0  0  0  0  0  0  0
  -10.2623    4.8625   11.1937 C   0  0  0  0  0  0  0  0  0  0  0  0
   -9.0984    4.8218   12.1735 C   0  0  1  0  0  0  0  0  0  0  0  0
   -9.3551    3.8161   13.1245 O   0  0  0  0  0  0  0  0  0  0  0  0
   -7.7519    4.4510   11.5809 C   0  0  1  0  0  0  0  0  0  0  0  0
   -6.9999    5.6047   11.2773 O   0  0  0  0  0  0  0  0  0  0  0  0
   -7.0869    3.6768   12.7010 C   0  0  1  0  0  0  0  0  0  0  0  0
   -6.1011    4.4941   13.2824 O   0  0  0  0  0  0  0  0  0  0  0  0
   -8.1675    3.3739   13.7302 C   0  0  2  0  0  0  0  0  0  0  0  0
  -11.0549    8.2306    7.6557 O   0  0  0  0  0  0  0  0  0  0  0  0
   -8.9536   -1.3294   11.4861 N   0  0  0  0  0  0  0  0  0  0  0  0
   -8.9615   -0.0865   10.8845 C   0  0  0  0  0  0  0  0  0  0  0  0
   -8.7373    1.0565   11.6285 N   0  0  0  0  0  0  0  0  0  0  0  0
   -8.5110    0.9713   12.9610 C   0  0  0  0  0  0  0  0  0  0  0  0
   -8.4908   -0.2714   13.5821 C   0  0  0  0  0  0  0  0  0  0  0  0
   -8.7181   -1.4244   12.8406 C   0  0  0  0  0  0  0  0  0  0  0  0
   -8.7081   -2.6139   13.4374 N   0  0  0  0  0  0  0  0  0  0  0  0
   -8.2394   -0.0747   14.8942 N   0  0  0  0  0  0  0  0  0  0  0  0
   -8.0842    1.2525   15.1113 C   0  0  0  0  0  0  0  0  0  0  0  0
   -8.2486    1.9165   13.9244 N   0  0  0  0  0  0  0  0  0  0  0  0
  2  1  1  1  0  0  0
  2  3  1  0  0  0  0
  2  5  1  0  0  0  0
  3  4  1  0  0  0  0
  3 17  1  0  0  0  0
  5  6  1  0  0  0  0
  7  6  1  1  0  0  0
  7  8  1  0  0  0  0
  7  9  1  0  0  0  0
 10  9  1  6  0  0  0
 10 11  1  0  0  0  0
 10 12  1  0  0  0  0
 11 16  1  0  0  0  0
 12 13  1  1  0  0  0
 12 14  1  0  0  0  0
 14 15  1  1  0  0  0
 14 16  1  0  0  0  0
 16 27  1  6  0  0  0
 18 19  2  0  0  0  0
 18 23  1  0  0  0  0
 19 20  1  0  0  0  0
 20 21  2  0  0  0  0
 21 22  1  0  0  0  0
 21 27  1  0  0  0  0
 22 23  2  0  0  0  0
 22 25  1  0  0  0  0
 23 24  1  0  0  0  0
 25 26  2  0  0  0  0
 26 27  1  0  0  0  0
M  END
>  <CHROM.1>
-5.76823209,-74.54999652,-64.47365545,-167.46578697,54.37630583,95.11198661
54.56832117,-9.08100027,4.02323495,11.78527636,2.81956422,-1.38900951,0.79571342

>  <Name>
ligand

>  <RI>
0

>  <Rbt.Current_Directory>
/home/itssahil/PROJECTS/Mol_Feturizer/New_Systems/rnas/3GX6

>  <Rbt.Executable>
rbdock ($Id: //depot/dev/client3/rdock/2013.1/src/exe/rbdock.cxx#4 $)

>  <Rbt.Library>
libRbt.so (2013.1, Build901 2013/11/27)

>  <Rbt.Parameter_File>
/export/apps/rDock/src/rDock_2013.1_src/data/scripts/dock_solv.prm

>  <Rbt.Receptor>
prm/blind_docking_20.prm

>  <SCORE>
-17.146

>  <SCORE.INTER>
-10.8434

>  <SCORE.INTER.CONST>
1

>  <SCORE.INTER.POLAR>
0

>  <SCORE.INTER.ROT>
7

>  <SCORE.INTER.SOLV>
10.2809

>  <SCORE.INTER.VDW>
-18.9226

>  <SCORE.INTER.norm>
-0.401608

>  <SCORE.INTRA>
-6.3181

>  <SCORE.INTRA.DIHEDRAL>
-6.42153

>  <SCORE.INTRA.DIHEDRAL.0>
15.0182

>  <SCORE.INTRA.POLAR>
0

>  <SCORE.INTRA.POLAR.0>
0

>  <SCORE.INTRA.REPUL>
0

>  <SCORE.INTRA.REPUL.0>
0

>  <SCORE.INTRA.SOLV>
2.55153

>  <SCORE.INTRA.SOLV.lig_0>
-47.9129

>  <SCORE.INTRA.VDW>
-4.3831

>  <SCORE.INTRA.VDW.0>
2.00851

>  <SCORE.INTRA.norm>
-0.234004

>  <SCORE.RESTR>
0.0154881

>  <SCORE.RESTR.CAVITY>
0.0154881

>  <SCORE.RESTR.norm>
0.000573632

>  <SCORE.SYSTEM>
0

>  <SCORE.SYSTEM.CONST>
0

>  <SCORE.SYSTEM.DIHEDRAL>
0

>  <SCORE.SYSTEM.SOLV>
0

>  <SCORE.SYSTEM.norm>
0

>  <SCORE.heavy>
27

>  <SCORE.norm>
-0.635038

>  <RMSD>
22.905

$$$$
ligand
 OpenBabel11021811483D
libRbt.so/2013.1/901 2013/11/27
 27 29  0  0  0  0  0  0  0  0999 V2000
   -9.1900   -0.3059   14.8825 N   0  0  0  0  0  0  0  0  0  0  0  0
   -9.0504    0.5405   13.7005 C   0  0  2  0  0  0  0  0  0  0  0  0
   -8.4912   -0.2330   12.5093 C   0  0  0  0  0  0  0  0  0  0  0  0
   -8.2232    0.3367   11.4491 O   0  0  0  0  0  0  0  0  0  0  0  0
   -8.2049    1.7724   14.0097 C   0  0  0  0  0  0  0  0  0  0  0  0
   -8.8493    2.7066   15.0221 C   0  0  0  0  0  0  0  0  0  0  0  0
   -7.8513    4.1661   15.4098 S   0  0  2  0  0  0  0  0  0  0  0  0
   -8.9664    5.0352   16.5402 C   0  0  0  0  0  0  0  0  0  0  0  0
   -8.0567    5.1373   13.8922 C   0  0  0  0  0  0  0  0  0  0  0  0
   -9.4964    5.6209   13.7938 C   0  0  1  0  0  0  0  0  0  0  0  0
   -9.5368    6.7137   12.9073 O   0  0  0  0  0  0  0  0  0  0  0  0
  -10.4869    4.6263   13.2179 C   0  0  1  0  0  0  0  0  0  0  0  0
  -11.1590    3.9322   14.2451 O   0  0  0  0  0  0  0  0  0  0  0  0
  -11.4602    5.5103   12.4647 C   0  0  1  0  0  0  0  0  0  0  0  0
  -12.6542    5.5879   13.2037 O   0  0  0  0  0  0  0  0  0  0  0  0
  -10.8257    6.8917   12.3780 C   0  0  2  0  0  0  0  0  0  0  0  0
   -8.3014   -1.4471   12.5841 O   0  0  0  0  0  0  0  0  0  0  0  0
  -12.1407    5.7947    7.3938 N   0  0  0  0  0  0  0  0  0  0  0  0
  -12.5009    5.1133    8.5397 C   0  0  0  0  0  0  0  0  0  0  0  0
  -12.0618    5.5396    9.7789 N   0  0  0  0  0  0  0  0  0  0  0  0
  -11.2670    6.6309    9.8841 C   0  0  0  0  0  0  0  0  0  0  0  0
  -10.9013    7.3342    8.7430 C   0  0  0  0  0  0  0  0  0  0  0  0
  -11.3370    6.9096    7.4937 C   0  0  0  0  0  0  0  0  0  0  0  0
  -10.9788    7.5778    6.3999 N   0  0  0  0  0  0  0  0  0  0  0  0
  -10.1236    8.3696    9.1260 N   0  0  0  0  0  0  0  0  0  0  0  0
  -10.0049    8.3468   10.4743 C   0  0  0  0  0  0  0  0  0  0  0  0
  -10.7074    7.2763   10.9615 N   0  0  0  0  0  0  0  0  0  0  0  0
  2  1  1  1  0  0  0
  2  3  1  0  0  0  0
  2  5  1  0  0  0  0
  3  4  1  0  0  0  0
  3 17  1  0  0  0  0
  5  6  1  0  0  0  0
  7  6  1  6  0  0  0
  7  8  1  0  0  0  0
  7  9  1  0  0  0  0
 10  9  1  6  0  0  0
 10 11  1  0  0  0  0
 10 12  1  0  0  0  0
 11 16  1  0  0  0  0
 12 13  1  1  0  0  0
 12 14  1  0  0  0  0
 14 15  1  1  0  0  0
 14 16  1  0  0  0  0
 16 27  1  6  0  0  0
 18 19  2  0  0  0  0
 18 23  1  0  0  0  0
 19 20  1  0  0  0  0
 20 21  2  0  0  0  0
 21 22  1  0  0  0  0
 21 27  1  0  0  0  0
 22 23  2  0  0  0  0
 22 25  1  0  0  0  0
 23 24  1  0  0  0  0
 25 26  2  0  0  0  0
 26 27  1  0  0  0  0
M  END
>  <CHROM.1>
-175.25233698,-64.84307655,179.50675587,177.15961131,68.32140224,160.03112389
123.31235228,-9.97212524,4.55302434,12.14427681,0.18334265,1.23036115,-2.53896287

>  <Name>
ligand

>  <RI>
0

>  <Rbt.Current_Directory>
/home/itssahil/PROJECTS/Mol_Feturizer/New_Systems/rnas/3GX6

>  <Rbt.Executable>
rbdock ($Id: //depot/dev/client3/rdock/2013.1/src/exe/rbdock.cxx#4 $)

>  <Rbt.Library>
libRbt.so (2013.1, Build901 2013/11/27)

>  <Rbt.Parameter_File>
/export/apps/rDock/src/rDock_2013.1_src/data/scripts/dock_solv.prm

>  <Rbt.Receptor>
prm/blind_docking_20.prm

>  <SCORE>
-15.5007

>  <SCORE.INTER>
-9.72138

>  <SCORE.INTER.CONST>
1

>  <SCORE.INTER.POLAR>
0

>  <SCORE.INTER.ROT>
7

>  <SCORE.INTER.SOLV>
11.0746

>  <SCORE.INTER.VDW>
-18.4391

>  <SCORE.INTER.norm>
-0.360051

>  <SCORE.INTRA>
-5.78229

>  <SCORE.INTRA.DIHEDRAL>
-9.57112

>  <SCORE.INTRA.DIHEDRAL.0>
15.0182

>  <SCORE.INTRA.POLAR>
0

>  <SCORE.INTRA.POLAR.0>
0

>  <SCORE.INTRA.REPUL>
0

>  <SCORE.INTRA.REPUL.0>
0

>  <SCORE.INTRA.SOLV>
-0.387501

>  <SCORE.INTRA.SOLV.lig_0>
-47.9129

>  <SCORE.INTRA.VDW>
-0.802977

>  <SCORE.INTRA.VDW.0>
2.00851

>  <SCORE.INTRA.norm>
-0.214159

>  <SCORE.RESTR>
0.00297421

>  <SCORE.RESTR.CAVITY>
0.00297421

>  <SCORE.RESTR.norm>
0.000110156

>  <SCORE.SYSTEM>
0

>  <SCORE.SYSTEM.CONST>
0

>  <SCORE.SYSTEM.DIHEDRAL>
0

>  <SCORE.SYSTEM.SOLV>
0

>  <SCORE.SYSTEM.norm>
0

>  <SCORE.heavy>
27

>  <SCORE.norm>
-0.5741

>  <RMSD>
22.905

$$$$
ligand
 OpenBabel11021811483D
libRbt.so/2013.1/901 2013/11/27
 27 29  0  0  0  0  0  0  0  0999 V2000
   -9.7814    5.6494    7.0015 N   0  0  0  0  0  0  0  0  0  0  0  0
  -10.3299    5.0713    8.2254 C   0  0  2  0  0  0  0  0  0  0  0  0
  -10.8334    3.6471    8.0064 C   0  0  0  0  0  0  0  0  0  0  0  0
  -11.3912    3.3233    6.9554 O   0  0  0  0  0  0  0  0  0  0  0  0
  -11.4222    5.9637    8.8071 C   0  0  0  0  0  0  0  0  0  0  0  0
  -11.9618    5.4651   10.1388 C   0  0  0  0  0  0  0  0  0  0  0  0
  -10.6747    5.0763   11.3506 S   0  0  2  0  0  0  0  0  0  0  0  0
  -11.6348    5.1480   12.8834 C   0  0  0  0  0  0  0  0  0  0  0  0
   -9.7786    6.6514   11.4191 C   0  0  0  0  0  0  0  0  0  0  0  0
   -8.3116    6.3843   11.7240 C   0  0  1  0  0  0  0  0  0  0  0  0
   -8.2234    5.8093   13.0059 O   0  0  0  0  0  0  0  0  0  0  0  0
   -7.6204    5.3887   10.8115 C   0  0  1  0  0  0  0  0  0  0  0  0
   -6.9236    6.0504    9.7794 O   0  0  0  0  0  0  0  0  0  0  0  0
   -6.6420    4.6969   11.7389 C   0  0  1  0  0  0  0  0  0  0  0  0
   -5.3488    5.1716   11.4555 O   0  0  0  0  0  0  0  0  0  0  0  0
   -7.0272    5.0891   13.1589 C   0  0  2  0  0  0  0  0  0  0  0  0
  -10.6957    2.7924    8.8817 O   0  0  0  0  0  0  0  0  0  0  0  0
   -8.6346    0.0713   13.0441 N   0  0  0  0  0  0  0  0  0  0  0  0
   -8.5034    0.9483   11.9855 C   0  0  0  0  0  0  0  0  0  0  0  0
   -8.0666    2.2428   12.1945 N   0  0  0  0  0  0  0  0  0  0  0  0
   -7.7655    2.6692   13.4441 C   0  0  0  0  0  0  0  0  0  0  0  0
   -7.8832    1.7984   14.5203 C   0  0  0  0  0  0  0  0  0  0  0  0
   -8.3243    0.4964   14.3177 C   0  0  0  0  0  0  0  0  0  0  0  0
   -8.4461   -0.3347   15.3500 N   0  0  0  0  0  0  0  0  0  0  0  0
   -7.5179    2.4665   15.6356 N   0  0  0  0  0  0  0  0  0  0  0  0
   -7.1582    3.7246   15.2886 C   0  0  0  0  0  0  0  0  0  0  0  0
   -7.3048    3.8683   13.9342 N   0  0  0  0  0  0  0  0  0  0  0  0
  2  1  1  6  0  0  0
  2  3  1  0  0  0  0
  2  5  1  0  0  0  0
  3  4  1  0  0  0  0
  3 17  1  0  0  0  0
  5  6  1  0  0  0  0
  7  6  1  6  0  0  0
  7  8  1  0  0  0  0
  7  9  1  0  0  0  0
 10  9  1  6  0  0  0
 10 11  1  0  0  0  0
 10 12  1  0  0  0  0
 11 16  1  0  0  0  0
 12 13  1  6  0  0  0
 12 14  1  0  0  0  0
 14 15  1  6  0  0  0
 14 16  1  0  0  0  0
 16 27  1  1  0  0  0
 18 19  2  0  0  0  0
 18 23  1  0  0  0  0
 19 20  1  0  0  0  0
 20 21  2  0  0  0  0
 21 22  1  0  0  0  0
 21 27  1  0  0  0  0
 22 23  2  0  0  0  0
 22 25  1  0  0  0  0
 23 24  1  0  0  0  0
 25 26  2  0  0  0  0
 26 27  1  0  0  0  0
M  END
>  <CHROM.1>
-37.17274625,-175.76968693,50.01715797,159.65975457,-149.02946703,-63.92741695
84.73173271,-8.93120937,4.01136793,11.58306182,-2.21497701,0.81344474,2.55976913

>  <Name>
ligand

>  <RI>
0

>  <Rbt.Current_Directory>
/home/itssahil/PROJECTS/Mol_Feturizer/New_Systems/rnas/3GX6

>  <Rbt.Executable>
rbdock ($Id: //depot/dev/client3/rdock/2013.1/src/exe/rbdock.cxx#4 $)

>  <Rbt.Library>
libRbt.so (2013.1, Build901 2013/11/27)

>  <Rbt.Parameter_File>
/export/apps/rDock/src/rDock_2013.1_src/data/scripts/dock_solv.prm

>  <Rbt.Receptor>
prm/blind_docking_20.prm

>  <SCORE>
-17.9987

>  <SCORE.INTER>
-8.3599

>  <SCORE.INTER.CONST>
1

>  <SCORE.INTER.POLAR>
0

>  <SCORE.INTER.ROT>
7

>  <SCORE.INTER.SOLV>
13.8377

>  <SCORE.INTER.VDW>
-18.4525

>  <SCORE.INTER.norm>
-0.309626

>  <SCORE.INTRA>
-9.63882

>  <SCORE.INTRA.DIHEDRAL>
-7.74703

>  <SCORE.INTRA.DIHEDRAL.0>
15.0182

>  <SCORE.INTRA.POLAR>
0

>  <SCORE.INTRA.POLAR.0>
0

>  <SCORE.INTRA.REPUL>
0

>  <SCORE.INTRA.REPUL.0>
0

>  <SCORE.INTRA.SOLV>
-0.682369

>  <SCORE.INTRA.SOLV.lig_0>
-47.9129

>  <SCORE.INTRA.VDW>
-5.42412

>  <SCORE.INTRA.VDW.0>
2.00851

>  <SCORE.INTRA.norm>
-0.356993

>  <SCORE.RESTR>
0

>  <SCORE.RESTR.CAVITY>
0

>  <SCORE.RESTR.norm>
0

>  <SCORE.SYSTEM>
0

>  <SCORE.SYSTEM.CONST>
0

>  <SCORE.SYSTEM.DIHEDRAL>
0

>  <SCORE.SYSTEM.SOLV>
0

>  <SCORE.SYSTEM.norm>
0

>  <SCORE.heavy>
27

>  <SCORE.norm>
-0.666619

>  <RMSD>
22.982

$$$$
ligand
 OpenBabel11021811483D
libRbt.so/2013.1/901 2013/11/27
 27 29  0  0  0  0  0  0  0  0999 V2000
   -7.9969   -2.1976   15.8330 N   0  0  0  0  0  0  0  0  0  0  0  0
   -9.0020   -1.4379   15.0945 C   0  0  2  0  0  0  0  0  0  0  0  0
   -9.4666   -2.1759   13.8417 C   0  0  0  0  0  0  0  0  0  0  0  0
   -8.7582   -3.0321   13.3074 O   0  0  0  0  0  0  0  0  0  0  0  0
   -8.4901   -0.0404   14.7585 C   0  0  0  0  0  0  0  0  0  0  0  0
   -9.5991    0.9388   14.4058 C   0  0  0  0  0  0  0  0  0  0  0  0
   -9.0052    2.4857   13.6773 S   0  0  2  0  0  0  0  0  0  0  0  0
   -8.0425    3.1504   15.0585 C   0  0  0  0  0  0  0  0  0  0  0  0
  -10.5023    3.5052   13.7651 C   0  0  0  0  0  0  0  0  0  0  0  0
  -10.2032    4.8897   13.2084 C   0  0  1  0  0  0  0  0  0  0  0  0
  -10.1021    4.7914   11.8078 O   0  0  0  0  0  0  0  0  0  0  0  0
  -11.2751    5.9381   13.4404 C   0  0  1  0  0  0  0  0  0  0  0  0
  -10.9811    6.7159   14.5794 O   0  0  0  0  0  0  0  0  0  0  0  0
  -11.1933    6.7928   12.1919 C   0  0  1  0  0  0  0  0  0  0  0  0
  -10.5675    8.0075   12.5245 O   0  0  0  0  0  0  0  0  0  0  0  0
  -10.3304    6.0336   11.1931 C   0  0  2  0  0  0  0  0  0  0  0  0
  -10.5606   -1.9246   13.3361 O   0  0  0  0  0  0  0  0  0  0  0  0
  -11.5912    7.8525    6.4101 N   0  0  0  0  0  0  0  0  0  0  0  0
  -10.7415    8.4184    7.3400 C   0  0  0  0  0  0  0  0  0  0  0  0
  -10.5229    7.8040    8.5586 N   0  0  0  0  0  0  0  0  0  0  0  0
  -11.1447    6.6389    8.8579 C   0  0  0  0  0  0  0  0  0  0  0  0
  -11.9965    6.0503    7.9313 C   0  0  0  0  0  0  0  0  0  0  0  0
  -12.2229    6.6639    6.7053 C   0  0  0  0  0  0  0  0  0  0  0  0
  -13.0461    6.1048    5.8217 N   0  0  0  0  0  0  0  0  0  0  0  0
  -12.4714    4.9078    8.4725 N   0  0  0  0  0  0  0  0  0  0  0  0
  -11.9297    4.7536    9.7035 C   0  0  0  0  0  0  0  0  0  0  0  0
  -11.1044    5.8167    9.9592 N   0  0  0  0  0  0  0  0  0  0  0  0
  2  1  1  6  0  0  0
  2  3  1  0  0  0  0
  2  5  1  0  0  0  0
  3  4  1  0  0  0  0
  3 17  1  0  0  0  0
  5  6  1  0  0  0  0
  7  6  1  1  0  0  0
  7  8  1  0  0  0  0
  7  9  1  0  0  0  0
 10  9  1  6  0  0  0
 10 11  1  0  0  0  0
 10 12  1  0  0  0  0
 11 16  1  0  0  0  0
 12 13  1  1  0  0  0
 12 14  1  0  0  0  0
 14 15  1  1  0  0  0
 14 16  1  0  0  0  0
 16 27  1  6  0  0  0
 18 19  2  0  0  0  0
 18 23  1  0  0  0  0
 19 20  1  0  0  0  0
 20 21  2  0  0  0  0
 21 22  1  0  0  0  0
 21 27  1  0  0  0  0
 22 23  2  0  0  0  0
 22 25  1  0  0  0  0
 23 24  1  0  0  0  0
 25 26  2  0  0  0  0
 26 27  1  0  0  0  0
M  END
>  <CHROM.1>
-23.21046948,-161.34880726,-167.95824135,-63.47641790,179.08159766,73.72635322
-155.73349499,-10.37125983,3.84181115,11.75312128,0.59774531,1.26023953,-2.85680403

>  <Name>
ligand

>  <RI>
0

>  <Rbt.Current_Directory>
/home/itssahil/PROJECTS/Mol_Feturizer/New_Systems/rnas/3GX6

>  <Rbt.Executable>
rbdock ($Id: //depot/dev/client3/rdock/2013.1/src/exe/rbdock.cxx#4 $)

>  <Rbt.Library>
libRbt.so (2013.1, Build901 2013/11/27)

>  <Rbt.Parameter_File>
/export/apps/rDock/src/rDock_2013.1_src/data/scripts/dock_solv.prm

>  <Rbt.Receptor>
prm/blind_docking_20.prm

>  <SCORE>
-15.7435

>  <SCORE.INTER>
-6.11219

>  <SCORE.INTER.CONST>
1

>  <SCORE.INTER.POLAR>
0

>  <SCORE.INTER.ROT>
7

>  <SCORE.INTER.SOLV>
13.9498

>  <SCORE.INTER.VDW>
-16.9914

>  <SCORE.INTER.norm>
-0.226377

>  <SCORE.INTRA>
-9.63127

>  <SCORE.INTRA.DIHEDRAL>
-9.21739

>  <SCORE.INTRA.DIHEDRAL.0>
15.0182

>  <SCORE.INTRA.POLAR>
0

>  <SCORE.INTRA.POLAR.0>
0

>  <SCORE.INTRA.REPUL>
0

>  <SCORE.INTRA.REPUL.0>
0

>  <SCORE.INTRA.SOLV>
-1.86472

>  <SCORE.INTRA.SOLV.lig_0>
-47.9129

>  <SCORE.INTRA.VDW>
-4.09022

>  <SCORE.INTRA.VDW.0>
2.00851

>  <SCORE.INTRA.norm>
-0.356714

>  <SCORE.RESTR>
0

>  <SCORE.RESTR.CAVITY>
0

>  <SCORE.RESTR.norm>
0

>  <SCORE.SYSTEM>
0

>  <SCORE.SYSTEM.CONST>
0

>  <SCORE.SYSTEM.DIHEDRAL>
0

>  <SCORE.SYSTEM.SOLV>
0

>  <SCORE.SYSTEM.norm>
0

>  <SCORE.heavy>
27

>  <SCORE.norm>
-0.583091

>  <RMSD>
23.060

$$$$
ligand
 OpenBabel11021811483D
libRbt.so/2013.1/901 2013/11/27
 27 29  0  0  0  0  0  0  0  0999 V2000
   -9.4897   -3.0886   10.8301 N   0  0  0  0  0  0  0  0  0  0  0  0
   -8.2112   -2.3832   10.8576 C   0  0  2  0  0  0  0  0  0  0  0  0
   -7.0860   -3.2649   11.3929 C   0  0  0  0  0  0  0  0  0  0  0  0
   -6.2607   -3.7759   10.6326 O   0  0  0  0  0  0  0  0  0  0  0  0
   -8.3233   -1.0836   11.6489 C   0  0  0  0  0  0  0  0  0  0  0  0
   -9.3421   -0.1129   11.0721 C   0  0  0  0  0  0  0  0  0  0  0  0
   -9.5548    1.3935   12.0528 S   0  0  2  0  0  0  0  0  0  0  0  0
  -10.3698    0.7170   13.5207 C   0  0  0  0  0  0  0  0  0  0  0  0
  -10.9527    2.1682   11.1960 C   0  0  0  0  0  0  0  0  0  0  0  0
  -11.4701    3.3338   12.0266 C   0  0  1  0  0  0  0  0  0  0  0  0
  -10.5174    4.3690   11.9788 O   0  0  0  0  0  0  0  0  0  0  0  0
  -12.7540    3.9745   11.5336 C   0  0  1  0  0  0  0  0  0  0  0  0
  -13.8726    3.4492   12.2129 O   0  0  0  0  0  0  0  0  0  0  0  0
  -12.5668    5.4349   11.8918 C   0  0  1  0  0  0  0  0  0  0  0  0
  -13.3771    5.7276   13.0034 O   0  0  0  0  0  0  0  0  0  0  0  0
  -11.1025    5.6124   12.2698 C   0  0  2  0  0  0  0  0  0  0  0  0
   -6.9846   -3.4872   12.5996 O   0  0  0  0  0  0  0  0  0  0  0  0
  -10.8574    7.6654    7.4221 N   0  0  0  0  0  0  0  0  0  0  0  0
  -11.6270    6.6060    7.8608 C   0  0  0  0  0  0  0  0  0  0  0  0
  -11.5677    6.1914    9.1778 N   0  0  0  0  0  0  0  0  0  0  0  0
  -10.7483    6.8178   10.0554 C   0  0  0  0  0  0  0  0  0  0  0  0
   -9.9729    7.8911    9.6342 C   0  0  0  0  0  0  0  0  0  0  0  0
  -10.0257    8.3116    8.3108 C   0  0  0  0  0  0  0  0  0  0  0  0
   -9.2758    9.3335    7.9054 N   0  0  0  0  0  0  0  0  0  0  0  0
   -9.2635    8.3313   10.6956 N   0  0  0  0  0  0  0  0  0  0  0  0
   -9.5837    7.5775   11.7735 C   0  0  0  0  0  0  0  0  0  0  0  0
  -10.5029    6.6346   11.3957 N   0  0  0  0  0  0  0  0  0  0  0  0
  2  1  1  1  0  0  0
  2  3  1  0  0  0  0
  2  5  1  0  0  0  0
  3  4  1  0  0  0  0
  3 17  1  0  0  0  0
  5  6  1  0  0  0  0
  7  6  1  6  0  0  0
  7  8  1  0  0  0  0
  7  9  1  0  0  0  0
 10  9  1  6  0  0  0
 10 11  1  0  0  0  0
 10 12  1  0  0  0  0
 11 16  1  0  0  0  0
 12 13  1  1  0  0  0
 12 14  1  0  0  0  0
 14 15  1  1  0  0  0
 14 16  1  0  0  0  0
 16 27  1  6  0  0  0
 18 19  2  0  0  0  0
 18 23  1  0  0  0  0
 19 20  1  0  0  0  0
 20 21  2  0  0  0  0
 21 22  1  0  0  0  0
 21 27  1  0  0  0  0
 22 23  2  0  0  0  0
 22 25  1  0  0  0  0
 23 24  1  0  0  0  0
 25 26  2  0  0  0  0
 26 27  1  0  0  0  0
M  END
>  <CHROM.1>
103.20959552,-60.16413335,176.70446118,-69.31399303,169.24970278,70.71783091
74.52817971,-10.17801533,3.26961683,11.03616821,-1.21634357,0.66685275,-0.39830655

>  <Name>
ligand

>  <RI>
0

>  <Rbt.Current_Directory>
/home/itssahil/PROJECTS/Mol_Feturizer/New_Systems/rnas/3GX6

>  <Rbt.Executable>
rbdock ($Id: //depot/dev/client3/rdock/2013.1/src/exe/rbdock.cxx#4 $)

>  <Rbt.Library>
libRbt.so (2013.1, Build901 2013/11/27)

>  <Rbt.Parameter_File>
/export/apps/rDock/src/rDock_2013.1_src/data/scripts/dock_solv.prm

>  <Rbt.Receptor>
prm/blind_docking_20.prm

>  <SCORE>
-21.8907

>  <SCORE.INTER>
-11.7038

>  <SCORE.INTER.CONST>
1

>  <SCORE.INTER.POLAR>
0

>  <SCORE.INTER.ROT>
7

>  <SCORE.INTER.SOLV>
10.1463

>  <SCORE.INTER.VDW>
-19.4513

>  <SCORE.INTER.norm>
-0.433473

>  <SCORE.INTRA>
-10.187

>  <SCORE.INTRA.DIHEDRAL>
-11.3765

>  <SCORE.INTRA.DIHEDRAL.0>
15.0182

>  <SCORE.INTRA.POLAR>
0

>  <SCORE.INTRA.POLAR.0>
0

>  <SCORE.INTRA.REPUL>
0

>  <SCORE.INTRA.REPUL.0>
0

>  <SCORE.INTRA.SOLV>
-1.11221

>  <SCORE.INTRA.SOLV.lig_0>
-47.9129

>  <SCORE.INTRA.VDW>
-3.9426

>  <SCORE.INTRA.VDW.0>
2.00851

>  <SCORE.INTRA.norm>
-0.377295

>  <SCORE.RESTR>
0

>  <SCORE.RESTR.CAVITY>
0

>  <SCORE.RESTR.norm>
0

>  <SCORE.SYSTEM>
0

>  <SCORE.SYSTEM.CONST>
0

>  <SCORE.SYSTEM.DIHEDRAL>
0

>  <SCORE.SYSTEM.SOLV>
0

>  <SCORE.SYSTEM.norm>
0

>  <SCORE.heavy>
27

>  <SCORE.norm>
-0.810767

>  <RMSD>
23.186

$$$$
ligand
 OpenBabel11021811483D
libRbt.so/2013.1/901 2013/11/27
 27 29  0  0  0  0  0  0  0  0999 V2000
   -9.5198   -3.4678   11.6596 N   0  0  0  0  0  0  0  0  0  0  0  0
   -8.8626   -2.5015   10.7837 C   0  0  2  0  0  0  0  0  0  0  0  0
   -7.8231   -3.1641    9.8835 C   0  0  0  0  0  0  0  0  0  0  0  0
   -7.9271   -3.1259    8.6554 O   0  0  0  0  0  0  0  0  0  0  0  0
   -8.2514   -1.3610   11.5923 C   0  0  0  0  0  0  0  0  0  0  0  0
   -9.2864   -0.3981   12.1532 C   0  0  0  0  0  0  0  0  0  0  0  0
   -8.5714    1.0377   12.9919 S   0  0  2  0  0  0  0  0  0  0  0  0
   -8.3700    0.3743   14.6640 C   0  0  0  0  0  0  0  0  0  0  0  0
  -10.0392    2.0823   13.1990 C   0  0  0  0  0  0  0  0  0  0  0  0
   -9.6093    3.5365   13.3281 C   0  0  1  0  0  0  0  0  0  0  0  0
   -8.9799    3.9203   12.1289 O   0  0  0  0  0  0  0  0  0  0  0  0
  -10.7319    4.5412   13.5076 C   0  0  1  0  0  0  0  0  0  0  0  0
  -10.9254    4.8423   14.8717 O   0  0  0  0  0  0  0  0  0  0  0  0
  -10.2180    5.7630   12.7734 C   0  0  1  0  0  0  0  0  0  0  0  0
   -9.8169    6.7178   13.7248 O   0  0  0  0  0  0  0  0  0  0  0  0
   -9.0094    5.3148   11.9628 C   0  0  2  0  0  0  0  0  0  0  0  0
   -6.8596   -3.7563   10.3698 O   0  0  0  0  0  0  0  0  0  0  0  0
  -10.0273    9.0275    8.3635 N   0  0  0  0  0  0  0  0  0  0  0  0
   -9.8604    9.1842    9.7254 C   0  0  0  0  0  0  0  0  0  0  0  0
   -9.5987    8.0929   10.5321 N   0  0  0  0  0  0  0  0  0  0  0  0
   -9.5071    6.8528    9.9957 C   0  0  0  0  0  0  0  0  0  0  0  0
   -9.6636    6.6769    8.6264 C   0  0  0  0  0  0  0  0  0  0  0  0
   -9.9296    7.7694    7.8099 C   0  0  0  0  0  0  0  0  0  0  0  0
  -10.0890    7.5995    6.4996 N   0  0  0  0  0  0  0  0  0  0  0  0
   -9.5184    5.3614    8.3584 N   0  0  0  0  0  0  0  0  0  0  0  0
   -9.2583    4.7096    9.5160 C   0  0  0  0  0  0  0  0  0  0  0  0
   -9.2470    5.6179   10.5415 N   0  0  0  0  0  0  0  0  0  0  0  0
  2  1  1  1  0  0  0
  2  3  1  0  0  0  0
  2  5  1  0  0  0  0
  3  4  1  0  0  0  0
  3 17  1  0  0  0  0
  5  6  1  0  0  0  0
  7  6  1  6  0  0  0
  7  8  1  0  0  0  0
  7  9  1  0  0  0  0
 10  9  1  6  0  0  0
 10 11  1  0  0  0  0
 10 12  1  0  0  0  0
 11 16  1  0  0  0  0
 12 13  1  1  0  0  0
 12 14  1  0  0  0  0
 14 15  1  1  0  0  0
 14 16  1  0  0  0  0
 16 27  1  6  0  0  0
 18 19  2  0  0  0  0
 18 23  1  0  0  0  0
 19 20  1  0  0  0  0
 20 21  2  0  0  0  0
 21 22  1  0  0  0  0
 21 27  1  0  0  0  0
 22 23  2  0  0  0  0
 22 25  1  0  0  0  0
 23 24  1  0  0  0  0
 25 26  2  0  0  0  0
 26 27  1  0  0  0  0
M  END
>  <CHROM.1>
119.17185470,-73.06218422,-174.96275568,-87.42625702,-155.94964070,63.01183732
171.37381020,-9.26192627,3.16098976,11.20470139,-0.73234444,1.35743457,-0.97385438

>  <Name>
ligand

>  <RI>
0

>  <Rbt.Current_Directory>
/home/itssahil/PROJECTS/Mol_Feturizer/New_Systems/rnas/3GX6

>  <Rbt.Executable>
rbdock ($Id: //depot/dev/client3/rdock/2013.1/src/exe/rbdock.cxx#4 $)

>  <Rbt.Library>
libRbt.so (2013.1, Build901 2013/11/27)

>  <Rbt.Parameter_File>
/export/apps/rDock/src/rDock_2013.1_src/data/scripts/dock_solv.prm

>  <Rbt.Receptor>
prm/blind_docking_20.prm

>  <SCORE>
-16.0497

>  <SCORE.INTER>
-7.24116

>  <SCORE.INTER.CONST>
1

>  <SCORE.INTER.POLAR>
0

>  <SCORE.INTER.ROT>
7

>  <SCORE.INTER.SOLV>
7.34176

>  <SCORE.INTER.VDW>
-15.5414

>  <SCORE.INTER.norm>
-0.268191

>  <SCORE.INTRA>
-8.80851

>  <SCORE.INTRA.DIHEDRAL>
-7.54117

>  <SCORE.INTRA.DIHEDRAL.0>
15.0182

>  <SCORE.INTRA.POLAR>
0

>  <SCORE.INTRA.POLAR.0>
0

>  <SCORE.INTRA.REPUL>
0

>  <SCORE.INTRA.REPUL.0>
0

>  <SCORE.INTRA.SOLV>
-1.24624

>  <SCORE.INTRA.SOLV.lig_0>
-47.9129

>  <SCORE.INTRA.VDW>
-4.4148

>  <SCORE.INTRA.VDW.0>
2.00851

>  <SCORE.INTRA.norm>
-0.326241

>  <SCORE.RESTR>
0

>  <SCORE.RESTR.CAVITY>
0

>  <SCORE.RESTR.norm>
0

>  <SCORE.SYSTEM>
0

>  <SCORE.SYSTEM.CONST>
0

>  <SCORE.SYSTEM.DIHEDRAL>
0

>  <SCORE.SYSTEM.SOLV>
0

>  <SCORE.SYSTEM.norm>
0

>  <SCORE.heavy>
27

>  <SCORE.norm>
-0.594432

>  <RMSD>
23.197

$$$$
ligand
 OpenBabel11021811483D
libRbt.so/2013.1/901 2013/11/27
 27 29  0  0  0  0  0  0  0  0999 V2000
   -9.6420   -2.7875   12.3140 N   0  0  0  0  0  0  0  0  0  0  0  0
   -8.7088   -2.1985   11.3573 C   0  0  2  0  0  0  0  0  0  0  0  0
   -7.5674   -3.1522   11.0145 C   0  0  0  0  0  0  0  0  0  0  0  0
   -6.8990   -3.6900   11.9001 O   0  0  0  0  0  0  0  0  0  0  0  0
   -8.1811   -0.8599   11.8648 C   0  0  0  0  0  0  0  0  0  0  0  0
   -9.2741    0.1748   12.0832 C   0  0  0  0  0  0  0  0  0  0  0  0
   -8.6521    1.8077   12.5557 S   0  0  2  0  0  0  0  0  0  0  0  0
   -8.1858    1.4958   14.2767 C   0  0  0  0  0  0  0  0  0  0  0  0
  -10.2050    2.7197   12.7686 C   0  0  0  0  0  0  0  0  0  0  0  0
   -9.9077    4.2102   12.8490 C   0  0  1  0  0  0  0  0  0  0  0  0
   -9.5183    4.6536   11.5709 O   0  0  0  0  0  0  0  0  0  0  0  0
  -11.0823    5.0966   13.2183 C   0  0  1  0  0  0  0  0  0  0  0  0
  -11.0858    5.3789   14.5999 O   0  0  0  0  0  0  0  0  0  0  0  0
  -10.8163    6.3628   12.4296 C   0  0  1  0  0  0  0  0  0  0  0  0
  -10.3667    7.3549   13.3192 O   0  0  0  0  0  0  0  0  0  0  0  0
   -9.7131    6.0376   11.4317 C   0  0  2  0  0  0  0  0  0  0  0  0
   -7.2886   -3.3993    9.8411 O   0  0  0  0  0  0  0  0  0  0  0  0
  -10.7322    4.0892    6.6420 N   0  0  0  0  0  0  0  0  0  0  0  0
  -10.2319    3.4237    7.7438 C   0  0  0  0  0  0  0  0  0  0  0  0
  -10.0202    4.0936    8.9340 N   0  0  0  0  0  0  0  0  0  0  0  0
  -10.2973    5.4155    9.0329 C   0  0  0  0  0  0  0  0  0  0  0  0
  -10.8094    6.0998    7.9375 C   0  0  0  0  0  0  0  0  0  0  0  0
  -11.0221    5.4331    6.7370 C   0  0  0  0  0  0  0  0  0  0  0  0
  -11.5036    6.0909    5.6851 N   0  0  0  0  0  0  0  0  0  0  0  0
  -11.0009    7.3852    8.3046 N   0  0  0  0  0  0  0  0  0  0  0  0
  -10.6408    7.5234    9.6022 C   0  0  0  0  0  0  0  0  0  0  0  0
  -10.2026    6.3128   10.0703 N   0  0  0  0  0  0  0  0  0  0  0  0
  2  1  1  1  0  0  0
  2  3  1  0  0  0  0
  2  5  1  0  0  0  0
  3  4  1  0  0  0  0
  3 17  1  0  0  0  0
  5  6  1  0  0  0  0
  7  6  1  6  0  0  0
  7  8  1  0  0  0  0
  7  9  1  0  0  0  0
 10  9  1  6  0  0  0
 10 11  1  0  0  0  0
 10 12  1  0  0  0  0
 11 16  1  0  0  0  0
 12 13  1  1  0  0  0
 12 14  1  0  0  0  0
 14 15  1  1  0  0  0
 14 16  1  0  0  0  0
 16 27  1  6  0  0  0
 18 19  2  0  0  0  0
 18 23  1  0  0  0  0
 19 20  1  0  0  0  0
 20 21  2  0  0  0  0
 21 22  1  0  0  0  0
 21 27  1  0  0  0  0
 22 23  2  0  0  0  0
 22 25  1  0  0  0  0
 23 24  1  0  0  0  0
 25 26  2  0  0  0  0
 26 27  1  0  0  0  0
M  END
>  <CHROM.1>
-51.67739503,-60.66377302,-175.29268657,-74.57913872,-166.67839832,71.15545807
-7.87356171,-9.67331377,3.01676700,10.91975054,0.00439533,1.27182999,-1.83342163

>  <Name>
ligand

>  <RI>
0

>  <Rbt.Current_Directory>
/home/itssahil/PROJECTS/Mol_Feturizer/New_Systems/rnas/3GX6

>  <Rbt.Executable>
rbdock ($Id: //depot/dev/client3/rdock/2013.1/src/exe/rbdock.cxx#4 $)

>  <Rbt.Library>
libRbt.so (2013.1, Build901 2013/11/27)

>  <Rbt.Parameter_File>
/export/apps/rDock/src/rDock_2013.1_src/data/scripts/dock_solv.prm

>  <Rbt.Receptor>
prm/blind_docking_20.prm

>  <SCORE>
-18.7527

>  <SCORE.INTER>
-8.87075

>  <SCORE.INTER.CONST>
1

>  <SCORE.INTER.POLAR>
0

>  <SCORE.INTER.ROT>
7

>  <SCORE.INTER.SOLV>
8.97065

>  <SCORE.INTER.VDW>
-17.1707

>  <SCORE.INTER.norm>
-0.328546

>  <SCORE.INTRA>
-9.88194

>  <SCORE.INTRA.DIHEDRAL>
-9.92248

>  <SCORE.INTRA.DIHEDRAL.0>
15.0182

>  <SCORE.INTRA.POLAR>
0

>  <SCORE.INTRA.POLAR.0>
0

>  <SCORE.INTRA.REPUL>
0

>  <SCORE.INTRA.REPUL.0>
0

>  <SCORE.INTRA.SOLV>
-1.16299

>  <SCORE.INTRA.SOLV.lig_0>
-47.9129

>  <SCORE.INTRA.VDW>
-4.3392

>  <SCORE.INTRA.VDW.0>
2.00851

>  <SCORE.INTRA.norm>
-0.365998

>  <SCORE.RESTR>
0

>  <SCORE.RESTR.CAVITY>
0

>  <SCORE.RESTR.norm>
0

>  <SCORE.SYSTEM>
0

>  <SCORE.SYSTEM.CONST>
0

>  <SCORE.SYSTEM.DIHEDRAL>
0

>  <SCORE.SYSTEM.SOLV>
0

>  <SCORE.SYSTEM.norm>
0

>  <SCORE.heavy>
27

>  <SCORE.norm>
-0.694544

>  <RMSD>
23.361

$$$$
ligand
 OpenBabel11021811483D
libRbt.so/2013.1/901 2013/11/27
 27 29  0  0  0  0  0  0  0  0999 V2000
   -9.6604   -3.0450   10.5465 N   0  0  0  0  0  0  0  0  0  0  0  0
   -9.1598   -2.3395   11.7232 C   0  0  2  0  0  0  0  0  0  0  0  0
   -9.9557   -2.6891   12.9779 C   0  0  0  0  0  0  0  0  0  0  0  0
   -9.4238   -2.6886   14.0903 O   0  0  0  0  0  0  0  0  0  0  0  0
   -9.1326   -0.8329   11.4842 C   0  0  0  0  0  0  0  0  0  0  0  0
   -8.5763   -0.0462   12.6610 C   0  0  0  0  0  0  0  0  0  0  0  0
   -8.4559    1.7345   12.3595 S   0  0  2  0  0  0  0  0  0  0  0  0
   -7.8427    2.2986   13.9665 C   0  0  0  0  0  0  0  0  0  0  0  0
  -10.2007    2.2192   12.4553 C   0  0  0  0  0  0  0  0  0  0  0  0
  -10.3064    3.7365   12.4018 C   0  0  1  0  0  0  0  0  0  0  0  0
  -10.2064    4.1402   11.0569 O   0  0  0  0  0  0  0  0  0  0  0  0
  -11.6226    4.3217   12.8784 C   0  0  1  0  0  0  0  0  0  0  0  0
  -11.5358    4.7252   14.2269 O   0  0  0  0  0  0  0  0  0  0  0  0
  -11.8024    5.5318   11.9843 C   0  0  1  0  0  0  0  0  0  0  0  0
  -11.5319    6.6870   12.7393 O   0  0  0  0  0  0  0  0  0  0  0  0
  -10.7804    5.4073   10.8623 C   0  0  2  0  0  0  0  0  0  0  0  0
  -11.1484   -2.9847   12.9011 O   0  0  0  0  0  0  0  0  0  0  0  0
  -11.6643    7.9734    6.3447 N   0  0  0  0  0  0  0  0  0  0  0  0
  -10.8501    8.3515    7.3940 C   0  0  0  0  0  0  0  0  0  0  0  0
  -10.7337    7.5539    8.5168 N   0  0  0  0  0  0  0  0  0  0  0  0
  -11.4223    6.3911    8.6035 C   0  0  0  0  0  0  0  0  0  0  0  0
  -12.2397    5.9902    7.5539 C   0  0  0  0  0  0  0  0  0  0  0  0
  -12.3634    6.7885    6.4233 C   0  0  0  0  0  0  0  0  0  0  0  0
  -13.1539    6.4090    5.4222 N   0  0  0  0  0  0  0  0  0  0  0  0
  -12.7959    4.8066    7.8908 N   0  0  0  0  0  0  0  0  0  0  0  0
  -12.3383    4.4450    9.1125 C   0  0  0  0  0  0  0  0  0  0  0  0
  -11.4854    5.4148    9.5695 N   0  0  0  0  0  0  0  0  0  0  0  0
  2  1  1  6  0  0  0
  2  3  1  0  0  0  0
  2  5  1  0  0  0  0
  3  4  1  0  0  0  0
  3 17  1  0  0  0  0
  5  6  1  0  0  0  0
  7  6  1  1  0  0  0
  7  8  1  0  0  0  0
  7  9  1  0  0  0  0
 10  9  1  6  0  0  0
 10 11  1  0  0  0  0
 10 12  1  0  0  0  0
 11 16  1  0  0  0  0
 12 13  1  1  0  0  0
 12 14  1  0  0  0  0
 14 15  1  1  0  0  0
 14 16  1  0  0  0  0
 16 27  1  6  0  0  0
 18 19  2  0  0  0  0
 18 23  1  0  0  0  0
 19 20  1  0  0  0  0
 20 21  2  0  0  0  0
 21 22  1  0  0  0  0
 21 27  1  0  0  0  0
 22 23  2  0  0  0  0
 22 25  1  0  0  0  0
 23 24  1  0  0  0  0
 25 26  2  0  0  0  0
 26 27  1  0  0  0  0
M  END
>  <CHROM.1>
149.18434446,-178.11161443,176.93469318,177.64897727,172.82782025,80.58779355
-133.96340427,-10.61784184,3.18493001,10.86329691,0.55436876,1.27350018,-2.67296140

>  <Name>
ligand

>  <RI>
0

>  <Rbt.Current_Directory>
/home/itssahil/PROJECTS/Mol_Feturizer/New_Systems/rnas/3GX6

>  <Rbt.Executable>
rbdock ($Id: //depot/dev/client3/rdock/2013.1/src/exe/rbdock.cxx#4 $)

>  <Rbt.Library>
libRbt.so (2013.1, Build901 2013/11/27)

>  <Rbt.Parameter_File>
/export/apps/rDock/src/rDock_2013.1_src/data/scripts/dock_solv.prm

>  <Rbt.Receptor>
prm/blind_docking_20.prm

>  <SCORE>
-17.894

>  <SCORE.INTER>
-7.66696

>  <SCORE.INTER.CONST>
1

>  <SCORE.INTER.POLAR>
0

>  <SCORE.INTER.ROT>
7

>  <SCORE.INTER.SOLV>
10.4969

>  <SCORE.INTER.VDW>
-16.877

>  <SCORE.INTER.norm>
-0.283961

>  <SCORE.INTRA>
-10.2823

>  <SCORE.INTRA.DIHEDRAL>
-10.2868

>  <SCORE.INTRA.DIHEDRAL.0>
15.0182

>  <SCORE.INTRA.POLAR>
0

>  <SCORE.INTRA.POLAR.0>
0

>  <SCORE.INTRA.REPUL>
0

>  <SCORE.INTRA.REPUL.0>
0

>  <SCORE.INTRA.SOLV>
-1.86799

>  <SCORE.INTRA.SOLV.lig_0>
-47.9129

>  <SCORE.INTRA.VDW>
-4.20492

>  <SCORE.INTRA.VDW.0>
2.00851

>  <SCORE.INTRA.norm>
-0.380827

>  <SCORE.RESTR>
0.0553014

>  <SCORE.RESTR.CAVITY>
0.0553014

>  <SCORE.RESTR.norm>
0.0020482

>  <SCORE.SYSTEM>
0

>  <SCORE.SYSTEM.CONST>
0

>  <SCORE.SYSTEM.DIHEDRAL>
0

>  <SCORE.SYSTEM.SOLV>
0

>  <SCORE.SYSTEM.norm>
0

>  <SCORE.heavy>
27

>  <SCORE.norm>
-0.662741

>  <RMSD>
23.373

$$$$
ligand
 OpenBabel11021811483D
libRbt.so/2013.1/901 2013/11/27
 27 29  0  0  0  0  0  0  0  0999 V2000
   -6.4772    4.5167   14.7229 N   0  0  0  0  0  0  0  0  0  0  0  0
   -6.7664    3.9169   13.4231 C   0  0  2  0  0  0  0  0  0  0  0  0
   -6.8425    4.9655   12.3164 C   0  0  0  0  0  0  0  0  0  0  0  0
   -6.8313    4.6387   11.1275 O   0  0  0  0  0  0  0  0  0  0  0  0
   -8.0391    3.0775   13.4817 C   0  0  0  0  0  0  0  0  0  0  0  0
   -8.1944    2.1351   12.2981 C   0  0  0  0  0  0  0  0  0  0  0  0
   -9.7111    1.1483   12.3423 S   0  0  2  0  0  0  0  0  0  0  0  0
   -9.2662   -0.1882   11.2055 C   0  0  0  0  0  0  0  0  0  0  0  0
  -10.8053    2.1510   11.3003 C   0  0  0  0  0  0  0  0  0  0  0  0
  -11.2916    3.3560   12.0926 C   0  0  1  0  0  0  0  0  0  0  0  0
  -10.3176    4.3683   12.0014 O   0  0  0  0  0  0  0  0  0  0  0  0
  -12.5654    4.0062   11.5862 C   0  0  1  0  0  0  0  0  0  0  0  0
  -13.6895    3.5292   12.2915 O   0  0  0  0  0  0  0  0  0  0  0  0
  -12.3447    5.4739   11.8911 C   0  0  1  0  0  0  0  0  0  0  0  0
  -13.1400    5.8231   12.9972 O   0  0  0  0  0  0  0  0  0  0  0  0
  -10.8741    5.6334   12.2522 C   0  0  2  0  0  0  0  0  0  0  0  0
   -6.9116    6.1633   12.5922 O   0  0  0  0  0  0  0  0  0  0  0  0
   -8.1056    6.3931    7.8325 N   0  0  0  0  0  0  0  0  0  0  0  0
   -8.5123    5.1960    8.3879 C   0  0  0  0  0  0  0  0  0  0  0  0
   -9.2367    5.1767    9.5648 N   0  0  0  0  0  0  0  0  0  0  0  0
   -9.5532    6.3346   10.1916 C   0  0  0  0  0  0  0  0  0  0  0  0
   -9.1600    7.5491    9.6432 C   0  0  0  0  0  0  0  0  0  0  0  0
   -8.4292    7.5757    8.4616 C   0  0  0  0  0  0  0  0  0  0  0  0
   -8.0444    8.7387    7.9416 N   0  0  0  0  0  0  0  0  0  0  0  0
   -9.6058    8.5332   10.4534 N   0  0  0  0  0  0  0  0  0  0  0  0
  -10.2816    7.9730   11.4840 C   0  0  0  0  0  0  0  0  0  0  0  0
  -10.2598    6.6110   11.3382 N   0  0  0  0  0  0  0  0  0  0  0  0
  2  1  1  1  0  0  0
  2  3  1  0  0  0  0
  2  5  1  0  0  0  0
  3  4  1  0  0  0  0
  3 17  1  0  0  0  0
  5  6  1  0  0  0  0
  7  6  1  6  0  0  0
  7  8  1  0  0  0  0
  7  9  1  0  0  0  0
 10  9  1  6  0  0  0
 10 11  1  0  0  0  0
 10 12  1  0  0  0  0
 11 16  1  0  0  0  0
 12 13  1  1  0  0  0
 12 14  1  0  0  0  0
 14 15  1  1  0  0  0
 14 16  1  0  0  0  0
 16 27  1  6  0  0  0
 18 19  2  0  0  0  0
 18 23  1  0  0  0  0
 19 20  1  0  0  0  0
 20 21  2  0  0  0  0
 21 22  1  0  0  0  0
 21 27  1  0  0  0  0
 22 23  2  0  0  0  0
 22 25  1  0  0  0  0
 23 24  1  0  0  0  0
 25 26  2  0  0  0  0
 26 27  1  0  0  0  0
M  END
>  <CHROM.1>
166.50282013,-164.36021393,-179.22104927,-160.50012939,-76.62891271,84.43371731
16.76887661,-9.48729953,4.75563395,11.40087256,-1.76820236,0.03288036,-0.49327573

>  <Name>
ligand

>  <RI>
0

>  <Rbt.Current_Directory>
/home/itssahil/PROJECTS/Mol_Feturizer/New_Systems/rnas/3GX6

>  <Rbt.Executable>
rbdock ($Id: //depot/dev/client3/rdock/2013.1/src/exe/rbdock.cxx#4 $)

>  <Rbt.Library>
libRbt.so (2013.1, Build901 2013/11/27)

>  <Rbt.Parameter_File>
/export/apps/rDock/src/rDock_2013.1_src/data/scripts/dock_solv.prm

>  <Rbt.Receptor>
prm/blind_docking_20.prm

>  <SCORE>
-20.9955

>  <SCORE.INTER>
-9.64636

>  <SCORE.INTER.CONST>
1

>  <SCORE.INTER.POLAR>
0

>  <SCORE.INTER.ROT>
7

>  <SCORE.INTER.SOLV>
11.9729

>  <SCORE.INTER.VDW>
-18.6885

>  <SCORE.INTER.norm>
-0.357273

>  <SCORE.INTRA>
-11.3492

>  <SCORE.INTRA.DIHEDRAL>
-6.9462

>  <SCORE.INTRA.DIHEDRAL.0>
15.0182

>  <SCORE.INTRA.POLAR>
0

>  <SCORE.INTRA.POLAR.0>
0

>  <SCORE.INTRA.REPUL>
0

>  <SCORE.INTRA.REPUL.0>
0

>  <SCORE.INTRA.SOLV>
-1.53622

>  <SCORE.INTRA.SOLV.lig_0>
-47.9129

>  <SCORE.INTRA.VDW>
-7.10797

>  <SCORE.INTRA.VDW.0>
2.00851

>  <SCORE.INTRA.norm>
-0.42034

>  <SCORE.RESTR>
0

>  <SCORE.RESTR.CAVITY>
0

>  <SCORE.RESTR.norm>
0

>  <SCORE.SYSTEM>
0

>  <SCORE.SYSTEM.CONST>
0

>  <SCORE.SYSTEM.DIHEDRAL>
0

>  <SCORE.SYSTEM.SOLV>
0

>  <SCORE.SYSTEM.norm>
0

>  <SCORE.heavy>
27

>  <SCORE.norm>
-0.777612

>  <RMSD>
23.459

$$$$
ligand
 OpenBabel11021811483D
libRbt.so/2013.1/901 2013/11/27
 27 29  0  0  0  0  0  0  0  0999 V2000
   -6.6629    4.0268   17.5531 N   0  0  0  0  0  0  0  0  0  0  0  0
   -6.5345    3.0706   16.4567 C   0  0  2  0  0  0  0  0  0  0  0  0
   -5.2559    3.2940   15.6534 C   0  0  0  0  0  0  0  0  0  0  0  0
   -4.8686    4.4312   15.3759 O   0  0  0  0  0  0  0  0  0  0  0  0
   -7.7677    3.1028   15.5589 C   0  0  0  0  0  0  0  0  0  0  0  0
   -7.8378    1.9330   14.5895 C   0  0  0  0  0  0  0  0  0  0  0  0
   -9.0157    2.1734   13.2363 S   0  0  2  0  0  0  0  0  0  0  0  0
   -8.8720    0.5802   12.3893 C   0  0  0  0  0  0  0  0  0  0  0  0
   -8.0591    3.2492   12.1336 C   0  0  0  0  0  0  0  0  0  0  0  0
   -8.4202    4.7020   12.4081 C   0  0  1  0  0  0  0  0  0  0  0  0
   -7.6899    5.5150   11.5208 O   0  0  0  0  0  0  0  0  0  0  0  0
   -9.8697    5.0774   12.1635 C   0  0  1  0  0  0  0  0  0  0  0  0
  -10.6112    5.0320   13.3621 O   0  0  0  0  0  0  0  0  0  0  0  0
   -9.7736    6.5052   11.6654 C   0  0  1  0  0  0  0  0  0  0  0  0
  -10.1938    7.3651   12.6958 O   0  0  0  0  0  0  0  0  0  0  0  0
   -8.3063    6.7659   11.3529 C   0  0  2  0  0  0  0  0  0  0  0  0
   -4.5873    2.3374   15.2615 O   0  0  0  0  0  0  0  0  0  0  0  0
   -8.1890   10.7547    7.9103 N   0  0  0  0  0  0  0  0  0  0  0  0
   -8.3362   10.8172    9.2820 C   0  0  0  0  0  0  0  0  0  0  0  0
   -8.3480    9.6625   10.0415 N   0  0  0  0  0  0  0  0  0  0  0  0
   -8.2196    8.4524    9.4474 C   0  0  0  0  0  0  0  0  0  0  0  0
   -8.0619    8.3703    8.0694 C   0  0  0  0  0  0  0  0  0  0  0  0
   -8.0518    9.5270    7.2995 C   0  0  0  0  0  0  0  0  0  0  0  0
   -7.9103    9.4477    5.9786 N   0  0  0  0  0  0  0  0  0  0  0  0
   -7.9497    7.0650    7.7423 N   0  0  0  0  0  0  0  0  0  0  0  0
   -8.0149    6.3272    8.8755 C   0  0  0  0  0  0  0  0  0  0  0  0
   -8.1816    7.1702    9.9424 N   0  0  0  0  0  0  0  0  0  0  0  0
  2  1  1  1  0  0  0
  2  3  1  0  0  0  0
  2  5  1  0  0  0  0
  3  4  1  0  0  0  0
  3 17  1  0  0  0  0
  5  6  1  0  0  0  0
  7  6  1  1  0  0  0
  7  8  1  0  0  0  0
  7  9  1  0  0  0  0
 10  9  1  6  0  0  0
 10 11  1  0  0  0  0
 10 12  1  0  0  0  0
 11 16  1  0  0  0  0
 12 13  1  1  0  0  0
 12 14  1  0  0  0  0
 14 15  1  1  0  0  0
 14 16  1  0  0  0  0
 16 27  1  6  0  0  0
 18 19  2  0  0  0  0
 18 23  1  0  0  0  0
 19 20  1  0  0  0  0
 20 21  2  0  0  0  0
 21 22  1  0  0  0  0
 21 27  1  0  0  0  0
 22 23  2  0  0  0  0
 22 25  1  0  0  0  0
 23 24  1  0  0  0  0
 25 26  2  0  0  0  0
 26 27  1  0  0  0  0
M  END
>  <CHROM.1>
-40.97090513,-167.27759304,-164.31853933,-177.11536843,-95.16008369,-178.65265574
-156.01910187,-8.02724122,5.54759994,11.94208414,-1.38607576,-0.79863819
-0.68151169

>  <Name>
ligand

>  <RI>
0

>  <Rbt.Current_Directory>
/home/itssahil/PROJECTS/Mol_Feturizer/New_Systems/rnas/3GX6

>  <Rbt.Executable>
rbdock ($Id: //depot/dev/client3/rdock/2013.1/src/exe/rbdock.cxx#4 $)

>  <Rbt.Library>
libRbt.so (2013.1, Build901 2013/11/27)

>  <Rbt.Parameter_File>
/export/apps/rDock/src/rDock_2013.1_src/data/scripts/dock_solv.prm

>  <Rbt.Receptor>
prm/blind_docking_80.prm

>  <SCORE>
-22.281

>  <SCORE.INTER>
-12.284

>  <SCORE.INTER.CONST>
1

>  <SCORE.INTER.POLAR>
0

>  <SCORE.INTER.ROT>
7

>  <SCORE.INTER.SOLV>
7.05591

>  <SCORE.INTER.VDW>
-18.808

>  <SCORE.INTER.norm>
-0.454965

>  <SCORE.INTRA>
-9.99699

>  <SCORE.INTRA.DIHEDRAL>
-8.23579

>  <SCORE.INTRA.DIHEDRAL.0>
15.0182

>  <SCORE.INTRA.POLAR>
0

>  <SCORE.INTRA.POLAR.0>
0

>  <SCORE.INTRA.REPUL>
0

>  <SCORE.INTRA.REPUL.0>
0

>  <SCORE.INTRA.SOLV>
-1.62197

>  <SCORE.INTRA.SOLV.lig_0>
-47.9129

>  <SCORE.INTRA.VDW>
-5.0681

>  <SCORE.INTRA.VDW.0>
2.00851

>  <SCORE.INTRA.norm>
-0.370259

>  <SCORE.RESTR>
0

>  <SCORE.RESTR.CAVITY>
0

>  <SCORE.RESTR.norm>
0

>  <SCORE.SYSTEM>
0

>  <SCORE.SYSTEM.CONST>
0

>  <SCORE.SYSTEM.DIHEDRAL>
0

>  <SCORE.SYSTEM.SOLV>
0

>  <SCORE.SYSTEM.norm>
0

>  <SCORE.heavy>
27

>  <SCORE.norm>
-0.825223

>  <RMSD>
24.087

$$$$
ligand
 OpenBabel11021811483D
libRbt.so/2013.1/901 2013/11/27
 27 29  0  0  0  0  0  0  0  0999 V2000
   -7.8178    1.2837   15.8723 N   0  0  0  0  0  0  0  0  0  0  0  0
   -9.0022    1.8217   15.2083 C   0  0  2  0  0  0  0  0  0  0  0  0
  -10.1913    0.8695   15.3058 C   0  0  0  0  0  0  0  0  0  0  0  0
  -10.2947    0.0736   16.2418 O   0  0  0  0  0  0  0  0  0  0  0  0
   -8.6966    2.1824   13.7576 C   0  0  0  0  0  0  0  0  0  0  0  0
   -7.5140    3.1269   13.6080 C   0  0  0  0  0  0  0  0  0  0  0  0
   -7.2342    3.6859   11.9093 S   0  0  2  0  0  0  0  0  0  0  0  0
   -5.5590    4.3558   12.0561 C   0  0  0  0  0  0  0  0  0  0  0  0
   -8.2228    5.2058   11.8793 C   0  0  0  0  0  0  0  0  0  0  0  0
   -8.0485    5.8944   10.5333 C   0  0  1  0  0  0  0  0  0  0  0  0
   -8.3803    4.9757    9.5196 O   0  0  0  0  0  0  0  0  0  0  0  0
   -8.9551    7.0844   10.2806 C   0  0  1  0  0  0  0  0  0  0  0  0
   -8.2979    8.2932   10.5898 O   0  0  0  0  0  0  0  0  0  0  0  0
   -9.2193    7.0026    8.7908 C   0  0  1  0  0  0  0  0  0  0  0  0
   -8.4719    8.0073    8.1506 O   0  0  0  0  0  0  0  0  0  0  0  0
   -8.7317    5.6355    8.3305 C   0  0  2  0  0  0  0  0  0  0  0  0
  -11.0708    0.8754   14.4443 O   0  0  0  0  0  0  0  0  0  0  0  0
  -13.3791    6.0043    5.8726 N   0  0  0  0  0  0  0  0  0  0  0  0
  -12.5800    7.0280    6.3421 C   0  0  0  0  0  0  0  0  0  0  0  0
  -11.3809    6.7522    6.9714 N   0  0  0  0  0  0  0  0  0  0  0  0
  -10.9762    5.4709    7.1398 C   0  0  0  0  0  0  0  0  0  0  0  0
  -11.7629    4.4281    6.6664 C   0  0  0  0  0  0  0  0  0  0  0  0
  -12.9709    4.6981    6.0351 C   0  0  0  0  0  0  0  0  0  0  0  0
  -13.7288    3.6987    5.5902 N   0  0  0  0  0  0  0  0  0  0  0  0
  -11.1317    3.2694    6.9540 N   0  0  0  0  0  0  0  0  0  0  0  0
   -9.9648    3.5551    7.5780 C   0  0  0  0  0  0  0  0  0  0  0  0
   -9.8512    4.9147    7.7015 N   0  0  0  0  0  0  0  0  0  0  0  0
  2  1  1  6  0  0  0
  2  3  1  0  0  0  0
  2  5  1  0  0  0  0
  3  4  1  0  0  0  0
  3 17  1  0  0  0  0
  5  6  1  0  0  0  0
  7  6  1  1  0  0  0
  7  8  1  0  0  0  0
  7  9  1  0  0  0  0
 10  9  1  1  0  0  0
 10 11  1  0  0  0  0
 10 12  1  0  0  0  0
 11 16  1  0  0  0  0
 12 13  1  6  0  0  0
 12 14  1  0  0  0  0
 14 15  1  6  0  0  0
 14 16  1  0  0  0  0
 16 27  1  1  0  0  0
 18 19  2  0  0  0  0
 18 23  1  0  0  0  0
 19 20  1  0  0  0  0
 20 21  2  0  0  0  0
 21 22  1  0  0  0  0
 21 27  1  0  0  0  0
 22 23  2  0  0  0  0
 22 25  1  0  0  0  0
 23 24  1  0  0  0  0
 25 26  2  0  0  0  0
 26 27  1  0  0  0  0
M  END
>  <CHROM.1>
27.06877304,-54.46413588,-174.61991053,-164.84996622,176.36829011,55.22379335
136.24919338,-9.57886607,4.40589240,10.30724713,1.19473047,0.63313131,2.26512313

>  <Name>
ligand

>  <RI>
0

>  <Rbt.Current_Directory>
/home/itssahil/PROJECTS/Mol_Feturizer/New_Systems/rnas/3GX6

>  <Rbt.Executable>
rbdock ($Id: //depot/dev/client3/rdock/2013.1/src/exe/rbdock.cxx#4 $)

>  <Rbt.Library>
libRbt.so (2013.1, Build901 2013/11/27)

>  <Rbt.Parameter_File>
/export/apps/rDock/src/rDock_2013.1_src/data/scripts/dock_solv.prm

>  <Rbt.Receptor>
prm/blind_docking_100.prm

>  <SCORE>
-18.6666

>  <SCORE.INTER>
-10.1016

>  <SCORE.INTER.CONST>
1

>  <SCORE.INTER.POLAR>
0

>  <SCORE.INTER.ROT>
7

>  <SCORE.INTER.SOLV>
9.95855

>  <SCORE.INTER.VDW>
-18.3206

>  <SCORE.INTER.norm>
-0.374133

>  <SCORE.INTRA>
-8.56502

>  <SCORE.INTRA.DIHEDRAL>
-10.0191

>  <SCORE.INTRA.DIHEDRAL.0>
15.0182

>  <SCORE.INTRA.POLAR>
0

>  <SCORE.INTRA.POLAR.0>
0

>  <SCORE.INTRA.REPUL>
0

>  <SCORE.INTRA.REPUL.0>
0

>  <SCORE.INTRA.SOLV>
-1.02029

>  <SCORE.INTRA.SOLV.lig_0>
-47.9129

>  <SCORE.INTRA.VDW>
-3.04533

>  <SCORE.INTRA.VDW.0>
2.00851

>  <SCORE.INTRA.norm>
-0.317223

>  <SCORE.RESTR>
0

>  <SCORE.RESTR.CAVITY>
0

>  <SCORE.RESTR.norm>
0

>  <SCORE.SYSTEM>
0

>  <SCORE.SYSTEM.CONST>
0

>  <SCORE.SYSTEM.DIHEDRAL>
0

>  <SCORE.SYSTEM.SOLV>
0

>  <SCORE.SYSTEM.norm>
0

>  <SCORE.heavy>
27

>  <SCORE.norm>
-0.691356

>  <RMSD>
24.727

$$$$
ligand
 OpenBabel11021811483D
libRbt.so/2013.1/901 2013/11/27
 27 29  0  0  0  0  0  0  0  0999 V2000
   -7.3549    3.6469   17.4413 N   0  0  0  0  0  0  0  0  0  0  0  0
   -6.8165    3.3335   16.1204 C   0  0  2  0  0  0  0  0  0  0  0  0
   -5.3105    3.0881   16.1631 C   0  0  0  0  0  0  0  0  0  0  0  0
   -4.6037    3.6144   17.0255 O   0  0  0  0  0  0  0  0  0  0  0  0
   -7.1736    4.4233   15.1141 C   0  0  0  0  0  0  0  0  0  0  0  0
   -8.6723    4.6042   14.9285 C   0  0  0  0  0  0  0  0  0  0  0  0
   -9.1113    5.8280   13.6692 S   0  0  2  0  0  0  0  0  0  0  0  0
  -10.9112    5.8616   13.8578 C   0  0  0  0  0  0  0  0  0  0  0  0
   -8.9313    4.8453   12.1559 C   0  0  0  0  0  0  0  0  0  0  0  0
   -8.6908    5.7758   10.9758 C   0  0  1  0  0  0  0  0  0  0  0  0
   -8.8553    5.0371    9.7888 O   0  0  0  0  0  0  0  0  0  0  0  0
   -9.6623    6.9334   10.8418 C   0  0  1  0  0  0  0  0  0  0  0  0
   -9.1339    8.1046   11.4231 O   0  0  0  0  0  0  0  0  0  0  0  0
   -9.7829    7.1066    9.3413 C   0  0  1  0  0  0  0  0  0  0  0  0
   -9.0626    8.2550    8.9667 O   0  0  0  0  0  0  0  0  0  0  0  0
   -9.1485    5.8784    8.7028 C   0  0  2  0  0  0  0  0  0  0  0  0
   -4.7705    2.3605   15.3297 O   0  0  0  0  0  0  0  0  0  0  0  0
  -13.3401    6.4646    5.5624 N   0  0  0  0  0  0  0  0  0  0  0  0
  -12.6360    7.4437    6.2351 C   0  0  0  0  0  0  0  0  0  0  0  0
  -11.5521    7.1128    7.0263 N   0  0  0  0  0  0  0  0  0  0  0  0
  -11.1695    5.8202    7.1553 C   0  0  0  0  0  0  0  0  0  0  0  0
  -11.8606    4.8223    6.4792 C   0  0  0  0  0  0  0  0  0  0  0  0
  -12.9528    5.1477    5.6842 C   0  0  0  0  0  0  0  0  0  0  0  0
  -13.6205    4.1907    5.0443 N   0  0  0  0  0  0  0  0  0  0  0  0
  -11.2747    3.6414    6.7719 N   0  0  0  0  0  0  0  0  0  0  0  0
  -10.2265    3.8707    7.5974 C   0  0  0  0  0  0  0  0  0  0  0  0
  -10.1456    5.2155    7.8455 N   0  0  0  0  0  0  0  0  0  0  0  0
  2  1  1  1  0  0  0
  2  3  1  0  0  0  0
  2  5  1  0  0  0  0
  3  4  1  0  0  0  0
  3 17  1  0  0  0  0
  5  6  1  0  0  0  0
  7  6  1  1  0  0  0
  7  8  1  0  0  0  0
  7  9  1  0  0  0  0
 10  9  1  1  0  0  0
 10 11  1  0  0  0  0
 10 12  1  0  0  0  0
 11 16  1  0  0  0  0
 12 13  1  1  0  0  0
 12 14  1  0  0  0  0
 14 15  1  6  0  0  0
 14 16  1  0  0  0  0
 16 27  1  6  0  0  0
 18 19  2  0  0  0  0
 18 23  1  0  0  0  0
 19 20  1  0  0  0  0
 20 21  2  0  0  0  0
 21 22  1  0  0  0  0
 21 27  1  0  0  0  0
 22 23  2  0  0  0  0
 22 25  1  0  0  0  0
 23 24  1  0  0  0  0
 25 26  2  0  0  0  0
 26 27  1  0  0  0  0
M  END
>  <CHROM.1>
-27.38519549,-60.69773859,-176.71621582,-174.99866974,-156.81813603,-166.88363525
144.09187133,-9.41073064,5.30788911,10.90279304,-0.28706996,1.03510453,-2.61414967

>  <Name>
ligand

>  <RI>
0

>  <Rbt.Current_Directory>
/home/itssahil/PROJECTS/Mol_Feturizer/New_Systems/rnas/3GX6

>  <Rbt.Executable>
rbdock ($Id: //depot/dev/client3/rdock/2013.1/src/exe/rbdock.cxx#4 $)

>  <Rbt.Library>
libRbt.so (2013.1, Build901 2013/11/27)

>  <Rbt.Parameter_File>
/export/apps/rDock/src/rDock_2013.1_src/data/scripts/dock_solv.prm

>  <Rbt.Receptor>
prm/blind_docking_100.prm

>  <SCORE>
-18.1282

>  <SCORE.INTER>
-9.65137

>  <SCORE.INTER.CONST>
1

>  <SCORE.INTER.POLAR>
0

>  <SCORE.INTER.ROT>
7

>  <SCORE.INTER.SOLV>
7.68642

>  <SCORE.INTER.VDW>
-17.2631

>  <SCORE.INTER.norm>
-0.357458

>  <SCORE.INTRA>
-8.48072

>  <SCORE.INTRA.DIHEDRAL>
-8.328

>  <SCORE.INTRA.DIHEDRAL.0>
15.0182

>  <SCORE.INTRA.POLAR>
0

>  <SCORE.INTRA.POLAR.0>
0

>  <SCORE.INTRA.REPUL>
0

>  <SCORE.INTRA.REPUL.0>
0

>  <SCORE.INTRA.SOLV>
-0.826328

>  <SCORE.INTRA.SOLV.lig_0>
-47.9129

>  <SCORE.INTRA.VDW>
-3.90356

>  <SCORE.INTRA.VDW.0>
2.00851

>  <SCORE.INTRA.norm>
-0.314101

>  <SCORE.RESTR>
0.00388572

>  <SCORE.RESTR.CAVITY>
0.00388572

>  <SCORE.RESTR.norm>
0.000143915

>  <SCORE.SYSTEM>
0

>  <SCORE.SYSTEM.CONST>
0

>  <SCORE.SYSTEM.DIHEDRAL>
0

>  <SCORE.SYSTEM.SOLV>
0

>  <SCORE.SYSTEM.norm>
0

>  <SCORE.heavy>
27

>  <SCORE.norm>
-0.671415

>  <RMSD>
24.817

$$$$
ligand
 OpenBabel11021811483D
libRbt.so/2013.1/901 2013/11/27
 27 29  0  0  0  0  0  0  0  0999 V2000
   -8.2448    3.3983   14.4787 N   0  0  0  0  0  0  0  0  0  0  0  0
   -8.5081    4.5718   15.3072 C   0  0  2  0  0  0  0  0  0  0  0  0
   -8.4196    4.2487   16.7964 C   0  0  0  0  0  0  0  0  0  0  0  0
   -7.8758    5.0248   17.5853 O   0  0  0  0  0  0  0  0  0  0  0  0
   -9.8539    5.1974   14.9533 C   0  0  0  0  0  0  0  0  0  0  0  0
   -9.7917    6.1157   13.7425 C   0  0  0  0  0  0  0  0  0  0  0  0
   -9.1500    5.3169   12.2504 S   0  0  2  0  0  0  0  0  0  0  0  0
   -7.3812    5.6564   12.4314 C   0  0  0  0  0  0  0  0  0  0  0  0
   -9.6160    6.5277   10.9835 C   0  0  0  0  0  0  0  0  0  0  0  0
   -8.9391    6.1681    9.6687 C   0  0  1  0  0  0  0  0  0  0  0  0
   -9.3035    4.8515    9.3288 O   0  0  0  0  0  0  0  0  0  0  0  0
   -9.3502    6.9993    8.4679 C   0  0  1  0  0  0  0  0  0  0  0  0
   -8.4372    8.0510    8.2466 O   0  0  0  0  0  0  0  0  0  0  0  0
   -9.2854    6.0056    7.3259 C   0  0  1  0  0  0  0  0  0  0  0  0
   -8.1394    6.2829    6.5593 O   0  0  0  0  0  0  0  0  0  0  0  0
   -9.1563    4.6230    7.9507 C   0  0  2  0  0  0  0  0  0  0  0  0
   -8.8875    3.1993   17.2386 O   0  0  0  0  0  0  0  0  0  0  0  0
  -10.7203   -0.1772    6.4381 N   0  0  0  0  0  0  0  0  0  0  0  0
   -9.4588    0.2229    6.8324 C   0  0  0  0  0  0  0  0  0  0  0  0
   -9.2190    1.5340    7.1983 N   0  0  0  0  0  0  0  0  0  0  0  0
  -10.2201    2.4455    7.1701 C   0  0  0  0  0  0  0  0  0  0  0  0
  -11.4978    2.0594    6.7843 C   0  0  0  0  0  0  0  0  0  0  0  0
  -11.7453    0.7435    6.4126 C   0  0  0  0  0  0  0  0  0  0  0  0
  -12.9671    0.3761    6.0340 N   0  0  0  0  0  0  0  0  0  0  0  0
  -12.2969    3.1459    6.8518 N   0  0  0  0  0  0  0  0  0  0  0  0
  -11.5626    4.1975    7.2849 C   0  0  0  0  0  0  0  0  0  0  0  0
  -10.2731    3.7821    7.4878 N   0  0  0  0  0  0  0  0  0  0  0  0
  2  1  1  6  0  0  0
  2  3  1  0  0  0  0
  2  5  1  0  0  0  0
  3  4  1  0  0  0  0
  3 17  1  0  0  0  0
  5  6  1  0  0  0  0
  7  6  1  1  0  0  0
  7  8  1  0  0  0  0
  7  9  1  0  0  0  0
 10  9  1  1  0  0  0
 10 11  1  0  0  0  0
 10 12  1  0  0  0  0
 11 16  1  0  0  0  0
 12 13  1  6  0  0  0
 12 14  1  0  0  0  0
 14 15  1  6  0  0  0
 14 16  1  0  0  0  0
 16 27  1  6  0  0  0
 18 19  2  0  0  0  0
 18 23  1  0  0  0  0
 19 20  1  0  0  0  0
 20 21  2  0  0  0  0
 21 22  1  0  0  0  0
 21 27  1  0  0  0  0
 22 23  2  0  0  0  0
 22 25  1  0  0  0  0
 23 24  1  0  0  0  0
 25 26  2  0  0  0  0
 26 27  1  0  0  0  0
M  END
>  <CHROM.1>
138.66393659,-82.27792845,56.57329741,-90.02652776,169.62548079,56.56053521
-104.99881900,-9.56538143,4.22590233,10.26945360,0.86469104,1.21608667,1.98608643

>  <Name>
ligand

>  <RI>
0

>  <Rbt.Current_Directory>
/home/itssahil/PROJECTS/Mol_Feturizer/New_Systems/rnas/3GX6

>  <Rbt.Executable>
rbdock ($Id: //depot/dev/client3/rdock/2013.1/src/exe/rbdock.cxx#4 $)

>  <Rbt.Library>
libRbt.so (2013.1, Build901 2013/11/27)

>  <Rbt.Parameter_File>
/export/apps/rDock/src/rDock_2013.1_src/data/scripts/dock_solv.prm

>  <Rbt.Receptor>
prm/blind_docking_20.prm

>  <SCORE>
-17.0146

>  <SCORE.INTER>
-9.72792

>  <SCORE.INTER.CONST>
1

>  <SCORE.INTER.POLAR>
0

>  <SCORE.INTER.ROT>
7

>  <SCORE.INTER.SOLV>
7.23959

>  <SCORE.INTER.VDW>
-17.1651

>  <SCORE.INTER.norm>
-0.360293

>  <SCORE.INTRA>
-7.73157

>  <SCORE.INTRA.DIHEDRAL>
-8.64776

>  <SCORE.INTRA.DIHEDRAL.0>
15.0182

>  <SCORE.INTRA.POLAR>
0

>  <SCORE.INTRA.POLAR.0>
0

>  <SCORE.INTRA.REPUL>
0

>  <SCORE.INTRA.REPUL.0>
0

>  <SCORE.INTRA.SOLV>
1.01926

>  <SCORE.INTRA.SOLV.lig_0>
-47.9129

>  <SCORE.INTRA.VDW>
-3.91733

>  <SCORE.INTRA.VDW.0>
2.00851

>  <SCORE.INTRA.norm>
-0.286355

>  <SCORE.RESTR>
0.444859

>  <SCORE.RESTR.CAVITY>
0.444859

>  <SCORE.RESTR.norm>
0.0164763

>  <SCORE.SYSTEM>
0

>  <SCORE.SYSTEM.CONST>
0

>  <SCORE.SYSTEM.DIHEDRAL>
0

>  <SCORE.SYSTEM.SOLV>
0

>  <SCORE.SYSTEM.norm>
0

>  <SCORE.heavy>
27

>  <SCORE.norm>
-0.630172

>  <RMSD>
24.915

$$$$
ligand
 OpenBabel11021811483D
libRbt.so/2013.1/901 2013/11/27
 27 29  0  0  0  0  0  0  0  0999 V2000
   -5.3148    3.8559   12.4359 N   0  0  0  0  0  0  0  0  0  0  0  0
   -6.4965    4.1996   13.2222 C   0  0  2  0  0  0  0  0  0  0  0  0
   -6.1820    4.2889   14.7132 C   0  0  0  0  0  0  0  0  0  0  0  0
   -5.1521    3.7949   15.1775 O   0  0  0  0  0  0  0  0  0  0  0  0
   -7.6344    3.2198   12.9519 C   0  0  0  0  0  0  0  0  0  0  0  0
   -8.9769    3.6930   13.4874 C   0  0  0  0  0  0  0  0  0  0  0  0
   -9.7059    5.0508   12.5381 S   0  0  2  0  0  0  0  0  0  0  0  0
  -11.3745    5.0824   13.2391 C   0  0  0  0  0  0  0  0  0  0  0  0
  -10.0054    4.2364   10.9458 C   0  0  0  0  0  0  0  0  0  0  0  0
  -10.9031    5.1178   10.0893 C   0  0  1  0  0  0  0  0  0  0  0  0
  -10.2410    6.3398    9.8660 O   0  0  0  0  0  0  0  0  0  0  0  0
  -11.2101    4.5914    8.6999 C   0  0  1  0  0  0  0  0  0  0  0  0
  -12.4469    3.9141    8.6795 O   0  0  0  0  0  0  0  0  0  0  0  0
  -11.2952    5.8543    7.8669 C   0  0  1  0  0  0  0  0  0  0  0  0
  -12.6485    6.1080    7.5805 O   0  0  0  0  0  0  0  0  0  0  0  0
  -10.7361    6.9845    8.7204 C   0  0  2  0  0  0  0  0  0  0  0  0
   -6.9576    4.8542   15.4842 O   0  0  0  0  0  0  0  0  0  0  0  0
   -7.4789   11.1156    8.4033 N   0  0  0  0  0  0  0  0  0  0  0  0
   -8.4931   10.8983    9.3151 C   0  0  0  0  0  0  0  0  0  0  0  0
   -9.2607    9.7506    9.2531 N   0  0  0  0  0  0  0  0  0  0  0  0
   -9.0298    8.8250    8.2920 C   0  0  0  0  0  0  0  0  0  0  0  0
   -8.0081    9.0224    7.3713 C   0  0  0  0  0  0  0  0  0  0  0  0
   -7.2343   10.1752    7.4261 C   0  0  0  0  0  0  0  0  0  0  0  0
   -6.2619   10.3686    6.5383 N   0  0  0  0  0  0  0  0  0  0  0  0
   -7.9888    7.9587    6.5395 N   0  0  0  0  0  0  0  0  0  0  0  0
   -8.9562    7.0923    6.9217 C   0  0  0  0  0  0  0  0  0  0  0  0
   -9.6115    7.6123    8.0066 N   0  0  0  0  0  0  0  0  0  0  0  0
  2  1  1  6  0  0  0
  2  3  1  0  0  0  0
  2  5  1  0  0  0  0
  3  4  1  0  0  0  0
  3 17  1  0  0  0  0
  5  6  1  0  0  0  0
  7  6  1  1  0  0  0
  7  8  1  0  0  0  0
  7  9  1  0  0  0  0
 10  9  1  6  0  0  0
 10 11  1  0  0  0  0
 10 12  1  0  0  0  0
 11 16  1  0  0  0  0
 12 13  1  1  0  0  0
 12 14  1  0  0  0  0
 14 15  1  1  0  0  0
 14 16  1  0  0  0  0
 16 27  1  6  0  0  0
 18 19  2  0  0  0  0
 18 23  1  0  0  0  0
 19 20  1  0  0  0  0
 20 21  2  0  0  0  0
 21 22  1  0  0  0  0
 21 27  1  0  0  0  0
 22 23  2  0  0  0  0
 22 25  1  0  0  0  0
 23 24  1  0  0  0  0
 25 26  2  0  0  0  0
 26 27  1  0  0  0  0
M  END
>  <CHROM.1>
-16.93276223,-166.98191716,72.77826290,168.75422956,167.44713948,61.12266817
-81.95047343,-8.94642462,6.29370998,10.33003125,-1.35867596,-0.51598365,-0.81986261

>  <Name>
ligand

>  <RI>
0

>  <Rbt.Current_Directory>
/home/itssahil/PROJECTS/Mol_Feturizer/New_Systems/rnas/3GX6

>  <Rbt.Executable>
rbdock ($Id: //depot/dev/client3/rdock/2013.1/src/exe/rbdock.cxx#4 $)

>  <Rbt.Library>
libRbt.so (2013.1, Build901 2013/11/27)

>  <Rbt.Parameter_File>
/export/apps/rDock/src/rDock_2013.1_src/data/scripts/dock_solv.prm

>  <Rbt.Receptor>
prm/blind_docking_20.prm

>  <SCORE>
-17.6969

>  <SCORE.INTER>
-7.94267

>  <SCORE.INTER.CONST>
1

>  <SCORE.INTER.POLAR>
0

>  <SCORE.INTER.ROT>
7

>  <SCORE.INTER.SOLV>
12.755

>  <SCORE.INTER.VDW>
-17.8134

>  <SCORE.INTER.norm>
-0.294173

>  <SCORE.INTRA>
-9.75418

>  <SCORE.INTRA.DIHEDRAL>
-10.5372

>  <SCORE.INTRA.DIHEDRAL.0>
15.0182

>  <SCORE.INTRA.POLAR>
0

>  <SCORE.INTRA.POLAR.0>
0

>  <SCORE.INTRA.REPUL>
0

>  <SCORE.INTRA.REPUL.0>
0

>  <SCORE.INTRA.SOLV>
-1.70876

>  <SCORE.INTRA.SOLV.lig_0>
-47.9129

>  <SCORE.INTRA.VDW>
-3.6312

>  <SCORE.INTRA.VDW.0>
2.00851

>  <SCORE.INTRA.norm>
-0.361266

>  <SCORE.RESTR>
0

>  <SCORE.RESTR.CAVITY>
0

>  <SCORE.RESTR.norm>
0

>  <SCORE.SYSTEM>
0

>  <SCORE.SYSTEM.CONST>
0

>  <SCORE.SYSTEM.DIHEDRAL>
0

>  <SCORE.SYSTEM.SOLV>
0

>  <SCORE.SYSTEM.norm>
0

>  <SCORE.heavy>
27

>  <SCORE.norm>
-0.655439

>  <RMSD>
25.589

$$$$
