@<TRIPOS>MOLECULE
3GX6_rdock.pdb
 2029 2275 0 0 0
SMALL
GASTEIGER

@<TRIPOS>ATOM
      1  P          3.3110   -8.5380   32.2540 P.3     1  G1          0.1280
      2  C5'        5.0970  -10.4450   32.5330 C.3     1  G1          0.1795
      3  O5'        4.0820   -9.6370   33.1220 O.3     1  G1         -0.3259
      4  C4'        6.0640  -10.9420   33.5950 C.3     1  G1          0.1772
      5  O4'        6.5780   -9.8040   34.3340 O.3     1  G1         -0.3307
      6  C3'        5.4560  -11.8560   34.6530 C.3     1  G1          0.1860
      7  O3'        5.5310  -13.2190   34.2580 O.3     1  G1         -0.3112
      8  C2'        6.3350  -11.5840   35.8680 C.3     1  G1          0.2309
      9  O2'        7.5570  -12.2960   35.8250 O.3     1  G1         -0.2156
     10  C1'        6.5790  -10.0850   35.7220 C.3     1  G1          0.2408
     11  N1         4.0460   -9.1530   40.0280 N.ar    1  G1         -0.1709
     12  C2         5.0120  -10.0990   39.7720 C.ar    1  G1          0.2606
     13  N2         5.3540  -10.9040   40.7910 N.pl3   1  G1         -0.0859
     14  N3         5.6070  -10.2450   38.5960 N.ar    1  G1         -0.1918
     15  C4         5.1460   -9.3550   37.6830 C.ar    1  G1          0.1723
     16  C5         4.1880   -8.3780   37.8410 C.ar    1  G1          0.1748
     17  C6         3.5610   -8.2290   39.1000 C.ar    1  G1          0.3023
     18  O6         2.6860   -7.4140   39.4280 O.2     1  G1         -0.2633
     19  N7         3.9980   -7.6680   36.6610 N.ar    1  G1         -0.2173
     20  C8         4.8310   -8.2300   35.8280 C.ar    1  G1          0.1817
     21  N9         5.5650   -9.2580   36.3780 N.ar    1  G1         -0.2693
     22  OP1        4.3210   -7.7830   31.4830 O.3     1  G1         -0.1955
     23  OP2        2.4150   -7.7990   33.1730 O.co2   1  G1         -0.7863
     24  P          4.1890  -14.0880   34.2680 P.3     2  G2          0.2141
     25  C5'        4.7790  -15.8190   36.1550 C.3     2  G2          0.1812
     26  O5'        4.0980  -14.6260   35.7760 O.3     2  G2         -0.3114
     27  C4'        4.6230  -16.1100   37.6390 C.3     2  G2          0.1773
     28  O4'        5.0580  -14.9610   38.4090 O.3     2  G2         -0.3307
     29  C3'        3.2020  -16.3730   38.1170 C.3     2  G2          0.1860
     30  O3'        2.8630  -17.7390   37.9510 O.3     2  G2         -0.3112
     31  C2'        3.3130  -16.0140   39.5930 C.3     2  G2          0.2309
     32  O2'        3.9480  -17.0250   40.3490 O.3     2  G2         -0.2156
     33  C1'        4.2020  -14.7800   39.5230 C.3     2  G2          0.2408
     34  N1         1.3100  -11.2720   41.7940 N.ar    2  G2         -0.1709
     35  C2         1.9040  -12.3940   42.3240 C.ar    2  G2          0.2606
     36  N2         1.7020  -12.6160   43.6310 N.pl3   2  G2         -0.0859
     37  N3         2.6450  -13.2450   41.6260 N.ar    2  G2         -0.1918
     38  C4         2.7450  -12.8720   40.3280 C.ar    2  G2          0.1723
     39  C5         2.1930  -11.7750   39.7050 C.ar    2  G2          0.1748
     40  C6         1.4040  -10.8750   40.4620 C.ar    2  G2          0.3023
     41  O6         0.8300   -9.8440   40.0820 O.2     2  G2         -0.2633
     42  N7         2.5360  -11.7550   38.3600 N.ar    2  G2         -0.2173
     43  C8         3.2720  -12.8200   38.1980 C.ar    2  G2          0.1817
     44  N9         3.4430  -13.5450   39.3520 N.ar    2  G2         -0.2693
     45  OP1        4.4010  -15.2560   33.3870 O.2     2  G2         -0.5172
     46  OP2        3.0570  -13.1660   34.0080 O.co2   2  G2         -0.4373
     47  P          1.3230  -18.1510   37.8400 P.3     3  C3          0.2141
     48  C5'        1.2090  -18.8780   40.3710 C.3     3  C3          0.1812
     49  O5'        0.7880  -17.9970   39.3400 O.3     3  C3         -0.3114
     50  C4'        0.6230  -18.4330   41.6990 C.3     3  C3          0.1773
     51  O4'        1.0790  -17.0910   42.0070 O.3     3  C3         -0.3307
     52  C3'       -0.8910  -18.2970   41.7340 C.3     3  C3          0.1860
     53  O3'       -1.5240  -19.5500   41.9360 O.3     3  C3         -0.3112
     54  C2'       -1.0700  -17.3900   42.9420 C.3     3  C3          0.2309
     55  O2'       -0.8850  -18.0800   44.1610 O.3     3  C3         -0.2156
     56  C1'        0.0680  -16.4010   42.7220 C.3     3  C3          0.2420
     57  N1        -0.3510  -15.1920   41.9550 N.ar    3  C3         -0.2535
     58  C2        -0.9640  -14.1310   42.6340 C.ar    3  C3          0.3532
     59  O2        -1.1450  -14.2180   43.8570 O.2     3  C3         -0.2443
     60  N3        -1.3430  -13.0310   41.9310 N.ar    3  C3         -0.1739
     61  C4        -1.1330  -12.9710   40.6140 C.ar    3  C3          0.1759
     62  N4        -1.5270  -11.8670   39.9700 N.pl3   3  C3         -0.1070
     63  C5        -0.5110  -14.0440   39.9070 C.ar    3  C3          0.0566
     64  C6        -0.1400  -15.1230   40.6080 C.ar    3  C3          0.0850
     65  OP1        1.2750  -19.5850   37.4840 O.3     3  C3         -0.4373
     66  OP2        0.6310  -17.1500   36.9960 O.co2   3  C3         -0.5172
     67  P         -2.8510  -19.8620   41.1000 P.3     4  U4          0.2141
     68  C5'       -4.1860  -19.1700   43.2400 C.3     4  U4          0.1812
     69  O5'       -3.9770  -19.0040   41.8460 O.3     4  U4         -0.3114
     70  C4'       -5.0600  -18.0620   43.7970 C.3     4  U4          0.1773
     71  O4'       -4.4380  -16.7750   43.5790 O.3     4  U4         -0.3307
     72  C3'       -6.4090  -17.8970   43.1210 C.3     4  U4          0.1860
     73  O3'       -7.3330  -18.8640   43.5860 O.3     4  U4         -0.3112
     74  C2'       -6.7980  -16.4940   43.5710 C.3     4  U4          0.2309
     75  O2'       -7.3940  -16.4900   44.8520 O.3     4  U4         -0.2156
     76  C1'       -5.4470  -15.7820   43.6070 C.3     4  U4          0.2420
     77  N1        -5.2490  -14.8550   42.4580 N.ar    4  U4         -0.2534
     78  C2        -5.9630  -13.6750   42.4210 C.ar    4  U4          0.3546
     79  O2        -6.7560  -13.3450   43.2860 O.2     4  U4         -0.2443
     80  N3        -5.7190  -12.8840   41.3260 N.ar    4  U4         -0.1530
     81  C4        -4.8500  -13.1480   40.2870 C.ar    4  U4          0.2846
     82  O4        -4.7380  -12.3390   39.3710 O.2     4  U4         -0.2650
     83  C5        -4.1430  -14.3980   40.3980 C.ar    4  U4          0.0814
     84  C6        -4.3630  -15.1890   41.4560 C.ar    4  U4          0.0870
     85  OP1       -3.1640  -21.2990   41.2710 O.3     4  U4         -0.4373
     86  OP2       -2.6600  -19.2990   39.7440 O.co2   4  U4         -0.5172
     87  P         -8.2640  -19.5980   42.5140 P.3     5  U5          0.2141
     88  C5'      -10.2780  -18.0200   43.0110 C.3     5  U5          0.1812
     89  O5'       -9.2820  -18.4380   42.0920 O.3     5  U5         -0.3114
     90  C4'      -10.8780  -16.6940   42.5860 C.3     5  U5          0.1773
     91  O4'       -9.8180  -15.7450   42.3320 O.3     5  U5         -0.3307
     92  C3'      -11.6310  -16.7030   41.2680 C.3     5  U5          0.1860
     93  O3'      -12.9390  -17.2320   41.4340 O.3     5  U5         -0.3112
     94  C2'      -11.6610  -15.2170   40.9260 C.3     5  U5          0.2309
     95  O2'      -12.6900  -14.5240   41.6040 O.3     5  U5         -0.2156
     96  C1'      -10.3090  -14.7490   41.4540 C.3     5  U5          0.2420
     97  N1        -9.2840  -14.5090   40.4090 N.ar    5  U5         -0.2534
     98  C2        -9.2880  -13.3050   39.7410 C.ar    5  U5          0.3546
     99  O2       -10.1030  -12.4250   39.9530 O.2     5  U5         -0.2443
    100  N3        -8.2980  -13.1680   38.8040 N.ar    5  U5         -0.1530
    101  C4        -7.3260  -14.0960   38.4800 C.ar    5  U5          0.2846
    102  O4        -6.5010  -13.8250   37.6150 O.2     5  U5         -0.2650
    103  C5        -7.3860  -15.3270   39.2240 C.ar    5  U5          0.0814
    104  C6        -8.3440  -15.4830   40.1450 C.ar    5  U5          0.0870
    105  OP1       -9.0420  -20.6390   43.2240 O.3     5  U5         -0.4373
    106  OP2       -7.4200  -19.9630   41.3520 O.co2   5  U5         -0.5172
    107  P        -13.6870  -17.8050   40.1410 P.3     6  A6          0.2141
    108  C5'      -15.2300  -15.6950   40.0430 C.3     6  A6          0.1812
    109  O5'      -14.1930  -16.4560   39.4460 O.3     6  A6         -0.3114
    110  C4'      -15.4280  -14.3790   39.3100 C.3     6  A6          0.1773
    111  O4'      -14.2170  -13.5870   39.3950 O.3     6  A6         -0.3307
    112  C3'      -15.6730  -14.4720   37.8130 C.3     6  A6          0.1860
    113  O3'      -17.0350  -14.7840   37.5300 O.3     6  A6         -0.3112
    114  C2'      -15.3290  -13.0450   37.4110 C.3     6  A6          0.2309
    115  O2'      -16.3010  -12.1260   37.8570 O.3     6  A6         -0.2156
    116  C1'      -14.0590  -12.8230   38.2160 C.3     6  A6          0.2408
    117  N1       -10.2670  -11.4450   35.0150 N.ar    6  A6         -0.2040
    118  C2       -11.3470  -10.7890   35.4540 C.ar    6  A6          0.2016
    119  N3       -12.2990  -11.2070   36.2880 N.ar    6  A6         -0.2048
    120  C4       -12.0590  -12.4660   36.6910 C.ar    6  A6          0.1692
    121  C5       -10.9910  -13.2660   36.3260 C.ar    6  A6          0.1518
    122  C6       -10.0520  -12.7080   35.4390 C.ar    6  A6          0.1919
    123  N6        -8.9730  -13.3660   35.0020 N.pl3   6  A6         -0.1054
    124  N7       -11.0710  -14.5050   36.9370 N.ar    6  A6         -0.2193
    125  C8       -12.1730  -14.4300   37.6500 C.ar    6  A6          0.1816
    126  N9       -12.8220  -13.2280   37.5480 N.ar    6  A6         -0.2693
    127  OP1      -14.8760  -18.5710   40.5790 O.3     6  A6         -0.4373
    128  OP2      -12.6700  -18.4640   39.2810 O.co2   6  A6         -0.5172
    129  P        -17.3850  -15.6930   36.2580 P.3     7  U7          0.2141
    130  C5'      -17.9870  -13.5370   34.9330 C.3     7  U7          0.1812
    131  O5'      -17.1610  -14.6880   35.0350 O.3     7  U7         -0.3114
    132  C4'      -17.6260  -12.6990   33.7180 C.3     7  U7          0.1773
    133  O4'      -16.3910  -11.9770   33.9650 O.3     7  U7         -0.3307
    134  C3'      -17.3630  -13.4700   32.4310 C.3     7  U7          0.1860
    135  O3'      -18.5700  -13.7810   31.7490 O.3     7  U7         -0.3112
    136  C2'      -16.5660  -12.4210   31.6740 C.3     7  U7          0.2309
    137  O2'      -17.3910  -11.3680   31.2200 O.3     7  U7         -0.2156
    138  C1'      -15.6330  -11.9310   32.7730 C.3     7  U7          0.2420
    139  N1       -14.4470  -12.8120   32.9260 N.ar    7  U7         -0.2534
    140  C2       -13.3440  -12.5910   32.1310 C.ar    7  U7          0.3546
    141  O2       -13.2890  -11.6960   31.3090 O.2     7  U7         -0.2443
    142  N3       -12.2980  -13.4560   32.3360 N.ar    7  U7         -0.1530
    143  C4       -12.2490  -14.5010   33.2340 C.ar    7  U7          0.2846
    144  O4       -11.2440  -15.1960   33.3060 O.2     7  U7         -0.2650
    145  C5       -13.4370  -14.6740   34.0250 C.ar    7  U7          0.0814
    146  C6       -14.4680  -13.8410   33.8450 C.ar    7  U7          0.0870
    147  OP1      -18.8260  -16.0290   36.2980 O.3     7  U7         -0.4373
    148  OP2      -16.3760  -16.7750   36.2020 O.co2   7  U7         -0.5172
    149  P        -18.7260  -15.1780   30.9760 P.3     8  C8          0.2141
    150  C5'      -18.6060  -13.6950   28.8240 C.3     8  C8          0.1812
    151  O5'      -18.1940  -14.8640   29.5060 O.3     8  C8         -0.3114
    152  C4'      -17.4990  -13.2670   27.8840 C.3     8  C8          0.1773
    153  O4'      -16.3190  -12.9670   28.6630 O.3     8  C8         -0.3307
    154  C3'      -16.9920  -14.3390   26.9370 C.3     8  C8          0.1860
    155  O3'      -17.8790  -14.5120   25.8320 O.3     8  C8         -0.3112
    156  C2'      -15.6800  -13.6870   26.5240 C.3     8  C8          0.2309
    157  O2'      -15.8770  -12.5760   25.6710 O.3     8  C8         -0.2156
    158  C1'      -15.1710  -13.1810   27.8680 C.3     8  C8          0.2420
    159  N1       -14.2390  -14.1200   28.5540 N.ar    8  C8         -0.2535
    160  C2       -12.8620  -14.0130   28.3050 C.ar    8  C8          0.3532
    161  O2       -12.4510  -13.1430   27.5250 O.2     8  C8         -0.2443
    162  N3       -12.0090  -14.8660   28.9240 N.ar    8  C8         -0.1739
    163  C4       -12.4860  -15.7900   29.7570 C.ar    8  C8          0.1759
    164  N4       -11.6020  -16.6050   30.3420 N.pl3   8  C8         -0.1070
    165  C5       -13.8840  -15.9140   30.0260 C.ar    8  C8          0.0566
    166  C6       -14.7190  -15.0670   29.4100 C.ar    8  C8          0.0850
    167  OP1      -20.1730  -15.4760   30.8950 O.2     8  C8         -0.5172
    168  OP2      -17.7990  -16.1600   31.5750 O.co2   8  C8         -0.4373
    169  P        -18.1650  -15.9760   25.2430 P.3     9  A9          0.2141
    170  C5'      -18.7430  -14.8960   22.9360 C.3     9  A9          0.1812
    171  O5'      -19.1770  -15.6680   24.0460 O.3     9  A9         -0.3114
    172  C4'      -19.9330  -14.4790   22.0890 C.3     9  A9          0.1773
    173  O4'      -20.7580  -15.6450   21.8540 O.3     9  A9         -0.3307
    174  C3'      -20.8220  -13.4180   22.7330 C.3     9  A9          0.1860
    175  O3'      -20.6960  -12.1450   22.0660 O.3     9  A9         -0.3112
    176  C2'      -22.2490  -13.9720   22.6970 C.3     9  A9          0.2309
    177  O2'      -23.1130  -13.1970   21.8920 O.3     9  A9         -0.2156
    178  C1'      -22.1210  -15.3780   22.1180 C.3     9  A9          0.2408
    179  N1       -24.7630  -19.7770   22.5690 N.ar    9  A9         -0.2040
    180  C2       -24.4480  -19.0270   21.5060 C.ar    9  A9          0.2016
    181  N3       -23.7550  -17.8890   21.4560 N.ar    9  A9         -0.2048
    182  C4       -23.3590  -17.5200   22.6840 C.ar    9  A9          0.1692
    183  C5       -23.6050  -18.1850   23.8710 C.ar    9  A9          0.1518
    184  C6       -24.3510  -19.3790   23.7900 C.ar    9  A9          0.1919
    185  N6       -24.6670  -20.1280   24.8500 N.pl3   9  A9         -0.1054
    186  N7       -23.0400  -17.5060   24.9380 N.ar    9  A9         -0.2193
    187  C8       -22.4720  -16.4600   24.3820 C.ar    9  A9          0.1816
    188  N9       -22.6270  -16.4050   23.0240 N.ar    9  A9         -0.2693
    189  OP1      -18.8860  -16.7620   26.2690 O.3     9  A9         -0.4373
    190  OP2      -16.9040  -16.4910   24.6670 O.co2   9  A9         -0.5172
    191  P        -20.7080  -11.9680   20.4700 P.3    10  A10         0.2141
    192  C5'      -23.0530  -10.9140   20.1410 C.3    10  A10         0.1812
    193  O5'      -21.6560  -10.6960   20.2870 O.3    10  A10        -0.3114
    194  C4'      -23.8690   -9.8710   20.8810 C.3    10  A10         0.1773
    195  O4'      -23.7910  -10.0930   22.3110 O.3    10  A10        -0.3307
    196  C3'      -23.3990   -8.4420   20.6720 C.3    10  A10         0.1860
    197  O3'      -23.9750   -7.9260   19.4770 O.3    10  A10        -0.3112
    198  C2'      -23.9360   -7.7550   21.9270 C.3    10  A10         0.2309
    199  O2'      -25.2880   -7.3590   21.7950 O.3    10  A10        -0.2156
    200  C1'      -23.8010   -8.8490   22.9840 C.3    10  A10         0.2408
    201  N1       -20.9080   -5.9940   26.1560 N.ar   10  A10        -0.2040
    202  C2       -22.0940   -5.7660   25.5770 C.ar   10  A10         0.2016
    203  N3       -22.7990   -6.5500   24.7590 N.ar   10  A10        -0.2048
    204  C4       -22.1560   -7.7060   24.5410 C.ar   10  A10         0.1692
    205  C5       -20.9350   -8.0860   25.0620 C.ar   10  A10         0.1518
    206  C6       -20.2910   -7.1690   25.9130 C.ar   10  A10         0.1919
    207  N6       -19.1080   -7.4080   26.4830 N.pl3  10  A10        -0.1054
    208  N7       -20.5840   -9.3490   24.6170 N.ar   10  A10        -0.2193
    209  C8       -21.5860   -9.7020   23.8470 C.ar   10  A10         0.1816
    210  N9       -22.5690   -8.7570   23.7570 N.ar   10  A10        -0.2693
    211  OP1      -21.4150  -13.1250   19.8780 O.2    10  A10        -0.5172
    212  OP2      -19.3430  -11.6190   20.0120 O.co2  10  A10        -0.4373
    213  P        -23.1120   -6.9710   18.5270 P.3    11  G11         0.2141
    214  C5'      -24.0370   -5.0290   20.0260 C.3    11  G11         0.1812
    215  O5'      -22.9190   -5.6780   19.4390 O.3    11  G11        -0.3114
    216  C4'      -23.5190   -3.7820   20.7040 C.3    11  G11         0.1773
    217  O4'      -23.0510   -4.0980   22.0360 O.3    11  G11        -0.3307
    218  C3'      -22.3120   -3.2100   19.9820 C.3    11  G11         0.1860
    219  O3'      -22.7630   -2.3420   18.9480 O.3    11  G11        -0.3112
    220  C2'      -21.5890   -2.4900   21.1140 C.3    11  G11         0.2309
    221  O2'      -22.1720   -1.2390   21.4200 O.3    11  G11        -0.2156
    222  C1'      -21.8080   -3.4620   22.2730 C.3    11  G11         0.2408
    223  N1       -17.4590   -4.8620   24.5270 N.ar   11  G11        -0.1709
    224  C2       -18.1840   -3.7040   24.6760 C.ar   11  G11         0.2606
    225  N2       -17.6930   -2.7970   25.5320 N.pl3  11  G11        -0.0859
    226  N3       -19.3120   -3.4470   24.0300 N.ar   11  G11        -0.1918
    227  C4       -19.6640   -4.4620   23.2070 C.ar   11  G11         0.1723
    228  C5       -19.0090   -5.6560   22.9920 C.ar   11  G11         0.1748
    229  C6       -17.8040   -5.9180   23.6890 C.ar   11  G11         0.3023
    230  O6       -17.0790   -6.9240   23.6290 O.2    11  G11        -0.2633
    231  N7       -19.6980   -6.4340   22.0700 N.ar   11  G11        -0.2173
    232  C8       -20.7350   -5.7070   21.7550 C.ar   11  G11         0.1817
    233  N9       -20.7820   -4.4960   22.4040 N.ar   11  G11        -0.2693
    234  OP1      -23.9570   -6.5790   17.3770 O.2    11  G11        -0.5172
    235  OP2      -21.7880   -7.5960   18.3070 O.co2  11  G11        -0.4373
    236  P        -22.0710   -2.3610   17.5040 P.3    12  A12         0.2141
    237  C5'      -21.6830    0.0770   18.3260 C.3    12  A12         0.1812
    238  O5'      -21.1840   -1.0360   17.5880 O.3    12  A12        -0.3114
    239  C4'      -20.5340    0.8780   18.9070 C.3    12  A12         0.1773
    240  O4'      -20.1120    0.3150   20.1740 O.3    12  A12        -0.3307
    241  C3'      -19.2830    0.8560   18.0470 C.3    12  A12         0.1860
    242  O3'      -19.4010    1.8290   17.0310 O.3    12  A12        -0.3112
    243  C2'      -18.2080    1.1810   19.0790 C.3    12  A12         0.2309
    244  O2'      -18.1690    2.5490   19.4440 O.3    12  A12        -0.2156
    245  C1'      -18.6970    0.3290   20.2470 C.3    12  A12         0.2408
    246  N1       -15.8900   -3.3240   22.5170 N.ar   12  A12        -0.2040
    247  C2       -16.1470   -2.0550   22.8500 C.ar   12  A12         0.2016
    248  N3       -16.8890   -1.1530   22.2130 N.ar   12  A12        -0.2048
    249  C4       -17.4080   -1.6790   21.0960 C.ar   12  A12         0.1692
    250  C5       -17.2340   -2.9650   20.6200 C.ar   12  A12         0.1518
    251  C6       -16.4250   -3.8240   21.3880 C.ar   12  A12         0.1919
    252  N6       -16.1640   -5.0920   21.0570 N.pl3  12  A12        -0.1054
    253  N7       -17.9240   -3.1460   19.4340 N.ar   12  A12        -0.2193
    254  C8       -18.4920   -1.9830   19.2240 C.ar   12  A12         0.1816
    255  N9       -18.2220   -1.0500   20.1870 N.ar   12  A12        -0.2693
    256  OP1      -23.1150   -2.1460   16.4770 O.2    12  A12        -0.5172
    257  OP2      -21.1820   -3.5430   17.4240 O.co2  12  A12        -0.4373
    258  P        -19.3470    1.3950   15.4900 P.3    13  G13         0.2141
    259  C5'      -19.4090    3.2110   13.5770 C.3    13  G13         0.1812
    260  O5'      -18.8880    2.7700   14.8180 O.3    13  G13        -0.3114
    261  C4'      -19.4290    4.7280   13.5950 C.3    13  G13         0.1773
    262  O4'      -18.4000    5.2110   14.4920 O.3    13  G13        -0.3307
    263  C3'      -19.1190    5.4100   12.2760 C.3    13  G13         0.1860
    264  O3'      -19.7910    6.6890   12.2850 O.3    13  G13        -0.3112
    265  C2'      -17.5820    5.3900   12.2760 C.3    13  G13         0.2309
    266  O2'      -17.0010    6.4720   11.5800 O.3    13  G13        -0.2156
    267  C1'      -17.2080    5.4380   13.7600 C.3    13  G13         0.2408
    268  N1       -12.9500    4.5940   16.4490 N.ar   13  G13        -0.1709
    269  C2       -13.6370    5.7710   16.2460 C.ar   13  G13         0.2606
    270  N2       -13.1410    6.8760   16.8300 N.pl3  13  G13        -0.0859
    271  N3       -14.7430    5.8690   15.5170 N.ar   13  G13        -0.1918
    272  C4       -15.1160    4.6710   14.9960 C.ar   13  G13         0.1723
    273  C5       -14.4920    3.4490   15.1460 C.ar   13  G13         0.1748
    274  C6       -13.3130    3.3550   15.9240 C.ar   13  G13         0.3023
    275  O6       -12.6200    2.3570   16.1700 O.2    13  G13        -0.2633
    276  N7       -15.1760    2.4570   14.4600 N.ar   13  G13        -0.2173
    277  C8       -16.1820    3.0910   13.9180 C.ar   13  G13         0.1817
    278  N9       -16.2170    4.4440   14.1940 N.ar   13  G13        -0.2693
    279  OP1      -20.7200    1.0830   15.0290 O.2    13  G13        -0.5172
    280  OP2      -18.2620    0.4000   15.3270 O.co2  13  G13        -0.4373
    281  P        -19.1340    8.1530   12.3340 P.3    14  A14         0.2141
    282  C5'      -19.2010    8.0140    9.7050 C.3    14  A14         0.1812
    283  O5'      -18.4660    8.3070   10.8900 O.3    14  A14        -0.3114
    284  C4'      -18.2170    7.6540    8.6100 C.3    14  A14         0.1773
    285  O4'      -18.8320    7.7280    7.3030 O.3    14  A14        -0.3307
    286  C3'      -17.0510    8.6240    8.5050 C.3    14  A14         0.1860
    287  O3'      -16.1360    8.4160    9.6060 O.3    14  A14        -0.3112
    288  C2'      -16.5420    8.3730    7.0800 C.3    14  A14         0.2309
    289  O2'      -15.5010    7.4240    6.9570 O.3    14  A14        -0.2156
    290  C1'      -17.7850    7.8440    6.3570 C.3    14  A14         0.2408
    291  N1       -21.2860   11.1270    4.4180 N.ar   14  A14        -0.2040
    292  C2       -21.2400   10.4680    5.5820 C.ar   14  A14         0.2016
    293  N3       -20.3090    9.6290    6.0360 N.ar   14  A14        -0.2048
    294  C4       -19.3200    9.4820    5.1400 C.ar   14  A14         0.1692
    295  C5       -19.2290   10.0940    3.9010 C.ar   14  A14         0.1518
    296  C6       -20.2780   10.9610    3.5350 C.ar   14  A14         0.1919
    297  N6       -20.3200   11.6170    2.3710 N.pl3  14  A14        -0.1054
    298  N7       -18.0720    9.7090    3.2460 N.ar   14  A14        -0.2193
    299  C8       -17.4940    8.8860    4.0870 C.ar   14  A14         0.1816
    300  N9       -18.1910    8.7010    5.2480 N.ar   14  A14        -0.2693
    301  OP1      -18.0790    8.1960   13.3710 O.3    14  A14        -0.4373
    302  OP2      -20.2540    9.1180   12.3980 O.co2  14  A14        -0.5172
    303  P        -14.8040    7.5170    9.6100 P.3    15  G15         0.2141
    304  C5'      -13.0780    9.4730    9.3940 C.3    15  G15         0.1812
    305  O5'      -13.7740    8.4010    8.7650 O.3    15  G15        -0.3114
    306  C4'      -14.0140   10.6070    9.7770 C.3    15  G15         0.1773
    307  O4'      -14.8430   10.2020   10.8980 O.3    15  G15        -0.3307
    308  C3'      -13.3140   11.8840   10.2280 C.3    15  G15         0.1860
    309  O3'      -13.2370   12.8040    9.1470 O.3    15  G15        -0.3112
    310  C2'      -14.2150   12.3940   11.3470 C.3    15  G15         0.2309
    311  O2'      -15.3530   13.0770   10.8590 O.3    15  G15        -0.2156
    312  C1'      -14.6350   11.0780   11.9870 C.3    15  G15         0.2408
    313  N1       -10.6050   11.7610   15.0860 N.ar   15  G15        -0.1709
    314  C2       -11.3080   12.7000   14.3680 C.ar   15  G15         0.2606
    315  N2       -10.8940   13.9710   14.4840 N.pl3  15  G15        -0.0859
    316  N3       -12.3440   12.4150   13.5890 N.ar   15  G15        -0.1918
    317  C4       -12.6310   11.0880   13.5830 C.ar   15  G15         0.1723
    318  C5       -11.9870   10.0780   14.2670 C.ar   15  G15         0.1748
    319  C6       -10.8840   10.3970   15.0930 C.ar   15  G15         0.3023
    320  O6       -10.1930    9.6280   15.7740 O.2    15  G15        -0.2633
    321  N7       -12.5740    8.8470   14.0070 N.ar   15  G15        -0.2173
    322  C8       -13.5440    9.1300   13.1840 C.ar   15  G15         0.1817
    323  N9       -13.6450   10.4680   12.8790 N.ar   15  G15        -0.2693
    324  OP1      -15.0650    6.2410    8.9100 O.2    15  G15        -0.5172
    325  OP2      -14.3150    7.4710   11.0050 O.co2  15  G15        -0.4373
    326  P        -11.8980   12.9020    8.2760 P.3    16  G16         0.2141
    327  C5'       -9.6310   14.0170    8.8720 C.3    16  G16         0.1812
    328  O5'      -11.0090   13.8920    9.1590 O.3    16  G16        -0.3114
    329  C4'       -8.9250   14.7850    9.9700 C.3    16  G16         0.1773
    330  O4'       -9.5360   14.5010   11.2540 O.3    16  G16        -0.3307
    331  C3'       -7.4580   14.4130   10.1100 C.3    16  G16         0.1860
    332  O3'       -6.6900   15.3030    9.3210 O.3    16  G16        -0.3112
    333  C2'       -7.2030   14.6000   11.6010 C.3    16  G16         0.2309
    334  O2'       -6.9290   15.9450   11.9360 O.3    16  G16        -0.2156
    335  C1'       -8.5380   14.1650   12.1970 C.3    16  G16         0.2408
    336  N1        -6.4520   10.0960   14.4500 N.ar   16  G16        -0.1709
    337  C2        -6.0290   11.4040   14.4600 C.ar   16  G16         0.2606
    338  N2        -4.9100   11.6580   15.1560 N.pl3  16  G16        -0.0859
    339  N3        -6.6550   12.3930   13.8330 N.ar   16  G16        -0.1918
    340  C4        -7.7610   11.9560   13.1840 C.ar   16  G16         0.1723
    341  C5        -8.2640   10.6750   13.1170 C.ar   16  G16         0.1748
    342  C6        -7.5860    9.6320   13.7900 C.ar   16  G16         0.3023
    343  O6        -7.8840    8.4310   13.8430 O.2    16  G16        -0.2633
    344  N7        -9.4200   10.6390   12.3490 N.ar   16  G16        -0.2173
    345  C8        -9.5940   11.8750   11.9720 C.ar   16  G16         0.1817
    346  N9        -8.6270   12.7290   12.4430 N.ar   16  G16        -0.2693
    347  OP1      -12.2220   13.5860    7.0040 O.2    16  G16        -0.5172
    348  OP2      -11.2460   11.5750    8.2540 O.co2  16  G16        -0.4373
    349  P         -5.6810   14.7140    8.2310 P.3    17  U17         0.2141
    350  C5'       -3.9290   15.4930    9.9710 C.3    17  U17         0.1812
    351  O5'       -4.3720   14.4630    9.1080 O.3    17  U17        -0.3114
    352  C4'       -3.0830   14.8980   11.0730 C.3    17  U17         0.1773
    353  O4'       -3.9240   14.2220   12.0410 O.3    17  U17        -0.3307
    354  C3'       -2.1520   13.7880   10.6220 C.3    17  U17         0.1860
    355  O3'       -1.0300   14.2910    9.9140 O.3    17  U17        -0.3112
    356  C2'       -1.7950   13.2230   11.9870 C.3    17  U17         0.2309
    357  O2'       -1.0160   14.1160   12.7550 O.3    17  U17        -0.2156
    358  C1'       -3.2010   13.1220   12.5650 C.3    17  U17         0.2420
    359  N1        -3.8720   11.8600   12.1580 N.ar   17  U17        -0.2534
    360  C2        -3.4130   10.6740   12.6910 C.ar   17  U17         0.3546
    361  O2        -2.4890   10.6170   13.4830 O.2    17  U17        -0.2443
    362  N3        -4.0780    9.5520   12.2670 N.ar   17  U17        -0.1530
    363  C4        -5.1340    9.5040   11.3780 C.ar   17  U17         0.2846
    364  O4        -5.6310    8.4200   11.0930 O.2    17  U17        -0.2650
    365  C5        -5.5540   10.7810   10.8600 C.ar   17  U17         0.0814
    366  C6        -4.9200   11.8900   11.2600 C.ar   17  U17         0.0870
    367  OP1       -5.3760   15.7870    7.2550 O.2    17  U17        -0.5172
    368  OP2       -6.2140   13.4110    7.7720 O.co2  17  U17        -0.4373
    369  P         -0.6470   13.6010    8.5220 P.3    18  G18         0.2141
    370  C5'        0.9720   12.2830   10.0940 C.3    18  G18         0.1812
    371  O5'        0.0720   12.2530    8.9930 O.3    18  G18        -0.3114
    372  C4'        1.2570   10.8700   10.5550 C.3    18  G18         0.1773
    373  O4'        0.0180   10.2550   10.9810 O.3    18  G18        -0.3307
    374  C3'        1.8280    9.9900    9.4550 C.3    18  G18         0.1860
    375  O3'        3.2460    9.9200    9.6030 O.3    18  G18        -0.3112
    376  C2'        1.1660    8.6300    9.6690 C.3    18  G18         0.2309
    377  O2'        2.0040    7.7430   10.3850 O.3    18  G18        -0.2156
    378  C1'       -0.0980    8.9430   10.4700 C.3    18  G18         0.2408
    379  N1        -4.0430    6.0110    9.1340 N.ar   18  G18        -0.1709
    380  C2        -2.9620    5.7130    9.9280 C.ar   18  G18         0.2606
    381  N2        -2.9200    4.4760   10.4410 N.pl3  18  G18        -0.0859
    382  N3        -1.9870    6.5690   10.2050 N.ar   18  G18        -0.1918
    383  C4        -2.1820    7.7710    9.6120 C.ar   18  G18         0.1723
    384  C5        -3.2250    8.1660    8.8020 C.ar   18  G18         0.1748
    385  C6        -4.2620    7.2400    8.5140 C.ar   18  G18         0.3023
    386  O6        -5.2740    7.4020    7.8130 O.2    18  G18        -0.2633
    387  N7        -3.0540    9.4840    8.3930 N.ar   18  G18        -0.2173
    388  C8        -1.9330    9.8510    8.9550 C.ar   18  G18         0.1817
    389  N9        -1.3460    8.8610    9.7080 N.ar   18  G18        -0.2693
    390  OP1        0.3610   14.4440    7.8420 O.3    18  G18        -0.4373
    391  OP2       -1.9090   13.2520    7.8320 O.co2  18  G18        -0.5172
    392  P          4.2000   10.0360    8.3200 P.3    19  G19         0.2141
    393  C5'        3.4500    7.7640    7.4260 C.3    19  G19         0.1812
    394  O5'        4.5110    8.5050    7.9860 O.3    19  G19        -0.3114
    395  C4'        3.6190    6.2660    7.5080 C.3    19  G19         0.1773
    396  O4'        2.3060    5.7140    7.2890 O.3    19  G19        -0.3307
    397  C3'        4.3980    5.6720    6.3530 C.3    19  G19         0.1860
    398  O3'        4.5520    4.2700    6.5310 O.3    19  G19        -0.3112
    399  C2'        3.4240    5.9770    5.2170 C.3    19  G19         0.2309
    400  O2'        3.5500    5.0830    4.1290 O.3    19  G19        -0.2156
    401  C1'        2.0610    5.8010    5.8960 C.3    19  G19         0.2408
    402  N1        -2.8050    7.3230    5.8420 N.ar   19  G19        -0.1709
    403  C2        -2.2700    6.1080    6.2010 C.ar   19  G19         0.2606
    404  N2        -3.1370    5.1720    6.5980 N.pl3  19  G19        -0.0859
    405  N3        -0.9750    5.8210    6.1780 N.ar   19  G19        -0.1918
    406  C4        -0.2390    6.8770    5.7540 C.ar   19  G19         0.1723
    407  C5        -0.6760    8.1290    5.3750 C.ar   19  G19         0.1748
    408  C6        -2.0620    8.4180    5.4070 C.ar   19  G19         0.3023
    409  O6        -2.6330    9.4760    5.1060 O.2    19  G19        -0.2633
    410  N7         0.3950    8.9320    5.0070 N.ar   19  G19        -0.2173
    411  C8         1.4370    8.1620    5.1660 C.ar   19  G19         0.1817
    412  N9         1.1310    6.8990    5.6190 N.ar   19  G19        -0.2693
    413  OP1        5.4680   10.6870    8.7210 O.3    19  G19        -0.4373
    414  OP2        3.3870   10.6060    7.2190 O.co2  19  G19        -0.5172
    415  P          5.7190    3.4850    5.7680 P.3    20  A20         0.2141
    416  C5'        5.7460    1.2270    7.1010 C.3    20  A20         0.1812
    417  O5'        5.3140    1.9490    5.9550 O.3    20  A20        -0.3114
    418  C4'        5.1500   -0.1670    7.0890 C.3    20  A20         0.1773
    419  O4'        3.7370   -0.0680    7.3860 O.3    20  A20        -0.3307
    420  C3'        5.2860   -0.8900    5.7540 C.3    20  A20         0.1860
    421  O3'        6.2270   -1.9750    5.8330 O.3    20  A20        -0.3112
    422  C2'        3.8820   -1.3720    5.3790 C.3    20  A20         0.2309
    423  O2'        3.7780   -2.7840    5.3740 O.3    20  A20        -0.2156
    424  C1'        2.9560   -0.7740    6.4400 C.3    20  A20         0.2408
    425  N1        -2.0200   -0.0670    5.2620 N.ar   20  A20        -0.2040
    426  C2        -1.3690   -1.1010    5.8040 C.ar   20  A20         0.2016
    427  N3        -0.0720   -1.2240    6.0860 N.ar   20  A20        -0.2048
    428  C4         0.5980   -0.1120    5.7490 C.ar   20  A20         0.1692
    429  C5         0.0670    1.0310    5.1850 C.ar   20  A20         0.1518
    430  C6        -1.3190    1.0360    4.9340 C.ar   20  A20         0.1919
    431  N6        -1.9630    2.0710    4.3910 N.pl3  20  A20        -0.1054
    432  N7         1.0570    1.9770    4.9750 N.ar   20  A20        -0.2193
    433  C8         2.1510    1.3950    5.4080 C.ar   20  A20         0.1816
    434  N9         1.9470    0.1320    5.8900 N.ar   20  A20        -0.2693
    435  OP1        6.9770    3.7060    6.5150 O.3    20  A20        -0.4373
    436  OP2        5.6490    3.8320    4.3320 O.co2  20  A20        -0.5172
    437  P          6.4860   -2.8350    7.1630 P.3    21  G21         0.2141
    438  C5'        4.8590   -3.7160    9.0250 C.3    21  G21         0.1812
    439  O5'        5.0310   -3.0360    7.7890 O.3    21  G21        -0.3114
    440  C4'        3.6050   -3.1740    9.6780 C.3    21  G21         0.1773
    441  O4'        2.6810   -2.8090    8.6210 O.3    21  G21        -0.3307
    442  C3'        2.8280   -4.1450   10.5550 C.3    21  G21         0.1860
    443  O3'        3.2730   -4.0990   11.8990 O.3    21  G21        -0.3112
    444  C2'        1.4260   -3.5680   10.4220 C.3    21  G21         0.2309
    445  O2'        1.2810   -2.3460   11.1170 O.3    21  G21        -0.2156
    446  C1'        1.4050   -3.3370    8.9190 C.3    21  G21         0.2408
    447  N1        -1.9980   -6.6820    7.2130 N.ar   21  G21        -0.1709
    448  C2        -2.1880   -5.5220    7.9270 C.ar   21  G21         0.2606
    449  N2        -3.4540   -5.2060    8.2300 N.pl3  21  G21        -0.0859
    450  N3        -1.2080   -4.7230    8.3180 N.ar   21  G21        -0.1918
    451  C4         0.0010   -5.1890    7.9280 C.ar   21  G21         0.1723
    452  C5         0.2980   -6.3290    7.2160 C.ar   21  G21         0.1748
    453  C6        -0.7600   -7.1750    6.8050 C.ar   21  G21         0.3023
    454  O6        -0.6940   -8.2320    6.1630 O.2    21  G21        -0.2633
    455  N7         1.6690   -6.4470    7.0210 N.ar   21  G21        -0.2173
    456  C8         2.1620   -5.3910    7.6090 C.ar   21  G21         0.1817
    457  N9         1.2070   -4.5810    8.1790 N.ar   21  G21        -0.2693
    458  OP1        7.2680   -1.9940    8.0940 O.3    21  G21        -0.4373
    459  OP2        7.0080   -4.1600    6.7550 O.co2  21  G21        -0.5172
    460  P          3.1220   -5.4050   12.8110 P.3    22  G22         0.2141
    461  C5'        0.7050   -4.7070   13.5330 C.3    22  G22         0.1812
    462  O5'        1.5360   -5.6410   12.8590 O.3    22  G22        -0.3114
    463  C4'       -0.7650   -5.0790   13.4520 C.3    22  G22         0.1773
    464  O4'       -1.2020   -5.1430   12.0710 O.3    22  G22        -0.3307
    465  C3'       -1.1430   -6.4480   13.9930 C.3    22  G22         0.1860
    466  O3'       -1.2320   -6.4460   15.3980 O.3    22  G22        -0.3112
    467  C2'       -2.5280   -6.5810   13.3840 C.3    22  G22         0.2309
    468  O2'       -3.4730   -5.7530   14.0320 O.3    22  G22        -0.2156
    469  C1'       -2.2460   -6.0960   11.9670 C.3    22  G22         0.2408
    470  N1        -3.7450  -10.0320    9.1390 N.ar   22  G22        -0.1709
    471  C2        -4.5030   -9.1120    9.8250 C.ar   22  G22         0.2606
    472  N2        -5.8330   -9.2580    9.7510 N.pl3  22  G22        -0.0859
    473  N3        -3.9930   -8.1150   10.5350 N.ar   22  G22        -0.1918
    474  C4        -2.6390   -8.1180   10.5010 C.ar   22  G22         0.1723
    475  C5        -1.7960   -8.9890    9.8490 C.ar   22  G22         0.1748
    476  C6        -2.3520  -10.0460    9.0960 C.ar   22  G22         0.3023
    477  O6        -1.7550  -10.9200    8.4500 O.2    22  G22        -0.2633
    478  N7        -0.4680   -8.6490   10.0660 N.ar   22  G22        -0.2173
    479  C8        -0.5330   -7.5950   10.8310 C.ar   22  G22         0.1817
    480  N9        -1.8190   -7.2120   11.1290 N.ar   22  G22        -0.2693
    481  OP1        3.5780   -5.0490   14.1740 O.3    22  G22        -0.4373
    482  OP2        3.7590   -6.5330   12.0920 O.co2  22  G22        -0.5172
    483  P         -1.0610   -7.8410   16.1560 P.3    23  G23         0.2141
    484  C5'       -3.6440   -7.9520   16.4290 C.3    23  G23         0.1812
    485  O5'       -2.4710   -8.5470   15.9180 O.3    23  G23        -0.3114
    486  C4'       -4.8190   -8.8440   16.0970 C.3    23  G23         0.1773
    487  O4'       -5.0080   -8.8870   14.6580 O.3    23  G23        -0.3307
    488  C3'       -4.6450  -10.3130   16.4500 C.3    23  G23         0.1860
    489  O3'       -4.8240  -10.5720   17.8320 O.3    23  G23        -0.3112
    490  C2'       -5.7830  -10.8750   15.6150 C.3    23  G23         0.2309
    491  O2'       -7.0460  -10.4600   16.0960 O.3    23  G23        -0.2156
    492  C1'       -5.4460  -10.1850   14.3000 C.3    23  G23         0.2408
    493  N1        -4.2910  -13.7740   10.8930 N.ar   23  G23        -0.1709
    494  C2        -5.5250  -13.3370   11.3140 C.ar   23  G23         0.2606
    495  N2        -6.5880  -13.9370   10.7580 N.pl3  23  G23        -0.0859
    496  N3        -5.7030  -12.3810   12.2180 N.ar   23  G23        -0.1918
    497  C4        -4.5240  -11.8920   12.6710 C.ar   23  G23         0.1723
    498  C5        -3.2460  -12.2610   12.3130 C.ar   23  G23         0.1748
    499  C6        -3.0720  -13.2800   11.3490 C.ar   23  G23         0.3023
    500  O6        -2.0110  -13.7410   10.9060 O.2    23  G23        -0.2633
    501  N7        -2.3010  -11.5180   13.0080 N.ar   23  G23        -0.2173
    502  C8        -3.0160  -10.7260   13.7590 C.ar   23  G23         0.1817
    503  N9        -4.3740  -10.8920   13.6050 N.ar   23  G23        -0.2693
    504  OP1       -0.9390   -7.5830   17.6100 O.3    23  G23        -0.4373
    505  OP2       -0.0150   -8.5970   15.4300 O.co2  23  G23        -0.5172
    506  P         -4.6140  -12.0680   18.3530 P.3    24  A24         0.2141
    507  C5'       -2.3060  -11.0750   19.0210 C.3    24  A24         0.1812
    508  O5'       -3.3890  -11.9230   19.3620 O.3    24  A24        -0.3114
    509  C4'       -1.1030  -11.4460   19.8600 C.3    24  A24         0.1773
    510  O4'       -1.5700  -11.8170   21.1780 O.3    24  A24        -0.3307
    511  C3'       -0.3350  -12.6540   19.3480 C.3    24  A24         0.1860
    512  O3'        0.6980  -12.2100   18.4830 O.3    24  A24        -0.3112
    513  C2'        0.2390  -13.2580   20.6250 C.3    24  A24         0.2309
    514  O2'        1.4840  -12.6850   20.9790 O.3    24  A24        -0.2156
    515  C1'       -0.8090  -12.8990   21.6750 C.3    24  A24         0.2408
    516  N1        -1.3700  -17.5110   23.8820 N.ar   24  A24        -0.2040
    517  C2        -0.3010  -16.7240   23.7170 C.ar   24  A24         0.2016
    518  N3        -0.2210  -15.5310   23.1310 N.ar   24  A24        -0.2048
    519  C4        -1.4220  -15.1470   22.6730 C.ar   24  A24         0.1692
    520  C5        -2.6110  -15.8450   22.7670 C.ar   24  A24         0.1518
    521  C6        -2.5640  -17.0970   23.4110 C.ar   24  A24         0.1919
    522  N6        -3.6370  -17.8790   23.5750 N.pl3  24  A24        -0.1054
    523  N7        -3.6450  -15.1370   22.1820 N.ar   24  A24        -0.2193
    524  C8        -3.0670  -14.0400   21.7520 C.ar   24  A24         0.1816
    525  N9        -1.7280  -13.9810   22.0140 N.ar   24  A24        -0.2693
    526  OP1       -4.1520  -12.8850   17.2100 O.2    24  A24        -0.5172
    527  OP2       -5.8190  -12.4700   19.1120 O.co2  24  A24        -0.4373
    528  P          0.9160  -12.8830   17.0480 P.3    25  C25         0.2141
    529  C5'        2.7120  -14.5360   17.9620 C.3    25  C25         0.1812
    530  O5'        1.4110  -14.3600   17.4190 O.3    25  C25        -0.3114
    531  C4'        2.8350  -15.8490   18.7120 C.3    25  C25         0.1773
    532  O4'        1.7700  -15.9780   19.6840 O.3    25  C25        -0.3307
    533  C3'        2.6720  -17.1080   17.8800 C.3    25  C25         0.1860
    534  O3'        3.8550  -17.3660   17.1330 O.3    25  C25        -0.3112
    535  C2'        2.4380  -18.1430   18.9800 C.3    25  C25         0.2309
    536  O2'        3.6290  -18.6030   19.5850 O.3    25  C25        -0.2156
    537  C1'        1.6230  -17.3500   20.0000 C.3    25  C25         0.2420
    538  N1         0.1850  -17.7010   19.9610 N.ar   25  C25        -0.2535
    539  C2        -0.2300  -18.9080   20.5330 C.ar   25  C25         0.3532
    540  O2         0.6130  -19.6460   21.0590 O.2    25  C25        -0.2443
    541  N3        -1.5450  -19.2330   20.4940 N.ar   25  C25        -0.1739
    542  C4        -2.4160  -18.4060   19.9170 C.ar   25  C25         0.1759
    543  N4        -3.7000  -18.7710   19.9050 N.pl3  25  C25        -0.1070
    544  C5        -2.0090  -17.1720   19.3290 C.ar   25  C25         0.0566
    545  C6        -0.7100  -16.8600   19.3710 C.ar   25  C25         0.0850
    546  OP1        2.0460  -12.1760   16.4030 O.3    25  C25        -0.4373
    547  OP2       -0.3940  -12.9620   16.3610 O.co2  25  C25        -0.5172
    548  P          3.7550  -17.6610   15.5610 P.3    26  U26         0.2141
    549  C5'        4.2590  -20.1960   15.8540 C.3    26  U26         0.1812
    550  O5'        3.3090  -19.1960   15.5170 O.3    26  U26        -0.3114
    551  C4'        3.6540  -21.5830   15.7580 C.3    26  U26         0.1773
    552  O4'        2.7090  -21.7800   16.8400 O.3    26  U26        -0.3307
    553  C3'        2.8570  -21.8440   14.4900 C.3    26  U26         0.1860
    554  O3'        3.7210  -22.2760   13.4520 O.3    26  U26        -0.3112
    555  C2'        1.9360  -22.9700   14.9400 C.3    26  U26         0.2309
    556  O2'        2.5820  -24.2280   14.8920 O.3    26  U26        -0.2156
    557  C1'        1.6260  -22.5670   16.3830 C.3    26  U26         0.2420
    558  N1         0.3640  -21.7770   16.5240 N.ar   26  U26        -0.2534
    559  C2        -0.7980  -22.4480   16.8430 C.ar   26  U26         0.3546
    560  O2        -0.8370  -23.6530   17.0170 O.2    26  U26        -0.2443
    561  N3        -1.9130  -21.6540   16.9510 N.ar   26  U26        -0.1530
    562  C4        -1.9810  -20.2830   16.7760 C.ar   26  U26         0.2846
    563  O4        -3.0590  -19.7090   16.9080 O.2    26  U26        -0.2650
    564  C5        -0.7270  -19.6530   16.4430 C.ar   26  U26         0.0814
    565  C6         0.3740  -20.4080   16.3320 C.ar   26  U26         0.0870
    566  OP1        5.1250  -17.5780   15.0080 O.3    26  U26        -0.4373
    567  OP2        2.6790  -16.8190   14.9890 O.co2  26  U26        -0.5172
    568  P          3.4030  -21.8760   11.9370 P.3    27  G27         0.2141
    569  C5'        2.0910  -24.0960   11.5360 C.3    27  G27         0.1812
    570  O5'        2.0500  -22.6810   11.6600 O.3    27  G27        -0.3114
    571  C4'        0.7170  -24.6580   11.2170 C.3    27  G27         0.1773
    572  O4'       -0.0840  -24.6960   12.4250 O.3    27  G27        -0.3307
    573  C3'       -0.1130  -23.8460   10.2310 C.3    27  G27         0.1860
    574  O3'        0.2470  -24.1570    8.8810 O.3    27  G27        -0.3112
    575  C2'       -1.5130  -24.3150   10.6110 C.3    27  G27         0.2309
    576  O2'       -1.7830  -25.6350   10.1890 O.3    27  G27        -0.2156
    577  C1'       -1.3990  -24.2700   12.1290 C.3    27  G27         0.2408
    578  N1        -4.7470  -20.8280   13.7710 N.ar   27  G27        -0.1709
    579  C2        -4.9620  -22.0970   13.2880 C.ar   27  G27         0.2606
    580  N2        -6.2310  -22.5160   13.2310 N.pl3  27  G27        -0.0859
    581  N3        -3.9990  -22.9110   12.8870 N.ar   27  G27        -0.1918
    582  C4        -2.7810  -22.3380   13.0100 C.ar   27  G27         0.1723
    583  C5        -2.4610  -21.0840   13.4780 C.ar   27  G27         0.1748
    584  C6        -3.4970  -20.2230   13.9050 C.ar   27  G27         0.3023
    585  O6        -3.3970  -19.0700   14.3500 O.2    27  G27        -0.2633
    586  N7        -1.0880  -20.8790   13.4410 N.ar   27  G27        -0.2173
    587  C8        -0.6150  -21.9960   12.9600 C.ar   27  G27         0.1817
    588  N9        -1.5850  -22.9290   12.6770 N.ar   27  G27        -0.2693
    589  OP1        4.4660  -22.4650   11.0890 O.2    27  G27        -0.5172
    590  OP2        3.1250  -20.4230   11.8660 O.co2  27  G27        -0.4373
    591  P         -0.2450  -23.2280    7.6690 P.3    28  G28         0.2141
    592  C5'       -2.6830  -22.3260    7.2340 C.3    28  G28         0.1812
    593  O5'       -1.7010  -22.7780    8.1580 O.3    28  G28        -0.3114
    594  C4'       -4.0600  -22.8190    7.6490 C.3    28  G28         0.1773
    595  O4'       -4.1480  -22.8870    9.0950 O.3    28  G28        -0.3307
    596  C3'       -5.2070  -21.9240    7.2040 C.3    28  G28         0.1860
    597  O3'       -5.6800  -22.3580    5.9330 O.3    28  G28        -0.3112
    598  C2'       -6.2330  -22.1250    8.3170 C.3    28  G28         0.2309
    599  O2'       -6.9960  -23.3040    8.1620 O.3    28  G28        -0.2156
    600  C1'       -5.3390  -22.2700    9.5430 C.3    28  G28         0.2408
    601  N1        -7.0860  -18.1050   11.9020 N.ar   28  G28        -0.1709
    602  C2        -7.7890  -19.1710   11.3870 C.ar   28  G28         0.2606
    603  N2        -9.1230  -19.1270   11.5170 N.pl3  28  G28        -0.0859
    604  N3        -7.2200  -20.2110   10.7880 N.ar   28  G28        -0.1918
    605  C4        -5.8710  -20.0940   10.7450 C.ar   28  G28         0.1723
    606  C5        -5.0830  -19.0710   11.2280 C.ar   28  G28         0.1748
    607  C6        -5.7010  -17.9700   11.8650 C.ar   28  G28         0.3023
    608  O6        -5.1660  -16.9680   12.3570 O.2    28  G28        -0.2633
    609  N7        -3.7410  -19.3260   10.9860 N.ar   28  G28        -0.2173
    610  C8        -3.7400  -20.4780   10.3730 C.ar   28  G28         0.1817
    611  N9        -4.9960  -21.0040   10.1910 N.ar   28  G28        -0.2693
    612  OP1       -0.4010  -24.0850    6.4730 O.2    28  G28        -0.5172
    613  OP2        0.6320  -22.0360    7.6070 O.co2  28  G28        -0.4373
    614  P         -5.6710  -21.3530    4.6870 P.3    29  C29         0.2141
    615  C5'       -8.1330  -20.8980    5.3780 C.3    29  C29         0.1812
    616  O5'       -6.8640  -20.3550    5.0530 O.3    29  C29        -0.3114
    617  C4'       -8.9590  -19.8870    6.1440 C.3    29  C29         0.1773
    618  O4'       -8.4920  -19.8070    7.5130 O.3    29  C29        -0.3307
    619  C3'       -8.8380  -18.4690    5.6180 C.3    29  C29         0.1860
    620  O3'       -9.7280  -18.2800    4.5300 O.3    29  C29        -0.3112
    621  C2'       -9.2370  -17.6670    6.8510 C.3    29  C29         0.2309
    622  O2'      -10.6290  -17.6770    7.0890 O.3    29  C29        -0.2156
    623  C1'       -8.5220  -18.4590    7.9390 C.3    29  C29         0.2420
    624  N1        -7.1250  -18.0080    8.1500 N.ar   29  C29        -0.2535
    625  C2        -6.8830  -16.8750    8.9340 C.ar   29  C29         0.3532
    626  O2        -7.8430  -16.2730    9.4370 O.2    29  C29        -0.2443
    627  N3        -5.6010  -16.4710    9.1180 N.ar   29  C29        -0.1739
    628  C4        -4.5970  -17.1480    8.5570 C.ar   29  C29         0.1759
    629  N4        -3.3500  -16.7100    8.7700 N.pl3  29  C29        -0.1070
    630  C5        -4.8290  -18.3040    7.7560 C.ar   29  C29         0.0566
    631  C6        -6.0950  -18.6950    7.5790 C.ar   29  C29         0.0850
    632  OP1       -6.0570  -22.1270    3.4850 O.2    29  C29        -0.5172
    633  OP2       -4.3990  -20.5950    4.7010 O.co2  29  C29        -0.4373
    634  P         -9.5450  -17.0020    3.5910 P.3    30  C30         0.2141
    635  C5'       -9.8010  -14.5310    4.3560 C.3    30  C30         0.1812
    636  O5'      -10.2190  -15.8720    4.4910 O.3    30  C30        -0.3114
    637  C4'      -10.0950  -13.7840    5.6410 C.3    30  C30         0.1773
    638  O4'       -9.2930  -14.3290    6.7190 O.3    30  C30        -0.3307
    639  C3'       -9.7540  -12.3070    5.6020 C.3    30  C30         0.1860
    640  O3'      -10.8640  -11.6090    5.0660 O.3    30  C30        -0.3112
    641  C2'       -9.5770  -12.0220    7.0870 C.3    30  C30         0.2309
    642  O2'      -10.8190  -11.9120    7.7500 O.3    30  C30        -0.2156
    643  C1'       -8.8680  -13.2820    7.5710 C.3    30  C30         0.2420
    644  N1        -7.3760  -13.2160    7.5320 N.ar   30  C30        -0.2535
    645  C2        -6.6890  -12.2540    8.2860 C.ar   30  C30         0.3532
    646  O2        -7.3280  -11.4550    8.9820 O.2    30  C30        -0.2443
    647  N3        -5.3330  -12.2220    8.2300 N.ar   30  C30        -0.1739
    648  C4        -4.6710  -13.0960    7.4690 C.ar   30  C30         0.1759
    649  N4        -3.3350  -13.0250    7.4470 N.pl3  30  C30        -0.1070
    650  C5        -5.3520  -14.0850    6.6980 C.ar   30  C30         0.0566
    651  C6        -6.6880  -14.1080    6.7600 C.ar   30  C30         0.0850
    652  OP1      -10.3830  -17.1900    2.3880 O.2    30  C30        -0.5172
    653  OP2       -8.1000  -16.7170    3.4430 O.co2  30  C30        -0.4373
    654  P        -10.6630  -10.4450    3.9870 P.3    31  C31         0.2141
    655  C5'      -11.0860   -8.8020    5.9820 C.3    31  C31         0.1812
    656  O5'      -10.2750   -9.1720    4.8760 O.3    31  C31        -0.3114
    657  C4'      -10.3560   -7.8010    6.8560 C.3    31  C31         0.1773
    658  O4'       -9.3000   -8.4470    7.6130 O.3    31  C31        -0.3307
    659  C3'       -9.6010   -6.7300    6.0940 C.3    31  C31         0.1860
    660  O3'      -10.4820   -5.7510    5.5810 O.3    31  C31        -0.3112
    661  C2'       -8.7440   -6.1880    7.2280 C.3    31  C31         0.2309
    662  O2'       -9.4890   -5.4340    8.1620 O.3    31  C31        -0.2156
    663  C1'       -8.2820   -7.4940    7.8650 C.3    31  C31         0.2420
    664  N1        -6.9870   -7.9840    7.3100 N.ar   31  C31        -0.2535
    665  C2        -5.8580   -7.1540    7.3520 C.ar   31  C31         0.3532
    666  O2        -5.9520   -6.0230    7.8480 O.2    31  C31        -0.2443
    667  N3        -4.6880   -7.6150    6.8430 N.ar   31  C31        -0.1739
    668  C4        -4.6200   -8.8380    6.3150 C.ar   31  C31         0.1759
    669  N4        -3.4440   -9.2460    5.8280 N.pl3  31  C31        -0.1070
    670  C5        -5.7580   -9.6950    6.2650 C.ar   31  C31         0.0566
    671  C6        -6.9090   -9.2330    6.7680 C.ar   31  C31         0.0850
    672  OP1      -11.9840  -10.1890    3.3700 O.3    31  C31        -0.4373
    673  OP2       -9.4950  -10.7920    3.1460 O.co2  31  C31        -0.5172
    674  P        -10.1370   -5.0540    4.1870 P.3    32  G32         0.2141
    675  C5'       -8.5380   -3.3960    5.4210 C.3    32  G32         0.1812
    676  O5'       -8.6920   -4.4210    4.4520 O.3    32  G32        -0.3114
    677  C4'       -7.1340   -2.8240    5.3760 C.3    32  G32         0.1773
    678  O4'       -6.1810   -3.7640    5.9330 O.3    32  G32        -0.3307
    679  C3'       -6.5800   -2.5830    3.9820 C.3    32  G32         0.1860
    680  O3'       -7.1290   -1.4230    3.3870 O.3    32  G32        -0.3112
    681  C2'       -5.0980   -2.4460    4.3020 C.3    32  G32         0.2309
    682  O2'       -4.7800   -1.2530    4.9930 O.3    32  G32        -0.2156
    683  C1'       -4.9570   -3.6520    5.2230 C.3    32  G32         0.2408
    684  N1        -1.5070   -6.8680    3.3410 N.ar   32  G32        -0.1709
    685  C2        -1.3160   -5.7070    4.0520 C.ar   32  G32         0.2606
    686  N2        -0.0460   -5.3560    4.2960 N.pl3  32  G32        -0.0859
    687  N3        -2.3040   -4.9440    4.4950 N.ar   32  G32        -0.1918
    688  C4        -3.5180   -5.4450    4.1610 C.ar   32  G32         0.1723
    689  C5        -3.8110   -6.5890    3.4560 C.ar   32  G32         0.1748
    690  C6        -2.7490   -7.3960    2.9880 C.ar   32  G32         0.3023
    691  O6        -2.8200   -8.4510    2.3410 O.2    32  G32        -0.2633
    692  N7        -5.1850   -6.7520    3.3220 N.ar   32  G32        -0.2173
    693  C8        -5.6860   -5.7200    3.9410 C.ar   32  G32         0.1817
    694  N9        -4.7340   -4.8850    4.4770 N.ar   32  G32        -0.2693
    695  OP1      -11.0960   -3.9420    3.9990 O.3    32  G32        -0.4373
    696  OP2      -10.0160   -6.1150    3.1610 O.co2  32  G32        -0.5172
    697  P         -7.5180   -1.5350    1.8440 P.3    33  A33         0.2141
    698  C5'       -5.7110    0.3190    1.3650 C.3    33  A33         0.1812
    699  O5'       -7.0650   -0.1210    1.2410 O.3    33  A33        -0.3114
    700  C4'       -5.3780    1.3930    0.3400 C.3    33  A33         0.1773
    701  O4'       -4.2030    2.1200    0.7770 O.3    33  A33        -0.3307
    702  C3'       -5.0810    0.8750   -1.0660 C.3    33  A33         0.1860
    703  O3'       -5.9690    1.4300   -2.0560 O.3    33  A33        -0.3112
    704  C2'       -3.6070    1.2000   -1.3260 C.3    33  A33         0.2309
    705  O2'       -3.3820    1.7310   -2.6170 O.3    33  A33        -0.2156
    706  C1'       -3.2520    2.2340   -0.2630 C.3    33  A33         0.2408
    707  N1        -0.0260   -0.9360    2.2360 N.ar   33  A33        -0.2040
    708  C2        -1.2860   -1.0940    1.8190 C.ar   33  A33         0.2016
    709  N3        -2.0710   -0.2310    1.1740 N.ar   33  A33        -0.2048
    710  C4        -1.4330    0.9270    0.9520 C.ar   33  A33         0.1692
    711  C5        -0.1370    1.2380    1.3210 C.ar   33  A33         0.1518
    712  C6         0.5930    0.2390    1.9990 C.ar   33  A33         0.1919
    713  N6         1.8540    0.4020    2.4150 N.pl3  33  A33        -0.1054
    714  N7         0.1880    2.5260    0.9280 N.ar   33  A33        -0.2193
    715  C8        -0.9020    2.9600    0.3380 C.ar   33  A33         0.1816
    716  N9        -1.9210    2.0470    0.3150 N.ar   33  A33        -0.2693
    717  OP1       -8.9920   -1.6390    1.7680 O.3    33  A33        -0.4373
    718  OP2       -6.6760   -2.6020    1.2520 O.co2  33  A33        -0.5172
    719  P         -6.5220    2.9350   -2.0290 P.3    34  C34         0.2141
    720  C5'       -8.7520    3.9080   -1.0320 C.3    34  C34         0.1812
    721  O5'       -7.9230    2.7730   -1.2730 O.3    34  C34        -0.3114
    722  C4'       -9.9820    3.5350   -0.2190 C.3    34  C34         0.1773
    723  O4'      -11.0640    3.1380   -1.1000 O.3    34  C34        -0.3307
    724  C3'       -9.8010    2.3560    0.7250 C.3    34  C34         0.1860
    725  O3'      -10.7570    2.4270    1.7680 O.3    34  C34        -0.3112
    726  C2'      -10.1050    1.1850   -0.2000 C.3    34  C34         0.2309
    727  O2'      -10.5100    0.0320    0.5090 O.3    34  C34        -0.2156
    728  C1'      -11.2730    1.7410   -1.0070 C.3    34  C34         0.2420
    729  N1       -11.3370    1.2040   -2.3900 N.ar   34  C34        -0.2535
    730  C2       -12.5520    0.7400   -2.9020 C.ar   34  C34         0.3532
    731  O2       -13.5610    0.7810   -2.1900 O.2    34  C34        -0.2443
    732  N3       -12.5870    0.2570   -4.1690 N.ar   34  C34        -0.1739
    733  C4       -11.4730    0.2330   -4.9050 C.ar   34  C34         0.1759
    734  N4       -11.5520   -0.2490   -6.1500 N.pl3  34  C34        -0.1070
    735  C5       -10.2260    0.7030   -4.3990 C.ar   34  C34         0.0566
    736  C6       -10.2050    1.1760   -3.1490 C.ar   34  C34         0.0850
    737  OP1       -6.7840    3.3390   -3.4300 O.2    34  C34        -0.5172
    738  OP2       -5.6350    3.7690   -1.1900 O.co2  34  C34        -0.4373
    739  P        -10.2540    2.4540    3.2830 P.3    35  G35         0.2141
    740  C5'       -8.5280    4.0540    4.4580 C.3    35  G35         0.1812
    741  O5'       -9.1890    3.6510    3.2640 O.3    35  G35        -0.3114
    742  C4'       -7.6470    2.9440    5.0050 C.3    35  G35         0.1773
    743  O4'       -6.6820    2.5400    4.0060 O.3    35  G35        -0.3307
    744  C3'       -6.8380    3.3160    6.2380 C.3    35  G35         0.1860
    745  O3'       -6.7640    2.2040    7.1260 O.3    35  G35        -0.3112
    746  C2'       -5.4590    3.6820    5.7000 C.3    35  G35         0.2309
    747  O2'       -4.4510    3.0460    6.4590 O.3    35  G35        -0.2156
    748  C1'       -5.4350    3.1580    4.2620 C.3    35  G35         0.2408
    749  N1        -2.0180    6.1170    1.8720 N.ar   35  G35        -0.1709
    750  C2        -1.8150    5.1850    2.8620 C.ar   35  G35         0.2606
    751  N2        -0.5460    5.0200    3.2670 N.pl3  35  G35        -0.0859
    752  N3        -2.7860    4.4690    3.4160 N.ar   35  G35        -0.1918
    753  C4        -4.0000    4.7620    2.8890 C.ar   35  G35         0.1723
    754  C5        -4.3000    5.6740    1.9020 C.ar   35  G35         0.1748
    755  C6        -3.2580    6.4330    1.3200 C.ar   35  G35         0.3023
    756  O6        -3.3390    7.2900    0.4280 O.2    35  G35        -0.2633
    757  N7        -5.6630    5.6840    1.6360 N.ar   35  G35        -0.2173
    758  C8        -6.1510    4.7950    2.4540 C.ar   35  G35         0.1817
    759  N9        -5.2040    4.1930    3.2490 N.ar   35  G35        -0.2693
    760  OP1       -9.5220    1.1920    3.5390 O.2    35  G35        -0.5172
    761  OP2      -11.4050    2.8230    4.1380 O.co2  35  G35        -0.4373
    762  P         -6.5000    2.4290    8.6910 P.3    36  A36         0.2141
    763  C5'       -6.2200   -0.1310    9.1530 C.3    36  A36         0.1812
    764  O5'       -5.6190    1.1590    9.1030 O.3    36  A36        -0.3114
    765  C4'       -5.1980   -1.1910    9.5200 C.3    36  A36         0.1773
    766  O4'       -4.2080   -1.2920    8.4660 O.3    36  A36        -0.3307
    767  C3'       -4.3980   -0.8880   10.7780 C.3    36  A36         0.1860
    768  O3'       -5.0500   -1.4140   11.9150 O.3    36  A36        -0.3112
    769  C2'       -3.0880   -1.6170   10.5100 C.3    36  A36         0.2309
    770  O2'       -3.1900   -3.0100   10.7310 O.3    36  A36        -0.2156
    771  C1'       -2.9090   -1.3140    9.0280 C.3    36  A36         0.2408
    772  N1         1.2420    1.6550    9.7060 N.ar   36  A36        -0.2040
    773  C2         0.9600    0.4040   10.0950 C.ar   36  A36         0.2016
    774  N3        -0.1430   -0.3150    9.8880 N.ar   36  A36        -0.2048
    775  C4        -1.0380    0.3910    9.1840 C.ar   36  A36         0.1692
    776  C5        -0.8950    1.6820    8.7130 C.ar   36  A36         0.1518
    777  C6         0.3190    2.3370    8.9990 C.ar   36  A36         0.1919
    778  N6         0.5950    3.5850    8.6080 N.pl3  36  A36        -0.1054
    779  N7        -2.0300    2.0810    8.0260 N.ar   36  A36        -0.2193
    780  C8        -2.8240    1.0380    8.0950 C.ar   36  A36         0.1816
    781  N9        -2.2860   -0.0180    8.7770 N.ar   36  A36        -0.2693
    782  OP1       -7.8100    2.3250    9.3750 O.3    36  A36        -0.4373
    783  OP2       -5.6760    3.6480    8.8500 O.co2  36  A36        -0.5172
    784  P         -5.0540   -0.5460   13.2540 P.3    37  A37         0.2141
    785  C5'       -2.7970   -1.6380   14.0290 C.3    37  A37         0.1812
    786  O5'       -3.5060   -0.4680   13.6550 O.3    37  A37        -0.3114
    787  C4'       -1.4210   -1.2740   14.5500 C.3    37  A37         0.1773
    788  O4'       -0.6220   -0.6830   13.4960 O.3    37  A37        -0.3307
    789  C3'       -1.3940   -0.2070   15.6300 C.3    37  A37         0.1860
    790  O3'       -1.7440   -0.7550   16.8900 O.3    37  A37        -0.3112
    791  C2'        0.0790    0.1810   15.5820 C.3    37  A37         0.2309
    792  O2'        0.9100   -0.7810   16.2030 O.3    37  A37        -0.2156
    793  C1'        0.3250    0.1980   14.0770 C.3    37  A37         0.2408
    794  N1         2.5710    4.7140   13.0390 N.ar   37  A37        -0.2040
    795  C2         3.0280    3.6010   13.6260 C.ar   37  A37         0.2016
    796  N3         2.3890    2.4550   13.8660 N.ar   37  A37        -0.2048
    797  C4         1.1210    2.5140   13.4260 C.ar   37  A37         0.1692
    798  C5         0.5080    3.5860   12.8030 C.ar   37  A37         0.1518
    799  C6         1.2910    4.7430   12.6070 C.ar   37  A37         0.1919
    800  N6         0.8280    5.8510   12.0190 N.pl3  37  A37        -0.1054
    801  N7        -0.8080    3.2850   12.4900 N.ar   37  A37        -0.2193
    802  C8        -0.9590    2.0550   12.9240 C.ar   37  A37         0.1816
    803  N9         0.1650    1.5280   13.4980 N.ar   37  A37        -0.2693
    804  OP1       -5.7610   -1.3400   14.2900 O.3    37  A37        -0.4373
    805  OP2       -5.5110    0.8190   12.9040 O.co2  37  A37        -0.5172
    806  P         -2.5730    0.1380   17.9240 P.3    38  A38         0.2141
    807  C5'       -0.3200    1.1500   18.8130 C.3    38  A38         0.1812
    808  O5'       -1.5860    1.3630   18.1990 O.3    38  A38        -0.3114
    809  C4'        0.4140    2.4730   18.9260 C.3    38  A38         0.1773
    810  O4'        0.9070    2.8770   17.6220 O.3    38  A38        -0.3307
    811  C3'       -0.4670    3.6300   19.3720 C.3    38  A38         0.1860
    812  O3'       -0.5570    3.6790   20.7850 O.3    38  A38        -0.3112
    813  C2'        0.2980    4.8150   18.8000 C.3    38  A38         0.2309
    814  O2'        1.4690    5.0990   19.5370 O.3    38  A38        -0.2156
    815  C1'        0.6500    4.2570   17.4270 C.3    38  A38         0.2408
    816  N1        -1.6550    7.3030   13.9680 N.ar   38  A38        -0.2040
    817  C2        -0.5810    7.4870   14.7470 C.ar   38  A38         0.2016
    818  N3        -0.0300    6.6520   15.6290 N.ar   38  A38        -0.2048
    819  C4        -0.7090    5.4950   15.6760 C.ar   38  A38         0.1692
    820  C5        -1.8280    5.1590   14.9380 C.ar   38  A38         0.1518
    821  C6        -2.3150    6.1290   14.0390 C.ar   38  A38         0.1919
    822  N6        -3.3870    5.9450   13.2630 N.pl3  38  A38        -0.1054
    823  N7        -2.2550    3.8810   15.2530 N.ar   38  A38        -0.2193
    824  C8        -1.3990    3.4750   16.1600 C.ar   38  A38         0.1816
    825  N9        -0.4370    4.3990   16.4620 N.ar   38  A38        -0.2693
    826  OP1       -2.7090   -0.6280   19.1830 O.3    38  A38        -0.4373
    827  OP2       -3.7770    0.6460   17.2270 O.co2  38  A38        -0.5172
    828  P         -1.9740    4.0050   21.4490 P.3    39  C39         0.2141
    829  C5'       -1.2160    6.4980   21.6680 C.3    39  C39         0.1812
    830  O5'       -2.1540    5.5670   21.1340 O.3    39  C39        -0.3114
    831  C4'       -1.2060    7.8200   20.9160 C.3    39  C39         0.1773
    832  O4'       -1.1410    7.5890   19.4870 O.3    39  C39        -0.3307
    833  C3'       -2.4470    8.6870   21.0610 C.3    39  C39         0.1860
    834  O3'       -2.4450    9.3850   22.2960 O.3    39  C39        -0.3112
    835  C2'       -2.2560    9.6460   19.8930 C.3    39  C39         0.2309
    836  O2'       -1.3460   10.6880   20.1870 O.3    39  C39        -0.2156
    837  C1'       -1.6800    8.7200   18.8240 C.3    39  C39         0.2420
    838  N1        -2.7150    8.2740   17.8550 N.ar   39  C39        -0.2535
    839  C2        -2.8950    8.9920   16.6680 C.ar   39  C39         0.3532
    840  O2        -2.1820    9.9790   16.4460 O.2    39  C39        -0.2443
    841  N3        -3.8450    8.5800   15.7920 N.ar   39  C39        -0.1739
    842  C4        -4.5910    7.5090   16.0720 C.ar   39  C39         0.1759
    843  N4        -5.5160    7.1400   15.1780 N.pl3  39  C39        -0.1070
    844  C5        -4.4220    6.7670   17.2790 C.ar   39  C39         0.0566
    845  C6        -3.4830    7.1820   18.1360 C.ar   39  C39         0.0850
    846  OP1       -1.8190    3.8420   22.9110 O.3    39  C39        -0.4373
    847  OP2       -3.0140    3.2340   20.7300 O.co2  39  C39        -0.5172
    848  P         -3.8100    9.5360   23.1150 P.3    40  C40         0.2141
    849  C5'       -4.2610   11.9670   22.2870 C.3    40  C40         0.1812
    850  O5'       -4.6510   10.6020   22.2650 O.3    40  C40        -0.3114
    851  C4'       -5.0550   12.8100   21.3050 C.3    40  C40         0.1773
    852  O4'       -4.7920   12.3890   19.9410 O.3    40  C40        -0.3307
    853  C3'       -6.5670   12.7080   21.4060 C.3    40  C40         0.1860
    854  O3'       -7.0640   13.4450   22.5120 O.3    40  C40        -0.3112
    855  C2'       -6.9320   13.3620   20.0800 C.3    40  C40         0.2309
    856  O2'       -6.6990   14.7550   20.0870 O.3    40  C40        -0.2156
    857  C1'       -5.9350   12.6740   19.1520 C.3    40  C40         0.2420
    858  N1        -6.4790   11.4090   18.5790 N.ar   40  C40        -0.2535
    859  C2        -7.4400   11.4700   17.5630 C.ar   40  C40         0.3532
    860  O2        -7.8180   12.5740   17.1490 O.2    40  C40        -0.2443
    861  N3        -7.9320   10.3140   17.0540 N.ar   40  C40        -0.1739
    862  C4        -7.5030    9.1410   17.5210 C.ar   40  C40         0.1759
    863  N4        -8.0200    8.0300   16.9850 N.pl3  40  C40        -0.1070
    864  C5        -6.5270    9.0570   18.5580 C.ar   40  C40         0.0566
    865  C6        -6.0480   10.2030   19.0530 C.ar   40  C40         0.0850
    866  OP1       -3.4630   10.1500   24.4140 O.3    40  C40        -0.4373
    867  OP2       -4.5140    8.2350   23.0800 O.co2  40  C40        -0.5172
    868  P         -8.2540   12.8350   23.3940 P.3    41  C41         0.2141
    869  C5'      -10.1620   14.2830   22.3140 C.3    41  C41         0.1812
    870  O5'       -9.5530   13.0060   22.4690 O.3    41  C41        -0.3114
    871  C4'      -11.0970   14.3220   21.1170 C.3    41  C41         0.1773
    872  O4'      -10.4480   13.7230   19.9640 O.3    41  C41        -0.3307
    873  C3'      -12.3920   13.5350   21.2520 C.3    41  C41         0.1860
    874  O3'      -13.3730   14.2760   21.9630 O.3    41  C41        -0.3112
    875  C2'      -12.7710   13.3960   19.7840 C.3    41  C41         0.2309
    876  O2'      -13.2630   14.6060   19.2410 O.3    41  C41        -0.2156
    877  C1'      -11.4160   13.0610   19.1680 C.3    41  C41         0.2420
    878  N1       -11.1100   11.5970   19.1530 N.ar   41  C41        -0.2535
    879  C2       -11.8860   10.7190   18.3820 C.ar   41  C41         0.3532
    880  O2       -12.8300   11.1590   17.7100 O.2    41  C41        -0.2443
    881  N3       -11.5830    9.3960   18.3930 N.ar   41  C41        -0.1739
    882  C4       -10.5610    8.9490   19.1250 C.ar   41  C41         0.1759
    883  N4       -10.3000    7.6380   19.1020 N.pl3  41  C41        -0.1070
    884  C5        -9.7600    9.8260   19.9130 C.ar   41  C41         0.0566
    885  C6       -10.0670   11.1260   19.8970 C.ar   41  C41         0.0850
    886  OP1       -8.4120   13.7110   24.5760 O.3    41  C41        -0.4373
    887  OP2       -7.9870   11.3910   23.5820 O.co2  41  C41        -0.5172
    888  P        -14.4390   13.4940   22.8640 P.3    42  G42         0.2141
    889  C5'      -16.1270   13.1610   20.8910 C.3    42  G42         0.1812
    890  O5'      -15.2090   12.5720   21.8070 O.3    42  G42        -0.3114
    891  C4'      -16.8380   12.1090   20.0570 C.3    42  G42         0.1773
    892  O4'      -15.9200   11.5490   19.0820 O.3    42  G42        -0.3307
    893  C3'      -17.3690   10.9120   20.8360 C.3    42  G42         0.1860
    894  O3'      -18.6760   11.1710   21.3320 O.3    42  G42        -0.3112
    895  C2'      -17.3790    9.8350   19.7570 C.3    42  G42         0.2309
    896  O2'      -18.4660    9.9610   18.8610 O.3    42  G42        -0.2156
    897  C1'      -16.0640   10.1430   19.0540 C.3    42  G42         0.2408
    898  N1       -13.6070    5.8490   20.2240 N.ar   42  G42        -0.1709
    899  C2       -14.7360    6.0230   19.4580 C.ar   42  G42         0.2606
    900  N2       -15.2820    4.9130   18.9380 N.pl3  42  G42        -0.0859
    901  N3       -15.2930    7.2030   19.2180 N.ar   42  G42        -0.1918
    902  C4       -14.6150    8.2120   19.8170 C.ar   42  G42         0.1723
    903  C5       -13.4830    8.1410   20.5970 C.ar   42  G42         0.1748
    904  C6       -12.8980    6.8760   20.8470 C.ar   42  G42         0.3023
    905  O6       -11.8880    6.6190   21.5190 O.2    42  G42        -0.2633
    906  N7       -13.0980    9.4070   21.0250 N.ar   42  G42        -0.2173
    907  C8       -13.9880   10.2060   20.5060 C.ar   42  G42         0.1817
    908  N9       -14.9340    9.5500   19.7570 N.ar   42  G42        -0.2693
    909  OP1      -15.4130   14.4780   23.3890 O.2    42  G42        -0.5172
    910  OP2      -13.6790   12.6370   23.8010 O.co2  42  G42        -0.4373
    911  P        -19.1170   10.5790   22.7520 P.3    43  G43         0.2141
    912  C5'      -20.2640    8.6390   21.4110 C.3    43  G43         0.1812
    913  O5'      -19.3540    9.0280   22.4360 O.3    43  G43        -0.3114
    914  C4'      -20.0320    7.1930   21.0170 C.3    43  G43         0.1773
    915  O4'      -18.6500    7.0190   20.6190 O.3    43  G43        -0.3307
    916  C3'      -20.2480    6.1910   22.1390 C.3    43  G43         0.1860
    917  O3'      -21.6070    5.7900   22.1640 O.3    43  G43        -0.3112
    918  C2'      -19.3520    5.0360   21.7170 C.3    43  G43         0.2309
    919  O2'      -20.0060    4.1770   20.8060 O.3    43  G43        -0.2156
    920  C1'      -18.1910    5.7460   21.0270 C.3    43  G43         0.2408
    921  N1       -14.5670    3.4690   23.7810 N.ar   43  G43        -0.1709
    922  C2       -15.5830    2.9050   23.0430 C.ar   43  G43         0.2606
    923  N2       -15.6450    1.5650   23.0350 N.pl3  43  G43        -0.0859
    924  N3       -16.4800    3.6040   22.3590 N.ar   43  G43        -0.1918
    925  C4       -16.2710    4.9390   22.4770 C.ar   43  G43         0.1723
    926  C5       -15.2880    5.5930   23.1860 C.ar   43  G43         0.1748
    927  C6       -14.3410    4.8370   23.9100 C.ar   43  G43         0.3023
    928  O6       -13.3980    5.2490   24.5980 O.2    43  G43        -0.2633
    929  N7       -15.4160    6.9690   23.0500 N.ar   43  G43        -0.2173
    930  C8       -16.4560    7.1180   22.2750 C.ar   43  G43         0.1817
    931  N9       -17.0250    5.9290   21.8870 N.ar   43  G43        -0.2693
    932  OP1      -20.4130   11.1900   23.1280 O.2    43  G43        -0.5172
    933  OP2      -17.9540   10.6930   23.6600 O.co2  43  G43        -0.4373
    934  P        -22.2530    5.2820   23.5340 P.3    44  C44         0.2141
    935  C5'      -22.0960    2.7840   22.7480 C.3    44  C44         0.1812
    936  O5'      -21.6910    3.7880   23.6710 O.3    44  C44        -0.3114
    937  C4'      -21.4370    1.4560   23.0760 C.3    44  C44         0.1773
    938  O4'      -20.0000    1.5960   22.9620 O.3    44  C44        -0.3307
    939  C3'      -21.6900    0.9510   24.4880 C.3    44  C44         0.1860
    940  O3'      -22.8050    0.0740   24.4790 O.3    44  C44        -0.3112
    941  C2'      -20.4220    0.1750   24.8140 C.3    44  C44         0.2309
    942  O2'      -20.5250   -1.1650   24.3830 O.3    44  C44        -0.2156
    943  C1'      -19.3490    0.8950   24.0040 C.3    44  C44         0.2420
    944  N1       -18.5310    1.8740   24.7800 N.ar   44  C44        -0.2535
    945  C2       -17.5770    1.4180   25.6980 C.ar   44  C44         0.3532
    946  O2       -17.4310    0.2020   25.8610 O.2    44  C44        -0.2443
    947  N3       -16.8390    2.3240   26.3880 N.ar   44  C44        -0.1739
    948  C4       -17.0260    3.6290   26.1810 C.ar   44  C44         0.1759
    949  N4       -16.2800    4.4910   26.8790 N.pl3  44  C44        -0.1070
    950  C5       -17.9900    4.1120   25.2460 C.ar   44  C44         0.0566
    951  C6       -18.7120    3.2100   24.5730 C.ar   44  C44         0.0850
    952  OP1      -23.7200    5.2020   23.3440 O.2    44  C44        -0.5172
    953  OP2      -21.6940    6.1120   24.6260 O.co2  44  C44        -0.4373
    954  P        -23.7320   -0.0410   25.7750 P.3    45  A45         0.2141
    955  C5'      -22.4880   -2.1000   26.8220 C.3    45  A45         0.1812
    956  O5'      -22.7630   -0.7040   26.8620 O.3    45  A45        -0.3114
    957  C4'      -21.3300   -2.4460   27.7430 C.3    45  A45         0.1773
    958  O4'      -20.2240   -1.5590   27.4470 O.3    45  A45        -0.3307
    959  C3'      -21.6240   -2.2980   29.2300 C.3    45  A45         0.1860
    960  O3'      -21.8750   -3.5840   29.7910 O.3    45  A45        -0.3112
    961  C2'      -20.3510   -1.6980   29.8190 C.3    45  A45         0.2309
    962  O2'      -19.5180   -2.6930   30.3790 O.3    45  A45        -0.2156
    963  C1'      -19.6420   -1.0560   28.6300 C.3    45  A45         0.2408
    964  N1       -17.3280    3.4250   29.6600 N.ar   45  A45        -0.2040
    965  C2       -16.9500    2.1580   29.8620 C.ar   45  A45         0.2016
    966  N3       -17.6010    1.0350   29.5720 N.ar   45  A45        -0.2048
    967  C4       -18.7860    1.3040   29.0040 C.ar   45  A45         0.1692
    968  C5       -19.3120    2.5530   28.7330 C.ar   45  A45         0.1518
    969  C6       -18.5250    3.6660   29.0880 C.ar   45  A45         0.1919
    970  N6       -18.9040    4.9340   28.8870 N.pl3  45  A45        -0.1054
    971  N7       -20.5600    2.4420   28.1430 N.ar   45  A45        -0.2193
    972  C8       -20.7570    1.1460   28.0680 C.ar   45  A45         0.1816
    973  N9       -19.7290    0.4000   28.5740 N.ar   45  A45        -0.2693
    974  OP1      -24.8020   -1.0210   25.4840 O.2    45  A45        -0.5172
    975  OP2      -24.0830    1.3360   26.1930 O.co2  45  A45        -0.4373
    976  P        -22.8930   -3.7420   31.0180 P.3    46  A46         0.2141
    977  C5'      -20.9610   -4.2600   32.7080 C.3    46  A46         0.1812
    978  O5'      -21.9990   -3.3820   32.2930 O.3    46  A46        -0.3114
    979  C4'      -20.1430   -3.6040   33.8010 C.3    46  A46         0.1773
    980  O4'      -19.6980   -2.3090   33.3280 O.3    46  A46        -0.3307
    981  C3'      -20.9090   -3.3560   35.0970 C.3    46  A46         0.1860
    982  O3'      -20.0800   -3.5770   36.2270 O.3    46  A46        -0.3112
    983  C2'      -21.3010   -1.8910   35.0070 C.3    46  A46         0.2309
    984  O2'      -21.3460   -1.2990   36.2880 O.3    46  A46        -0.2156
    985  C1'      -20.1560   -1.2980   34.1980 C.3    46  A46         0.2408
    986  N1       -18.9940    3.3540   32.3190 N.ar   46  A46        -0.2040
    987  C2       -18.2980    2.5020   33.0810 C.ar   46  A46         0.2016
    988  N3       -18.6560    1.3000   33.5370 N.ar   46  A46        -0.2048
    989  C4       -19.8930    0.9840   33.1280 C.ar   46  A46         0.1692
    990  C5       -20.7290    1.7540   32.3420 C.ar   46  A46         0.1518
    991  C6       -20.2360    3.0040   31.9240 C.ar   46  A46         0.1919
    992  N6       -20.9370    3.8460   31.1620 N.pl3  46  A46        -0.1054
    993  N7       -21.9320    1.1050   32.1200 N.ar   46  A46        -0.2193
    994  C8       -21.8010   -0.0290   32.7690 C.ar   46  A46         0.1816
    995  N9       -20.5960   -0.1650   33.3980 N.ar   46  A46        -0.2693
    996  OP1      -23.2620   -5.1710   31.1200 O.3    46  A46        -0.4373
    997  OP2      -23.9490   -2.7140   30.8770 O.co2  46  A46        -0.5172
    998  P        -19.8210   -5.0670   36.7320 P.3    47  C47         0.2141
    999  C5'      -17.6100   -6.2870   37.3590 C.3    47  C47         0.1812
   1000  O5'      -18.2290   -5.1350   36.8130 O.3    47  C47        -0.3114
   1001  C4'      -16.1360   -6.0260   37.5810 C.3    47  C47         0.1773
   1002  O4'      -15.5720   -5.4100   36.3990 O.3    47  C47        -0.3307
   1003  C3'      -15.8310   -5.0250   38.6790 C.3    47  C47         0.1860
   1004  O3'      -15.8310   -5.6800   39.9330 O.3    47  C47        -0.3112
   1005  C2'      -14.4320   -4.5700   38.2880 C.3    47  C47         0.2309
   1006  O2'      -13.4530   -5.5290   38.6340 O.3    47  C47        -0.2156
   1007  C1'      -14.5560   -4.4970   36.7710 C.3    47  C47         0.2420
   1008  N1       -14.9230   -3.1600   36.2310 N.ar   47  C47        -0.2535
   1009  C2       -13.9790   -2.1290   36.2160 C.ar   47  C47         0.3532
   1010  O2       -12.8470   -2.3420   36.6680 O.2    47  C47        -0.2443
   1011  N3       -14.3340   -0.9210   35.7090 N.ar   47  C47        -0.1739
   1012  C4       -15.5660   -0.7340   35.2320 C.ar   47  C47         0.1759
   1013  N4       -15.8740    0.4710   34.7450 N.pl3  47  C47        -0.1070
   1014  C5       -16.5390   -1.7750   35.2350 C.ar   47  C47         0.0566
   1015  C6       -16.1770   -2.9590   35.7380 C.ar   47  C47         0.0850
   1016  OP1      -20.3030   -5.9940   35.6830 O.2    47  C47        -0.5172
   1017  OP2      -20.3390   -5.1790   38.1150 O.co2  47  C47        -0.4373
   1018  P        -16.5230   -4.9520   41.1730 P.3    48  C48         0.2141
   1019  C5'      -14.1890   -4.1370   42.0540 C.3    48  C48         0.1812
   1020  O5'      -15.4750   -3.8030   41.5480 O.3    48  C48        -0.3114
   1021  C4'      -13.2630   -2.9310   42.0260 C.3    48  C48         0.1773
   1022  O4'      -13.0640   -2.4920   40.6580 O.3    48  C48        -0.3307
   1023  C3'      -13.7760   -1.6740   42.7130 C.3    48  C48         0.1860
   1024  O3'      -13.6180   -1.7470   44.1180 O.3    48  C48        -0.3112
   1025  C2'      -12.8490   -0.6340   42.0980 C.3    48  C48         0.2309
   1026  O2'      -11.5320   -0.7010   42.6070 O.3    48  C48        -0.2156
   1027  C1'      -12.8700   -1.0880   40.6440 C.3    48  C48         0.2420
   1028  N1       -13.9680   -0.4540   39.8790 N.ar   48  C48        -0.2535
   1029  C2       -13.8410    0.8870   39.5160 C.ar   48  C48         0.3532
   1030  O2       -12.8160    1.4990   39.8430 O.2    48  C48        -0.2443
   1031  N3       -14.8420    1.4730   38.8180 N.ar   48  C48        -0.1739
   1032  C4       -15.9260    0.7660   38.4910 C.ar   48  C48         0.1759
   1033  N4       -16.8890    1.3870   37.8010 N.pl3  48  C48        -0.1070
   1034  C5       -16.0730   -0.6050   38.8550 C.ar   48  C48         0.0566
   1035  C6       -15.0780   -1.1700   39.5440 C.ar   48  C48         0.0850
   1036  OP1      -16.5580   -5.9280   42.2830 O.3    48  C48        -0.4373
   1037  OP2      -17.7740   -4.3150   40.6950 O.co2  48  C48        -0.5172
   1038  P        -14.8070   -1.2070   45.0410 P.3    49  A49         0.2141
   1039  C5'      -13.1810    0.7590   45.6260 C.3    49  A49         0.1812
   1040  O5'      -14.4660    0.3440   45.2060 O.3    49  A49        -0.3114
   1041  C4'      -13.0330    2.2380   45.3410 C.3    49  A49         0.1773
   1042  O4'      -13.0140    2.4680   43.9090 O.3    49  A49        -0.3307
   1043  C3'      -14.2020    3.0870   45.8090 C.3    49  A49         0.1860
   1044  O3'      -14.1340    3.3100   47.2150 O.3    49  A49        -0.3112
   1045  C2'      -13.9430    4.3490   44.9910 C.3    49  A49         0.2309
   1046  O2'      -12.8810    5.1280   45.5080 O.3    49  A49        -0.2156
   1047  C1'      -13.5530    3.7490   43.6390 C.3    49  A49         0.2408
   1048  N1       -16.7740    6.1850   40.4500 N.ar   49  A49        -0.2040
   1049  C2       -15.7330    6.6090   41.1730 C.ar   49  A49         0.2016
   1050  N3       -14.9350    5.9160   41.9830 N.ar   49  A49        -0.2048
   1051  C4       -15.2950    4.6240   42.0190 C.ar   49  A49         0.1692
   1052  C5       -16.3420    4.0360   41.3340 C.ar   49  A49         0.1518
   1053  C6       -17.1160    4.8800   40.5060 C.ar   49  A49         0.1919
   1054  N6       -18.1590    4.4620   39.7790 N.pl3  49  A49        -0.1054
   1055  N7       -16.4100    2.6810   41.6220 N.ar   49  A49        -0.2193
   1056  C8       -15.4180    2.4840   42.4620 C.ar   49  A49         0.1816
   1057  N9       -14.7000    3.6140   42.7430 N.ar   49  A49        -0.2693
   1058  OP1      -14.6820   -1.8610   46.3630 O.3    49  A49        -0.4373
   1059  OP2      -16.0670   -1.3110   44.2680 O.co2  49  A49        -0.5172
   1060  P        -15.3910    2.9620   48.1470 P.3    50  G50         0.2141
   1061  C5'      -16.0740    5.4650   48.0940 C.3    50  G50         0.1812
   1062  O5'      -16.4240    4.1270   47.7840 O.3    50  G50        -0.3114
   1063  C4'      -16.8860    6.4540   47.2800 C.3    50  G50         0.1773
   1064  O4'      -16.6740    6.2470   45.8600 O.3    50  G50        -0.3307
   1065  C3'      -18.3940    6.3370   47.4110 C.3    50  G50         0.1860
   1066  O3'      -18.8420    6.8620   48.6500 O.3    50  G50        -0.3112
   1067  C2'      -18.8020    7.2160   46.2360 C.3    50  G50         0.2309
   1068  O2'      -18.6240    8.5940   46.4970 O.3    50  G50        -0.2156
   1069  C1'      -17.8150    6.7340   45.1730 C.3    50  G50         0.2408
   1070  N1       -20.6990    5.6190   41.1550 N.ar   50  G50        -0.1709
   1071  C2       -20.3010    6.8460   41.6320 C.ar   50  G50         0.2606
   1072  N2       -20.7300    7.9180   40.9530 N.pl3  50  G50        -0.0859
   1073  N3       -19.5350    7.0140   42.7010 N.ar   50  G50        -0.1918
   1074  C4       -19.1970    5.8300   43.2640 C.ar   50  G50         0.1723
   1075  C5       -19.5420    4.5590   42.8680 C.ar   50  G50         0.1748
   1076  C6       -20.3570    4.3940   41.7270 C.ar   50  G50         0.3023
   1077  O6       -20.7620    3.3370   41.2280 O.2    50  G50        -0.2633
   1078  N7       -18.9890    3.6090   43.7150 N.ar   50  G50        -0.2173
   1079  C8       -18.3330    4.3140   44.5950 C.ar   50  G50         0.1817
   1080  N9       -18.4090    5.6690   44.3770 N.ar   50  G50        -0.2693
   1081  OP1      -14.9810    3.1510   49.5570 O.3    50  G50        -0.4373
   1082  OP2      -15.9490    1.6600   47.7180 O.co2  50  G50        -0.5172
   1083  P        -19.8620    6.0080   49.5410 P.3    51  A51         0.2141
   1084  C5'      -22.3030    5.2100   49.0330 C.3    51  A51         0.1812
   1085  O5'      -21.2070    6.0450   48.6770 O.3    51  A51        -0.3114
   1086  C4'      -23.5820    5.7450   48.4220 C.3    51  A51         0.1773
   1087  O4'      -24.0140    6.9130   49.1610 O.3    51  A51        -0.3307
   1088  C3'      -23.4280    6.2270   46.9900 C.3    51  A51         0.1860
   1089  O3'      -23.6340    5.1500   46.0910 O.3    51  A51        -0.3112
   1090  C2'      -24.5190    7.2880   46.8830 C.3    51  A51         0.2309
   1091  O2'      -25.8060    6.7420   46.6630 O.3    51  A51        -0.2156
   1092  C1'      -24.4410    7.9230   48.2660 C.3    51  A51         0.2408
   1093  N1       -23.6240   12.8810   47.1890 N.ar   51  A51        -0.2040
   1094  C2       -24.6820   12.0840   46.9950 C.ar   51  A51         0.2016
   1095  N3       -24.8280   10.7950   47.3020 N.ar   51  A51        -0.2048
   1096  C4       -23.7150   10.3140   47.8790 C.ar   51  A51         0.1692
   1097  C5       -22.5490   11.0050   48.1460 C.ar   51  A51         0.1518
   1098  C6       -22.5200   12.3650   47.7720 C.ar   51  A51         0.1919
   1099  N6       -21.4620   13.1590   47.9670 N.pl3  51  A51        -0.1054
   1100  N7       -21.6150   10.1780   48.7500 N.ar   51  A51        -0.2193
   1101  C8       -22.2270    9.0200   48.8340 C.ar   51  A51         0.1816
   1102  N9       -23.4970    9.0340   48.3280 N.ar   51  A51        -0.2693
   1103  OP1      -20.1040    6.7600   50.7940 O.3    51  A51        -0.4373
   1104  OP2      -19.3690    4.6120   49.5990 O.co2  51  A51        -0.5172
   1105  P        -23.1210    5.2940   44.5850 P.3    52  A52         0.2141
   1106  C5'      -24.4590    6.1130   42.4810 C.3    52  A52         0.1812
   1107  O5'      -24.4850    5.5110   43.7700 O.3    52  A52        -0.3114
   1108  C4'      -24.8960    7.5660   42.5450 C.3    52  A52         0.1773
   1109  O4'      -24.4270    8.1740   43.7710 O.3    52  A52        -0.3307
   1110  C3'      -24.3170    8.4690   41.4670 C.3    52  A52         0.1860
   1111  O3'      -25.0340    8.3290   40.2530 O.3    52  A52        -0.3112
   1112  C2'      -24.5240    9.8510   42.0790 C.3    52  A52         0.2309
   1113  O2'      -25.8190   10.3660   41.8380 O.3    52  A52        -0.2156
   1114  C1'      -24.3450    9.5750   43.5700 C.3    52  A52         0.2408
   1115  N1       -21.3220   13.6660   44.3200 N.ar   52  A52        -0.2040
   1116  C2       -22.5290   13.5360   43.7540 C.ar   52  A52         0.2016
   1117  N3       -23.2630   12.4350   43.5890 N.ar   52  A52        -0.2048
   1118  C4       -22.6300   11.3610   44.0880 C.ar   52  A52         0.1692
   1119  C5       -21.3900   11.3360   44.6990 C.ar   52  A52         0.1518
   1120  C6       -20.7110   12.5680   44.8130 C.ar   52  A52         0.1919
   1121  N6       -19.5060   12.6980   45.3790 N.pl3  52  A52        -0.1054
   1122  N7       -21.0630   10.0460   45.0870 N.ar   52  A52        -0.2193
   1123  C8       -22.0950    9.3300   44.7080 C.ar   52  A52         0.1816
   1124  N9       -23.0760   10.0620   44.1000 N.ar   52  A52        -0.2693
   1125  OP1      -22.5260    3.9930   44.2000 O.2    52  A52        -0.5172
   1126  OP2      -22.3080    6.5280   44.4930 O.co2  52  A52        -0.4373
   1127  P        -24.3000    8.6540   38.8700 P.3    53  A53         0.2141
   1128  C5'      -24.4520   11.0930   37.9380 C.3    53  A53         0.1812
   1129  O5'      -24.0050   10.2250   38.9730 O.3    53  A53        -0.3114
   1130  C4'      -23.9490   12.5070   38.1560 C.3    53  A53         0.1773
   1131  O4'      -23.8360   12.7740   39.5780 O.3    53  A53        -0.3307
   1132  C3'      -22.5550   12.7890   37.6100 C.3    53  A53         0.1860
   1133  O3'      -22.6010   13.1250   36.2250 O.3    53  A53        -0.3112
   1134  C2'      -22.1270   13.9680   38.4780 C.3    53  A53         0.2309
   1135  O2'      -22.7310   15.1920   38.1050 O.3    53  A53        -0.2156
   1136  C1'      -22.6450   13.4960   39.8320 C.3    53  A53         0.2408
   1137  N1       -18.3620   13.1570   42.6760 N.ar   53  A53        -0.2040
   1138  C2       -19.0490   14.2100   42.2150 C.ar   53  A53         0.2016
   1139  N3       -20.1600   14.2300   41.4800 N.ar   53  A53        -0.2048
   1140  C4       -20.5770   12.9830   41.2090 C.ar   53  A53         0.1692
   1141  C5       -19.9790   11.8040   41.6120 C.ar   53  A53         0.1518
   1142  C6       -18.8050   11.9140   42.3880 C.ar   53  A53         0.1919
   1143  N6       -18.1190   10.8590   42.8480 N.pl3  53  A53        -0.1054
   1144  N7       -20.6930   10.7110   41.1440 N.ar   53  A53        -0.2193
   1145  C8       -21.6920   11.2430   40.4800 C.ar   53  A53         0.1816
   1146  N9       -21.6860   12.6100   40.4830 N.ar   53  A53        -0.2693
   1147  OP1      -25.2700    8.4530   37.7710 O.2    53  A53        -0.5172
   1148  OP2      -23.0220    7.9090   38.8750 O.co2  53  A53        -0.4373
   1149  P        -22.1820   12.0480   35.1150 P.3    54  U54         0.2141
   1150  C5'      -19.8510   13.2010   35.4150 C.3    54  U54         0.1812
   1151  O5'      -20.5910   11.9970   35.2690 O.3    54  U54        -0.3114
   1152  C4'      -18.6780   12.9810   36.3490 C.3    54  U54         0.1773
   1153  O4'      -19.1640   12.4050   37.5880 O.3    54  U54        -0.3307
   1154  C3'      -17.6380   11.9820   35.8650 C.3    54  U54         0.1860
   1155  O3'      -16.6950   12.6020   35.0020 O.3    54  U54        -0.3112
   1156  C2'      -16.9900   11.5740   37.1810 C.3    54  U54         0.2309
   1157  O2'      -16.0940   12.5540   37.6680 O.3    54  U54        -0.2156
   1158  C1'      -18.2100   11.4850   38.0900 C.3    54  U54         0.2420
   1159  N1       -18.8080   10.1220   38.1230 N.ar   54  U54        -0.2534
   1160  C2       -18.1200    9.1060   38.7540 C.ar   54  U54         0.3546
   1161  O2       -17.0380    9.2680   39.2910 O.2    54  U54        -0.2443
   1162  N3       -18.7460    7.8840   38.7370 N.ar   54  U54        -0.1530
   1163  C4       -19.9670    7.5840   38.1620 C.ar   54  U54         0.2846
   1164  O4       -20.4040    6.4390   38.2280 O.2    54  U54        -0.2650
   1165  C5       -20.6220    8.6970   37.5230 C.ar   54  U54         0.0814
   1166  C6       -20.0310    9.8980   37.5280 C.ar   54  U54         0.0870
   1167  OP1      -22.5030   12.6190   33.7880 O.2    54  U54        -0.5172
   1168  OP2      -22.7340   10.7320   35.5090 O.co2  54  U54        -0.4373
   1169  P        -15.7940   11.6960   34.0370 P.3    55  G55         0.2141
   1170  C5'      -13.8350   11.8760   35.7750 C.3    55  G55         0.1812
   1171  O5'      -14.7170   11.0490   35.0300 O.3    55  G55        -0.3114
   1172  C4'      -13.1410   11.0670   36.8550 C.3    55  G55         0.1773
   1173  O4'      -14.1300   10.4170   37.6890 O.3    55  G55        -0.3307
   1174  C3'      -12.2800    9.9280   36.3360 C.3    55  G55         0.1860
   1175  O3'      -10.9880   10.4160   36.0280 O.3    55  G55        -0.3112
   1176  C2'      -12.2560    8.9720   37.5240 C.3    55  G55         0.2309
   1177  O2'      -11.3220    9.3480   38.5140 O.3    55  G55        -0.2156
   1178  C1'      -13.6700    9.1320   38.0660 C.3    55  G55         0.2408
   1179  N1       -14.9630    4.2260   37.9770 N.ar   55  G55        -0.1709
   1180  C2       -13.9470    4.8490   38.6650 C.ar   55  G55         0.2606
   1181  N2       -13.1730    4.0650   39.4280 N.pl3  55  G55        -0.0859
   1182  N3       -13.7030    6.1520   38.6100 N.ar   55  G55        -0.1918
   1183  C4       -14.5770    6.7890   37.7960 C.ar   55  G55         0.1723
   1184  C5       -15.6210    6.2590   37.0700 C.ar   55  G55         0.1748
   1185  C6       -15.8710    4.8690   37.1360 C.ar   55  G55         0.3023
   1186  O6       -16.7560    4.2200   36.5600 O.2    55  G55        -0.2633
   1187  N7       -16.2800    7.2540   36.3570 N.ar   55  G55        -0.2173
   1188  C8       -15.6330    8.3460   36.6600 C.ar   55  G55         0.1817
   1189  N9       -14.5890    8.1370   37.5300 N.ar   55  G55        -0.2693
   1190  OP1      -15.0740   12.6060   33.1190 O.2    55  G55        -0.5172
   1191  OP2      -16.6550   10.6210   33.4900 O.co2  55  G55        -0.4373
   1192  P        -10.1830    9.7450   34.8260 P.3    56  G56         0.2141
   1193  C5'       -8.7110    8.6150   36.6590 C.3    56  G56         0.1812
   1194  O5'       -9.5450    8.4560   35.5210 O.3    56  G56        -0.3114
   1195  C4'       -8.2030    7.2660   37.1300 C.3    56  G56         0.1773
   1196  O4'       -9.2070    6.5980   37.9390 O.3    56  G56        -0.3307
   1197  C3'       -7.9050    6.2730   36.0170 C.3    56  G56         0.1860
   1198  O3'       -6.6340    6.5500   35.4310 O.3    56  G56        -0.3112
   1199  C2'       -7.9320    4.9690   36.8060 C.3    56  G56         0.2309
   1200  O2'       -6.7740    4.7970   37.5940 O.3    56  G56        -0.2156
   1201  C1'       -9.1450    5.2030   37.7010 C.3    56  G56         0.2408
   1202  N1       -12.2300    1.3290   36.4930 N.ar   56  G56        -0.1709
   1203  C2       -11.0210    1.3060   37.1490 C.ar   56  G56         0.2606
   1204  N2       -10.5780    0.1000   37.5320 N.pl3  56  G56        -0.0859
   1205  N3       -10.2940    2.3850   37.4140 N.ar   56  G56        -0.1918
   1206  C4       -10.8900    3.5150   36.9600 C.ar   56  G56         0.1723
   1207  C5       -12.0900    3.6410   36.2950 C.ar   56  G56         0.1748
   1208  C6       -12.8530    2.4820   36.0200 C.ar   56  G56         0.3023
   1209  O6       -13.9430    2.4060   35.4400 O.2    56  G56        -0.2633
   1210  N7       -12.3510    4.9710   35.9970 N.ar   56  G56        -0.2173
   1211  C8       -11.3240    5.6140   36.4770 C.ar   56  G56         0.1817
   1212  N9       -10.3980    4.7950   37.0770 N.ar   56  G56        -0.2693
   1213  OP1       -9.0760   10.6540   34.4580 O.3    56  G56        -0.4373
   1214  OP2      -11.1650    9.3160   33.8040 O.co2  56  G56        -0.5172
   1215  P         -6.2710    5.9670   33.9830 P.3    57  U57         0.2141
   1216  C5'       -7.0800    3.7230   32.8640 C.3    57  U57         0.1812
   1217  O5'       -7.2400    4.6970   33.8860 O.3    57  U57        -0.3114
   1218  C4'       -7.1740    2.3320   33.4630 C.3    57  U57         0.1773
   1219  O4'       -8.3310    2.2430   34.3340 O.3    57  U57        -0.3307
   1220  C3'       -7.3790    1.2060   32.4640 C.3    57  U57         0.1860
   1221  O3'       -6.1360    0.8320   31.8790 O.3    57  U57        -0.3112
   1222  C2'       -7.9410    0.1330   33.3910 C.3    57  U57         0.2309
   1223  O2'       -6.9740   -0.4070   34.2700 O.3    57  U57        -0.2156
   1224  C1'       -8.9290    0.9680   34.1940 C.3    57  U57         0.2420
   1225  N1       -10.2580    1.1230   33.5340 N.ar   57  U57        -0.2534
   1226  C2       -11.1140    0.0410   33.4890 C.ar   57  U57         0.3546
   1227  O2       -10.8350   -1.0460   33.9640 O.2    57  U57        -0.2443
   1228  N3       -12.3140    0.2760   32.8640 N.ar   57  U57        -0.1530
   1229  C4       -12.7300    1.4630   32.2940 C.ar   57  U57         0.2846
   1230  O4       -13.8340    1.5260   31.7670 O.2    57  U57        -0.2650
   1231  C5       -11.7850    2.5460   32.3810 C.ar   57  U57         0.0814
   1232  C6       -10.6100    2.3390   32.9850 C.ar   57  U57         0.0870
   1233  OP1       -4.8680    5.4840   34.0240 O.3    57  U57        -0.4373
   1234  OP2       -6.6900    6.9610   32.9660 O.co2  57  U57        -0.5172
   1235  P         -5.8810    1.1040   30.3240 P.3    58  G58         0.2141
   1236  C5'       -6.8920   -1.2510   29.9490 C.3    58  G58         0.1812
   1237  O5'       -6.9300    0.1240   29.6240 O.3    58  G58        -0.3114
   1238  C4'       -8.2850   -1.8440   29.9150 C.3    58  G58         0.1773
   1239  O4'       -9.2240   -0.9570   30.5660 O.3    58  G58        -0.3307
   1240  C3'       -8.8890   -2.0040   28.5350 C.3    58  G58         0.1860
   1241  O3'       -8.3300   -3.1300   27.8930 O.3    58  G58        -0.3112
   1242  C2'      -10.3330   -2.2590   28.9330 C.3    58  G58         0.2309
   1243  O2'      -10.5090   -3.5690   29.4320 O.3    58  G58        -0.2156
   1244  C1'      -10.5120   -1.2390   30.0540 C.3    58  G58         0.2408
   1245  N1       -14.5670    0.8470   27.8670 N.ar   58  G58        -0.1709
   1246  C2       -14.3230   -0.4670   28.1870 C.ar   58  G58         0.2606
   1247  N2       -15.2860   -1.3510   27.8850 N.pl3  58  G58        -0.0859
   1248  N3       -13.2100   -0.8920   28.7640 N.ar   58  G58        -0.1918
   1249  C4       -12.3470    0.1240   28.9970 C.ar   58  G58         0.1723
   1250  C5       -12.4940    1.4620   28.7170 C.ar   58  G58         0.1748
   1251  C6       -13.6890    1.9010   28.1000 C.ar   58  G58         0.3023
   1252  O6       -14.0060    3.0520   27.7720 O.2    58  G58        -0.2633
   1253  N7       -11.3690    2.1770   29.1180 N.ar   58  G58        -0.2173
   1254  C8       -10.5790    1.2680   29.6230 C.ar   58  G58         0.1817
   1255  N9       -11.1120    0.0010   29.5850 N.ar   58  G58        -0.2693
   1256  OP1       -4.5250    0.6210   29.9850 O.2    58  G58        -0.5172
   1257  OP2       -6.2640    2.5060   30.0390 O.co2  58  G58        -0.4373
   1258  P         -7.7550   -2.9850   26.4090 P.3    59  C59         0.2141
   1259  C5'       -9.8050   -4.3930   25.6450 C.3    59  C59         0.1812
   1260  O5'       -9.0530   -3.2010   25.5020 O.3    59  C59        -0.3114
   1261  C4'      -11.2250   -4.1900   25.1520 C.3    59  C59         0.1773
   1262  O4'      -11.9440   -3.3100   26.0560 O.3    59  C59        -0.3307
   1263  C3'      -11.3500   -3.5210   23.7910 C.3    59  C59         0.1860
   1264  O3'      -11.1780   -4.4790   22.7560 O.3    59  C59        -0.3112
   1265  C2'      -12.7930   -3.0490   23.8730 C.3    59  C59         0.2309
   1266  O2'      -13.6960   -4.1270   23.7350 O.3    59  C59        -0.2156
   1267  C1'      -12.8380   -2.5120   25.3010 C.3    59  C59         0.2420
   1268  N1       -12.4080   -1.0910   25.4100 N.ar   59  C59        -0.2535
   1269  C2       -13.2970   -0.0680   25.0630 C.ar   59  C59         0.3532
   1270  O2       -14.4340   -0.3610   24.6710 O.2    59  C59        -0.2443
   1271  N3       -12.8850    1.2210   25.1680 N.ar   59  C59        -0.1739
   1272  C4       -11.6510    1.4960   25.5940 C.ar   59  C59         0.1759
   1273  N4       -11.2910    2.7800   25.6810 N.pl3  59  C59        -0.1070
   1274  C5       -10.7300    0.4690   25.9510 C.ar   59  C59         0.0566
   1275  C6       -11.1480   -0.7970   25.8440 C.ar   59  C59         0.0850
   1276  OP1       -6.8400   -4.1240   26.1780 O.2    59  C59        -0.5172
   1277  OP2       -7.2730   -1.5980   26.2280 O.co2  59  C59        -0.4373
   1278  P        -10.4560   -4.0830   21.3840 P.3    60  C60         0.2141
   1279  C5'      -12.8290   -3.7770   20.3430 C.3    60  C60         0.1812
   1280  O5'      -11.5620   -3.2040   20.6350 O.3    60  C60        -0.3114
   1281  C4'      -13.7330   -2.7750   19.6490 C.3    60  C60         0.1773
   1282  O4'      -14.0820   -1.7140   20.5660 O.3    60  C60        -0.3307
   1283  C3'      -13.1140   -2.0620   18.4600 C.3    60  C60         0.1860
   1284  O3'      -13.2990   -2.8510   17.2970 O.3    60  C60        -0.3112
   1285  C2'      -13.9500   -0.7890   18.3820 C.3    60  C60         0.2309
   1286  O2'      -15.1410   -0.9700   17.6420 O.3    60  C60        -0.2156
   1287  C1'      -14.3010   -0.5210   19.8400 C.3    60  C60         0.2420
   1288  N1       -13.4890    0.5550   20.4530 N.ar   60  C60        -0.2535
   1289  C2       -13.7240    1.8820   20.0900 C.ar   60  C60         0.3532
   1290  O2       -14.6040    2.1330   19.2570 O.2    60  C60        -0.2443
   1291  N3       -12.9760    2.8560   20.6640 N.ar   60  C60        -0.1739
   1292  C4       -12.0380    2.5390   21.5560 C.ar   60  C60         0.1759
   1293  N4       -11.3240    3.5320   22.0950 N.pl3  60  C60        -0.1070
   1294  C5       -11.7870    1.1890   21.9380 C.ar   60  C60         0.0566
   1295  C6       -12.5300    0.2380   21.3660 C.ar   60  C60         0.0850
   1296  OP1      -10.2750   -5.3360   20.6200 O.2    60  C60        -0.5172
   1297  OP2       -9.2840   -3.2310   21.6860 O.co2  60  C60        -0.4373
   1298  P        -12.3650   -2.6580   16.0110 P.3    61  A61         0.2141
   1299  C5'      -13.4410   -4.9770   15.4100 C.3    61  A61         0.1812
   1300  O5'      -13.0200   -3.6870   14.9740 O.3    61  A61        -0.3114
   1301  C4'      -14.3710   -5.5930   14.3840 C.3    61  A61         0.1773
   1302  O4'      -13.7820   -5.4200   13.0700 O.3    61  A61        -0.3307
   1303  C3'      -14.6080   -7.0920   14.5180 C.3    61  A61         0.1860
   1304  O3'      -15.6860   -7.3680   15.4140 O.3    61  A61        -0.3112
   1305  C2'      -14.9730   -7.4500   13.0810 C.3    61  A61         0.2309
   1306  O2'      -16.3010   -7.0780   12.7580 O.3    61  A61        -0.2156
   1307  C1'      -13.9880   -6.5870   12.2970 C.3    61  A61         0.2408
   1308  N1       -11.4130  -10.2870    9.8050 N.ar   61  A61        -0.2040
   1309  C2       -12.7100   -9.9580    9.8210 C.ar   61  A61         0.2016
   1310  N3       -13.3190   -8.9800   10.4930 N.ar   61  A61        -0.2048
   1311  C4       -12.4340   -8.2860   11.2240 C.ar   61  A61         0.1692
   1312  C5       -11.0710   -8.5050   11.3090 C.ar   61  A61         0.1518
   1313  C6       -10.5480   -9.5680   10.5510 C.ar   61  A61         0.1919
   1314  N6        -9.2520   -9.8900   10.5380 N.pl3  61  A61        -0.1054
   1315  N7       -10.4780   -7.5930   12.1600 N.ar   61  A61        -0.2193
   1316  C8       -11.4810   -6.8510   12.5680 C.ar   61  A61         0.1816
   1317  N9       -12.6910   -7.2130   12.0450 N.ar   61  A61        -0.2693
   1318  OP1      -11.0010   -3.1170   16.3590 O.3    61  A61        -0.4373
   1319  OP2      -12.5740   -1.2890   15.4830 O.co2  61  A61        -0.5172
   1320  P        -15.6120   -8.6420   16.3860 P.3    62  A62         0.2141
   1321  C5'      -16.8760  -10.1160   14.6320 C.3    62  A62         0.1812
   1322  O5'      -15.6910   -9.8770   15.3770 O.3    62  A62        -0.3114
   1323  C4'      -16.6580  -11.2770   13.6820 C.3    62  A62         0.1773
   1324  O4'      -15.6180  -10.9240   12.7380 O.3    62  A62        -0.3307
   1325  C3'      -16.1680  -12.5630   14.3330 C.3    62  A62         0.1860
   1326  O3'      -17.2750  -13.3090   14.8250 O.3    62  A62        -0.3112
   1327  C2'      -15.4910  -13.2390   13.1480 C.3    62  A62         0.2309
   1328  O2'      -16.4240  -13.8250   12.2600 O.3    62  A62        -0.2156
   1329  C1'      -14.7990  -12.0500   12.4920 C.3    62  A62         0.2408
   1330  N1        -9.7580  -13.0590   12.1960 N.ar   62  A62        -0.2040
   1331  C2       -10.8060  -13.5180   11.5020 C.ar   62  A62         0.2016
   1332  N3       -12.0970  -13.2150   11.6290 N.ar   62  A62        -0.2048
   1333  C4       -12.2790  -12.3220   12.6100 C.ar   62  A62         0.1692
   1334  C5       -11.3020  -11.7590   13.4120 C.ar   62  A62         0.1518
   1335  C6        -9.9740  -12.1620   13.1770 C.ar   62  A62         0.1919
   1336  N6        -8.9270  -11.7050   13.8700 N.pl3  62  A62        -0.1054
   1337  N7       -11.8640  -10.8740   14.3180 N.ar   62  A62        -0.2193
   1338  C8       -13.1480  -10.9220   14.0480 C.ar   62  A62         0.1816
   1339  N9       -13.4700  -11.7750   13.0280 N.ar   62  A62        -0.2693
   1340  OP1      -16.8370   -8.6650   17.2170 O.3    62  A62        -0.4373
   1341  OP2      -14.2780   -8.6480   17.0260 O.co2  62  A62        -0.5172
   1342  P        -17.1010  -14.7810   15.4320 P.3    63  U63         0.2141
   1343  C5'      -17.8360  -13.8660   17.7660 C.3    63  U63         0.1812
   1344  O5'      -16.8320  -14.4860   16.9790 O.3    63  U63        -0.3114
   1345  C4'      -17.7190  -14.2880   19.2180 C.3    63  U63         0.1773
   1346  O4'      -18.1500  -15.6640   19.3610 O.3    63  U63        -0.3307
   1347  C3'      -16.3110  -14.2580   19.7870 C.3    63  U63         0.1860
   1348  O3'      -16.3820  -14.0240   21.1870 O.3    63  U63        -0.3112
   1349  C2'      -15.8100  -15.6630   19.4670 C.3    63  U63         0.2309
   1350  O2'      -14.7500  -16.0830   20.3030 O.3    63  U63        -0.2156
   1351  C1'      -17.0620  -16.4790   19.7510 C.3    63  U63         0.2420
   1352  N1       -17.1430  -17.7390   18.9670 N.ar   63  U63        -0.2534
   1353  C2       -17.2640  -18.9480   19.6240 C.ar   63  U63         0.3546
   1354  O2       -17.3050  -19.0520   20.8380 O.2    63  U63        -0.2443
   1355  N3       -17.3390  -20.0460   18.8040 N.ar   63  U63        -0.1530
   1356  C4       -17.3030  -20.0550   17.4220 C.ar   63  U63         0.2846
   1357  O4       -17.3790  -21.1210   16.8180 O.2    63  U63        -0.2650
   1358  C5       -17.1750  -18.7550   16.8120 C.ar   63  U63         0.0814
   1359  C6       -17.1030  -17.6690   17.5880 C.ar   63  U63         0.0870
   1360  OP1      -15.8770  -15.4040   14.8840 O.2    63  U63        -0.5172
   1361  OP2      -18.4050  -15.4700   15.2970 O.co2  63  U63        -0.4373
   1362  P        -16.1380  -12.5500   21.7580 P.3    64  U64         0.2141
   1363  C5'      -13.9350  -13.8880   22.1170 C.3    64  U64         0.1812
   1364  O5'      -14.7190  -12.7480   22.4670 O.3    64  U64        -0.3114
   1365  C4'      -12.4830  -13.5400   21.8550 C.3    64  U64         0.1773
   1366  O4'      -11.7210  -13.7410   23.0740 O.3    64  U64        -0.3307
   1367  C3'      -11.8080  -14.4340   20.8250 C.3    64  U64         0.1860
   1368  O3'      -10.6850  -13.7790   20.2490 O.3    64  U64        -0.3112
   1369  C2'      -11.3750  -15.6100   21.6910 C.3    64  U64         0.2309
   1370  O2'      -10.3250  -16.3720   21.1230 O.3    64  U64        -0.2156
   1371  C1'      -10.8860  -14.8720   22.9310 C.3    64  U64         0.2420
   1372  N1       -10.9940  -15.7320   24.1360 N.ar   64  U64        -0.2534
   1373  C2        -9.8960  -16.4730   24.5110 C.ar   64  U64         0.3546
   1374  O2        -8.8400  -16.4380   23.9070 O.2    64  U64        -0.2443
   1375  N3       -10.0760  -17.2530   25.6240 N.ar   64  U64        -0.1530
   1376  C4       -11.2260  -17.3670   26.3840 C.ar   64  U64         0.2846
   1377  O4       -11.2350  -18.1120   27.3610 O.2    64  U64        -0.2650
   1378  C5       -12.3340  -16.5670   25.9260 C.ar   64  U64         0.0814
   1379  C6       -12.1810  -15.7980   24.8410 C.ar   64  U64         0.0870
   1380  OP1      -17.1760  -12.2710   22.7730 O.3    64  U64        -0.4373
   1381  OP2      -15.9560  -11.6170   20.6250 O.co2  64  U64        -0.5172
   1382  P        -10.8760  -12.7220   19.0640 P.3    65  C65         0.2141
   1383  C5'      -12.9350  -13.6930   17.7270 C.3    65  C65         0.1812
   1384  O5'      -11.5250  -13.6140   17.9040 O.3    65  C65        -0.3114
   1385  C4'      -13.2630  -14.6640   16.6130 C.3    65  C65         0.1773
   1386  O4'      -12.6480  -14.2150   15.3800 O.3    65  C65        -0.3307
   1387  C3'      -12.6920  -16.0540   16.8190 C.3    65  C65         0.1860
   1388  O3'      -13.5680  -16.8220   17.6100 O.3    65  C65        -0.3112
   1389  C2'      -12.6380  -16.5700   15.3870 C.3    65  C65         0.2309
   1390  O2'      -13.9090  -16.9560   14.9030 O.3    65  C65        -0.2156
   1391  C1'      -12.1450  -15.3270   14.6570 C.3    65  C65         0.2420
   1392  N1       -10.6590  -15.2480   14.6170 N.ar   65  C65        -0.2535
   1393  C2        -9.9430  -16.0330   13.7070 C.ar   65  C65         0.3532
   1394  O2       -10.5590  -16.7820   12.9390 O.2    65  C65        -0.2443
   1395  N3        -8.5870  -15.9480   13.6940 N.ar   65  C65        -0.1739
   1396  C4        -7.9580  -15.1270   14.5390 C.ar   65  C65         0.1759
   1397  N4        -6.6230  -15.0700   14.4940 N.pl3  65  C65        -0.1070
   1398  C5        -8.6710  -14.3230   15.4720 C.ar   65  C65         0.0566
   1399  C6       -10.0040  -14.4160   15.4750 C.ar   65  C65         0.0850
   1400  OP1       -9.5300  -12.3130   18.6030 O.2    65  C65        -0.5172
   1401  OP2      -11.8540  -11.7010   19.4970 O.co2  65  C65        -0.4373
   1402  P        -12.9470  -17.9950   18.4930 P.3    66  C66         0.2141
   1403  C5'      -13.4920  -19.7590   16.6320 C.3    66  C66         0.1812
   1404  O5'      -12.5120  -19.0940   17.4190 O.3    66  C66        -0.3114
   1405  C4'      -12.8150  -20.6980   15.6540 C.3    66  C66         0.1773
   1406  O4'      -11.9540  -19.9360   14.7750 O.3    66  C66        -0.3307
   1407  C3'      -11.8870  -21.7100   16.3040 C.3    66  C66         0.1860
   1408  O3'      -12.6110  -22.8520   16.7060 O.3    66  C66        -0.3112
   1409  C2'      -10.9260  -22.0420   15.1690 C.3    66  C66         0.2309
   1410  O2'      -11.4370  -23.0220   14.2870 O.3    66  C66        -0.2156
   1411  C1'      -10.7960  -20.6920   14.4710 C.3    66  C66         0.2420
   1412  N1        -9.5870  -19.9630   14.9360 N.ar   66  C66        -0.2535
   1413  C2        -8.3540  -20.3370   14.4050 C.ar   66  C66         0.3532
   1414  O2        -8.3310  -21.2450   13.5680 O.2    66  C66        -0.2443
   1415  N3        -7.2330  -19.6940   14.8150 N.ar   66  C66        -0.1739
   1416  C4        -7.3220  -18.7200   15.7210 C.ar   66  C66         0.1759
   1417  N4        -6.1880  -18.1170   16.0960 N.pl3  66  C66        -0.1070
   1418  C5        -8.5760  -18.3250   16.2800 C.ar   66  C66         0.0566
   1419  C6        -9.6750  -18.9670   15.8660 C.ar   66  C66         0.0850
   1420  OP1      -14.0430  -18.5680   19.3080 O.3    66  C66        -0.4373
   1421  OP2      -11.7200  -17.4700   19.1270 O.co2  66  C66        -0.5172
   1422  P        -12.2510  -23.5370   18.1020 P.3    67  U67         0.2141
   1423  C5'      -10.6710  -25.2000   16.8470 C.3    67  U67         0.1812
   1424  O5'      -10.8100  -24.1800   17.8250 O.3    67  U67        -0.3114
   1425  C4'       -9.2100  -25.4200   16.5050 C.3    67  U67         0.1773
   1426  O4'       -8.6250  -24.1660   16.0870 O.3    67  U67        -0.3307
   1427  C3'       -8.3490  -25.8860   17.6640 C.3    67  U67         0.1860
   1428  O3'       -8.3640  -27.3000   17.7030 O.3    67  U67        -0.3112
   1429  C2'       -6.9660  -25.3630   17.2920 C.3    67  U67         0.2309
   1430  O2'       -6.2280  -26.2860   16.5140 O.3    67  U67        -0.2156
   1431  C1'       -7.2690  -24.1070   16.4760 C.3    67  U67         0.2420
   1432  N1        -7.0820  -22.8350   17.2250 N.ar   67  U67        -0.2534
   1433  C2        -5.8860  -22.1590   17.1150 C.ar   67  U67         0.3546
   1434  O2        -4.9610  -22.5570   16.4320 O.2    67  U67        -0.2443
   1435  N3        -5.8130  -20.9940   17.8370 N.ar   67  U67        -0.1530
   1436  C4        -6.8010  -20.4540   18.6410 C.ar   67  U67         0.2846
   1437  O4        -6.5960  -19.4000   19.2320 O.2    67  U67        -0.2650
   1438  C5        -8.0200  -21.2170   18.7050 C.ar   67  U67         0.0814
   1439  C6        -8.1130  -22.3540   18.0080 C.ar   67  U67         0.0870
   1440  OP1      -13.2310  -24.6270   18.3250 O.2    67  U67        -0.5172
   1441  OP2      -12.0950  -22.4630   19.1090 O.co2  67  U67        -0.4373
   1442  P         -8.1950  -28.0600   19.0970 P.3    68  G68         0.2141
   1443  C5'       -5.7740  -28.9040   18.5400 C.3    68  G68         0.1812
   1444  O5'       -6.6060  -28.0450   19.3120 O.3    68  G68        -0.3114
   1445  C4'       -4.3130  -28.7280   18.9120 C.3    68  G68         0.1773
   1446  O4'       -3.8170  -27.5020   18.3200 O.3    68  G68        -0.3307
   1447  C3'       -4.0420  -28.5970   20.4070 C.3    68  G68         0.1860
   1448  O3'       -3.8290  -29.8670   21.0370 O.3    68  G68        -0.3112
   1449  C2'       -2.8090  -27.6960   20.4620 C.3    68  G68         0.2309
   1450  O2'       -1.5840  -28.3890   20.3130 O.3    68  G68        -0.2156
   1451  C1'       -3.0550  -26.7790   19.2680 C.3    68  G68         0.2408
   1452  N1        -2.7100  -21.8340   20.2920 N.ar   68  G68        -0.1709
   1453  C2        -1.7230  -22.7330   19.9610 C.ar   68  G68         0.2606
   1454  N2        -0.4740  -22.2550   19.8900 N.pl3  68  G68        -0.0859
   1455  N3        -1.9410  -24.0140   19.7130 N.ar   68  G68        -0.1918
   1456  C4        -3.2510  -24.3270   19.8270 C.ar   68  G68         0.1723
   1457  C5        -4.3110  -23.5100   20.1510 C.ar   68  G68         0.1748
   1458  C6        -4.0630  -22.1420   20.4140 C.ar   68  G68         0.3023
   1459  O6        -4.8740  -21.2570   20.7190 O.2    68  G68        -0.2633
   1460  N7        -5.5010  -24.2290   20.1610 N.ar   68  G68        -0.2173
   1461  C8        -5.1420  -25.4440   19.8490 C.ar   68  G68         0.1817
   1462  N9        -3.7900  -25.5740   19.6300 N.ar   68  G68        -0.2693
   1463  OP1       -8.6390  -29.4590   18.9000 O.2    68  G68        -0.5172
   1464  OP2       -8.8340  -27.2340   20.1460 O.co2  68  G68        -0.4373
   1465  P         -3.2070  -31.1470   20.2990 P.3    69  C69         0.2141
   1466  C5'       -2.1810  -31.7760   22.6340 C.3    69  C69         0.1812
   1467  O5'       -3.0090  -32.1460   21.5360 O.3    69  C69        -0.3114
   1468  C4'       -2.8950  -31.9570   23.9650 C.3    69  C69         0.1773
   1469  O4'       -3.4880  -30.7050   24.3990 O.3    69  C69        -0.3307
   1470  C3'       -4.0670  -32.9300   23.9770 C.3    69  C69         0.1860
   1471  O3'       -3.6250  -34.2810   24.0570 O.3    69  C69        -0.3112
   1472  C2'       -4.7750  -32.4990   25.2570 C.3    69  C69         0.2309
   1473  O2'       -4.1420  -32.9980   26.4180 O.3    69  C69        -0.2156
   1474  C1'       -4.6310  -30.9810   25.1910 C.3    69  C69         0.2420
   1475  N1        -5.8140  -30.3190   24.5770 N.ar   69  C69        -0.2535
   1476  C2        -7.0110  -30.2170   25.2980 C.ar   69  C69         0.3532
   1477  O2        -7.0730  -30.6780   26.4460 O.2    69  C69        -0.2443
   1478  N3        -8.0780  -29.6120   24.7180 N.ar   69  C69        -0.1739
   1479  C4        -7.9780  -29.1260   23.4800 C.ar   69  C69         0.1759
   1480  N4        -9.0560  -28.5370   22.9520 N.pl3  69  C69        -0.1070
   1481  C5        -6.7690  -29.2220   22.7310 C.ar   69  C69         0.0566
   1482  C6        -5.7240  -29.8190   23.3120 C.ar   69  C69         0.0850
   1483  OP1       -1.8690  -30.8040   19.7670 O.3    69  C69        -0.4373
   1484  OP2       -4.2370  -31.7050   19.3960 O.co2  69  C69        -0.5172
   1485  P         -4.5030  -35.4430   23.3880 P.3    70  A70         0.2141
   1486  C5'       -5.5880  -35.8980   25.7240 C.3    70  A70         0.1812
   1487  O5'       -5.7690  -35.5500   24.3600 O.3    70  A70        -0.3114
   1488  C4'       -6.8400  -35.6040   26.5280 C.3    70  A70         0.1773
   1489  O4'       -7.1530  -34.1900   26.4670 O.3    70  A70        -0.3307
   1490  C3'       -8.1150  -36.2540   26.0170 C.3    70  A70         0.1860
   1491  O3'       -8.1660  -37.6260   26.3840 O.3    70  A70        -0.3112
   1492  C2'       -9.1620  -35.4190   26.7480 C.3    70  A70         0.2309
   1493  O2'       -9.3330  -35.7950   28.1010 O.3    70  A70        -0.2156
   1494  C1'       -8.5470  -34.0230   26.6700 C.3    70  A70         0.2408
   1495  N1       -12.7370  -31.6510   24.8890 N.ar   70  A70        -0.2040
   1496  C2       -12.5120  -32.3560   26.0030 C.ar   70  A70         0.2016
   1497  N3       -11.3890  -32.9490   26.4040 N.ar   70  A70        -0.2048
   1498  C4       -10.4060  -32.7610   25.5100 C.ar   70  A70         0.1692
   1499  C5       -10.4850  -32.0610   24.3220 C.ar   70  A70         0.1518
   1500  C6       -11.7300  -31.4790   24.0090 C.ar   70  A70         0.1919
   1501  N6       -11.9600  -30.7730   22.8960 N.pl3  70  A70        -0.1054
   1502  N7        -9.2670  -32.0810   23.6620 N.ar   70  A70        -0.2193
   1503  C8        -8.4910  -32.7830   24.4540 C.ar   70  A70         0.1816
   1504  N9        -9.1140  -33.2220   25.5890 N.ar   70  A70        -0.2693
   1505  OP1       -3.7360  -36.7040   23.4940 O.3    70  A70        -0.4373
   1506  OP2       -4.9570  -34.9680   22.0610 O.co2  70  A70        -0.5172
   1507  P         -8.8220  -38.6880   25.3830 P.3    71  G71         0.2141
   1508  C5'      -10.6430  -38.9460   27.2000 C.3    71  G71         0.1812
   1509  O5'      -10.3540  -38.7040   25.8360 O.3    71  G71        -0.3114
   1510  C4'      -11.9710  -38.3310   27.5840 C.3    71  G71         0.1773
   1511  O4'      -11.9320  -36.9000   27.3800 O.3    71  G71        -0.3307
   1512  C3'      -13.1370  -38.7810   26.7290 C.3    71  G71         0.1860
   1513  O3'      -13.5910  -40.0370   27.1910 O.3    71  G71        -0.3112
   1514  C2'      -14.1390  -37.6680   27.0060 C.3    71  G71         0.2309
   1515  O2'      -14.7570  -37.7900   28.2720 O.3    71  G71        -0.2156
   1516  C1'      -13.2190  -36.4520   26.9950 C.3    71  G71         0.2408
   1517  N1       -15.7040  -33.6890   23.5540 N.ar   71  G71        -0.1709
   1518  C2       -16.1360  -34.1800   24.7650 C.ar   71  G71         0.2606
   1519  N2       -17.4000  -33.9000   25.1180 N.pl3  71  G71        -0.0859
   1520  N3       -15.3810  -34.8970   25.5820 N.ar   71  G71        -0.1918
   1521  C4       -14.1390  -35.0860   25.0780 C.ar   71  G71         0.1723
   1522  C5       -13.6120  -34.6390   23.8860 C.ar   71  G71         0.1748
   1523  C6       -14.4290  -33.8720   23.0230 C.ar   71  G71         0.3023
   1524  O6       -14.1410  -33.3860   21.9190 O.2    71  G71        -0.2633
   1525  N7       -12.2930  -35.0520   23.7470 N.ar   71  G71        -0.2173
   1526  C8       -12.0550  -35.7280   24.8390 C.ar   71  G71         0.1817
   1527  N9       -13.1320  -35.7890   25.6940 N.ar   71  G71        -0.2693
   1528  OP1       -8.2450  -40.0130   25.6970 O.3    71  G71        -0.4373
   1529  OP2       -8.7190  -38.1420   24.0110 O.co2  71  G71        -0.5172
   1530  P        -13.9460  -41.1800   26.1350 P.3    72  C72         0.2141
   1531  C5'      -16.4570  -40.6210   26.5090 C.3    72  C72         0.1812
   1532  O5'      -15.3710  -40.6930   25.5940 O.3    72  C72        -0.3114
   1533  C4'      -17.6470  -39.9010   25.9070 C.3    72  C72         0.1773
   1534  O4'      -17.4020  -38.4710   25.8570 O.3    72  C72        -0.3307
   1535  C3'      -17.9540  -40.2320   24.4560 C.3    72  C72         0.1860
   1536  O3'      -18.5480  -41.5170   24.3050 O.3    72  C72        -0.3112
   1537  C2'      -18.9100  -39.0810   24.1670 C.3    72  C72         0.2309
   1538  O2'      -20.1190  -39.1830   24.8920 O.3    72  C72        -0.2156
   1539  C1'      -18.0620  -37.9400   24.7190 C.3    72  C72         0.2420
   1540  N1       -17.0470  -37.4630   23.7320 N.ar   72  C72        -0.2535
   1541  C2       -17.4350  -36.5620   22.7330 C.ar   72  C72         0.3532
   1542  O2       -18.6110  -36.1760   22.6970 O.2    72  C72        -0.2443
   1543  N3       -16.5090  -36.1370   21.8350 N.ar   72  C72        -0.1739
   1544  C4       -15.2510  -36.5790   21.9070 C.ar   72  C72         0.1759
   1545  N4       -14.3740  -36.1320   21.0000 N.pl3  72  C72        -0.1070
   1546  C5       -14.8380  -37.4990   22.9150 C.ar   72  C72         0.0566
   1547  C6       -15.7580  -37.9090   23.7960 C.ar   72  C72         0.0850
   1548  OP1      -14.1510  -42.4320   26.8970 O.3    72  C72        -0.4373
   1549  OP2      -12.9530  -41.1330   25.0370 O.co2  72  C72        -0.5172
   1550  P        -18.0200  -42.4830   23.1390 P.3    73  G73         0.2141
   1551  C5'      -20.2050  -41.8960   21.8710 C.3    73  G73         0.1812
   1552  O5'      -18.7880  -41.9250   21.8540 O.3    73  G73        -0.3114
   1553  C4'      -20.7290  -41.0190   20.7540 C.3    73  G73         0.1773
   1554  O4'      -20.1380  -39.6980   20.8430 O.3    73  G73        -0.3307
   1555  C3'      -20.3570  -41.4580   19.3490 C.3    73  G73         0.1860
   1556  O3'      -21.1470  -42.5750   18.9290 O.3    73  G73        -0.3112
   1557  C2'      -20.7010  -40.1710   18.6060 C.3    73  G73         0.2309
   1558  O2'      -22.0950  -39.9720   18.4800 O.3    73  G73        -0.2156
   1559  C1'      -20.1080  -39.1250   19.5470 C.3    73  G73         0.2408
   1560  N1       -17.1390  -36.5300   16.3420 N.ar   73  G73        -0.1709
   1561  C2       -18.5090  -36.6330   16.3750 C.ar   73  G73         0.2606
   1562  N2       -19.1800  -35.9590   15.4300 N.pl3  73  G73        -0.0859
   1563  N3       -19.1770  -37.3470   17.2720 N.ar   73  G73        -0.1918
   1564  C4       -18.3460  -37.9600   18.1470 C.ar   73  G73         0.1723
   1565  C5       -16.9710  -37.9180   18.1960 C.ar   73  G73         0.1748
   1566  C6       -16.2700  -37.1530   17.2330 C.ar   73  G73         0.3023
   1567  O6       -15.0470  -36.9920   17.1120 O.2    73  G73        -0.2633
   1568  N7       -16.4960  -38.6880   19.2510 N.ar   73  G73        -0.2173
   1569  C8       -17.5730  -39.1710   19.8080 C.ar   73  G73         0.1817
   1570  N9       -18.7350  -38.7690   19.1920 N.ar   73  G73        -0.2693
   1571  OP1      -18.5370  -43.8430   23.4110 O.3    73  G73        -0.4373
   1572  OP2      -16.5650  -42.2670   22.9650 O.co2  73  G73        -0.5172
   1573  P        -20.4840  -43.7760   18.0960 P.3    74  G74         0.2141
   1574  C5'      -21.4230  -42.2520   16.1950 C.3    74  G74         0.1812
   1575  O5'      -21.0670  -43.5590   16.6210 O.3    74  G74        -0.3114
   1576  C4'      -20.6700  -41.8400   14.9460 C.3    74  G74         0.1773
   1577  O4'      -20.0260  -40.5660   15.2060 O.3    74  G74        -0.3307
   1578  C3'      -19.5040  -42.7250   14.5300 C.3    74  G74         0.1860
   1579  O3'      -19.9400  -43.8770   13.8160 O.3    74  G74        -0.3112
   1580  C2'      -18.7750  -41.7410   13.6270 C.3    74  G74         0.2309
   1581  O2'      -19.5100  -41.4340   12.4610 O.3    74  G74        -0.2156
   1582  C1'      -18.7740  -40.5320   14.5460 C.3    74  G74         0.2408
   1583  N1       -14.0330  -39.0780   15.5750 N.ar   74  G74        -0.1709
   1584  C2       -14.8100  -38.8200   14.4690 C.ar   74  G74         0.2606
   1585  N2       -14.2550  -38.0760   13.5000 N.pl3  74  G74        -0.0859
   1586  N3       -16.0500  -39.2620   14.3190 N.ar   74  G74        -0.1918
   1587  C4       -16.4560  -39.9940   15.3840 C.ar   74  G74         0.1723
   1588  C5       -15.7610  -40.3090   16.5290 C.ar   74  G74         0.1748
   1589  C6       -14.4370  -39.8310   16.6780 C.ar   74  G74         0.3023
   1590  O6       -13.6600  -40.0070   17.6280 O.2    74  G74        -0.2633
   1591  N7       -16.5390  -41.0850   17.3790 N.ar   74  G74        -0.2173
   1592  C8       -17.6690  -41.2220   16.7390 C.ar   74  G74         0.1817
   1593  N9       -17.6900  -40.5840   15.5220 N.ar   74  G74        -0.2693
   1594  OP1      -21.0470  -45.0450   18.6030 O.3    74  G74        -0.4373
   1595  OP2      -19.0160  -43.5800   18.0750 O.co2  74  G74        -0.5172
   1596  P        -19.0400  -45.2010   13.8380 P.3    75  A75         0.2141
   1597  C5'      -16.5010  -45.5150   13.2560 C.3    75  A75         0.1812
   1598  O5'      -17.6780  -44.7250   13.1440 O.3    75  A75        -0.3114
   1599  C4'      -15.6020  -45.3220   12.0480 C.3    75  A75         0.1773
   1600  O4'      -16.2980  -45.7930   10.8670 O.3    75  A75        -0.3307
   1601  C3'      -15.2070  -43.8800   11.7560 C.3    75  A75         0.1860
   1602  O3'      -13.9460  -43.5880   12.3510 O.3    75  A75        -0.3112
   1603  C2'      -15.0900  -43.8420   10.2350 C.3    75  A75         0.2309
   1604  O2'      -13.7720  -44.1170    9.7990 O.3    75  A75        -0.2156
   1605  C1'      -16.0380  -44.9450    9.7650 C.3    75  A75         0.2408
   1606  N1       -18.4280  -42.0010    6.2630 N.ar   75  A75        -0.2040
   1607  C2       -17.1300  -42.2540    6.4830 C.ar   75  A75         0.2016
   1608  N3       -16.5700  -43.0300    7.4120 N.ar   75  A75        -0.2048
   1609  C4       -17.5090  -43.5950    8.1890 C.ar   75  A75         0.1692
   1610  C5       -18.8800  -43.4310    8.0840 C.ar   75  A75         0.1518
   1611  C6       -19.3500  -42.5820    7.0580 C.ar   75  A75         0.1919
   1612  N6       -20.6450  -42.3290    6.8360 N.pl3  75  A75        -0.1054
   1613  N7       -19.5350  -44.1710    9.0580 N.ar   75  A75        -0.2193
   1614  C8       -18.5620  -44.7560    9.7180 C.ar   75  A75         0.1816
   1615  N9       -17.3130  -44.4530    9.2480 N.ar   75  A75        -0.2693
   1616  OP1      -19.6680  -46.2000   12.9460 O.2    75  A75        -0.5172
   1617  OP2      -18.7740  -45.5330   15.2560 O.co2  75  A75        -0.4373
   1618  P        -13.7090  -42.1910   13.0960 P.3    76  A76         0.2141
   1619  C5'      -12.2700  -41.0040   11.2550 C.3    76  A76         0.1812
   1620  O5'      -13.5330  -41.1450   11.8980 O.3    76  A76        -0.3114
   1621  C4'      -12.4090  -40.2560    9.9410 C.3    76  A76         0.1773
   1622  O4'      -13.4730  -40.8620    9.1640 O.3    76  A76        -0.3307
   1623  C3'      -12.7810  -38.7840   10.0570 C.3    76  A76         0.1860
   1624  O3'      -11.6040  -37.9900   10.1160 O.3    76  A76        -0.3112
   1625  C2'      -13.5370  -38.5310    8.7540 C.3    76  A76         0.2309
   1626  O2'      -12.6680  -38.2430    7.6750 O.3    76  A76        -0.2156
   1627  C1'      -14.2340  -39.8660    8.5090 C.3    76  A76         0.2408
   1628  N1       -19.2220  -38.9640    7.5550 N.ar   76  A76        -0.2040
   1629  C2       -18.1210  -38.7420    6.8300 C.ar   76  A76         0.2016
   1630  N3       -16.8490  -38.9970    7.1350 N.ar   76  A76        -0.2048
   1631  C4       -16.7510  -39.5520    8.3540 C.ar   76  A76         0.1692
   1632  C5       -17.7910  -39.8410    9.2160 C.ar   76  A76         0.1518
   1633  C6       -19.0920  -39.5220    8.7750 C.ar   76  A76         0.1919
   1634  N6       -20.1920  -39.7430    9.5020 N.pl3  76  A76        -0.1054
   1635  N7       -17.3120  -40.4080   10.3850 N.ar   76  A76        -0.2193
   1636  C8       -16.0130  -40.4510   10.2080 C.ar   76  A76         0.1816
   1637  N9       -15.6050  -39.9480    9.0060 N.ar   76  A76        -0.2693
   1638  OP1      -12.4110  -42.2740   13.8040 O.2    76  A76        -0.5172
   1639  OP2      -14.9470  -41.8740   13.8430 O.co2  76  A76        -0.4373
   1640  P        -11.6530  -36.5460   10.7990 P.3    77  A77         0.2141
   1641  C5'      -12.2160  -35.2130    8.6180 C.3    77  A77         0.1812
   1642  O5'      -12.6570  -35.7130    9.8720 O.3    77  A77        -0.3114
   1643  C4'      -13.3800  -34.6120    7.8520 C.3    77  A77         0.1773
   1644  O4'      -14.3990  -35.6250    7.6760 O.3    77  A77        -0.3307
   1645  C3'      -14.0840  -33.4610    8.5530 C.3    77  A77         0.1860
   1646  O3'      -13.4740  -32.2300    8.1970 O.3    77  A77        -0.3112
   1647  C2'      -15.4910  -33.5430    7.9750 C.3    77  A77         0.2309
   1648  O2'      -15.5880  -32.8950    6.7220 O.3    77  A77        -0.2156
   1649  C1'      -15.6840  -35.0450    7.7940 C.3    77  A77         0.2408
   1650  N1       -20.2400  -36.5110    9.7130 N.ar   77  A77        -0.2040
   1651  C2       -19.9050  -35.8730    8.5860 C.ar   77  A77         0.2016
   1652  N3       -18.6970  -35.5180    8.1450 N.ar   77  A77        -0.2048
   1653  C4       -17.7420  -35.8920    9.0110 C.ar   77  A77         0.1692
   1654  C5       -17.9280  -36.5550   10.2110 C.ar   77  A77         0.1518
   1655  C6       -19.2590  -36.8730   10.5640 C.ar   77  A77         0.1919
   1656  N6       -19.5930  -37.5100   11.6900 N.pl3  77  A77        -0.1054
   1657  N7       -16.7110  -36.7740   10.8380 N.ar   77  A77        -0.2193
   1658  C8       -15.8300  -36.2480   10.0180 C.ar   77  A77         0.1816
   1659  N9       -16.3840  -35.6970    8.8960 N.ar   77  A77        -0.2693
   1660  OP1      -10.3150  -35.9290   10.6570 O.2    77  A77        -0.5172
   1661  OP2      -12.2600  -36.7200   12.1380 O.co2  77  A77        -0.4373
   1662  P        -13.1160  -31.1600    9.3310 P.3    78  C78         0.2141
   1663  C5'      -15.5650  -30.2860    9.6600 C.3    78  C78         0.1812
   1664  O5'      -14.4750  -31.0430   10.1730 O.3    78  C78        -0.3114
   1665  C4'      -16.8840  -30.7230   10.2730 C.3    78  C78         0.1773
   1666  O4'      -16.9100  -32.1680   10.3460 O.3    78  C78        -0.3307
   1667  C3'      -17.1420  -30.2900   11.7090 C.3    78  C78         0.1860
   1668  O3'      -17.6580  -28.9660   11.7730 O.3    78  C78        -0.3112
   1669  C2'      -18.2060  -31.2990   12.1190 C.3    78  C78         0.2309
   1670  O2'      -19.4820  -30.9740   11.6040 O.3    78  C78        -0.2156
   1671  C1'      -17.6770  -32.5670   11.4620 C.3    78  C78         0.2420
   1672  N1       -16.8040  -33.3440   12.3640 N.ar   78  C78        -0.2535
   1673  C2       -17.3940  -34.1900   13.3000 C.ar   78  C78         0.3532
   1674  O2       -18.6290  -34.2560   13.3370 O.2    78  C78        -0.2443
   1675  N3       -16.5950  -34.9060   14.1290 N.ar   78  C78        -0.1739
   1676  C4       -15.2680  -34.7920   14.0420 C.ar   78  C78         0.1759
   1677  N4       -14.5190  -35.5150   14.8800 N.pl3  78  C78        -0.1070
   1678  C5       -14.6490  -33.9300   13.0910 C.ar   78  C78         0.0566
   1679  C6       -15.4480  -33.2300   12.2780 C.ar   78  C78         0.0850
   1680  OP1      -12.8840  -29.8610    8.6620 O.2    78  C78        -0.5172
   1681  OP2      -12.0620  -31.7490   10.1880 O.co2  78  C78        -0.4373
   1682  P        -17.5300  -28.1520   13.1450 P.3    79  G79         0.2141
   1683  C5'      -19.9300  -28.8690   13.8750 C.3    79  G79         0.1812
   1684  O5'      -18.5310  -28.9360   14.1160 O.3    79  G79        -0.3114
   1685  C4'      -20.6870  -29.7690   14.8320 C.3    79  G79         0.1773
   1686  O4'      -20.1470  -31.1120   14.7670 O.3    79  G79        -0.3307
   1687  C3'      -20.5640  -29.4030   16.3020 C.3    79  G79         0.1860
   1688  O3'      -21.4820  -28.3740   16.6400 O.3    79  G79        -0.3112
   1689  C2'      -20.9410  -30.7250   16.9610 C.3    79  G79         0.2309
   1690  O2'      -22.3380  -30.9350   16.9840 O.3    79  G79        -0.2156
   1691  C1'      -20.2700  -31.7340   16.0340 C.3    79  G79         0.2408
   1692  N1       -17.7170  -34.7420   19.2200 N.ar   79  G79        -0.1709
   1693  C2       -19.0750  -34.5990   19.0450 C.ar   79  G79         0.2606
   1694  N2       -19.8660  -35.3570   19.8180 N.pl3  79  G79        -0.0859
   1695  N3       -19.6260  -33.7700   18.1690 N.ar   79  G79        -0.1918
   1696  C4       -18.6890  -33.0840   17.4730 C.ar   79  G79         0.1723
   1697  C5       -17.3170  -33.1520   17.5740 C.ar   79  G79         0.1748
   1698  C6       -16.7420  -34.0420   18.5130 C.ar   79  G79         0.3023
   1699  O6       -15.5420  -34.2440   18.7500 O.2    79  G79        -0.2633
   1700  N7       -16.7150  -32.2800   16.6770 N.ar   79  G79        -0.2173
   1701  C8       -17.7180  -31.7110   16.0640 C.ar   79  G79         0.1817
   1702  N9       -18.9470  -32.1530   16.4960 N.ar   79  G79        -0.2693
   1703  OP1      -18.0870  -26.7980   12.9240 O.2    79  G79        -0.5172
   1704  OP2      -16.1440  -28.3080   13.6430 O.co2  79  G79        -0.4373
   1705  P        -21.0910  -27.2970   17.7570 P.3    80  U80         0.2141
   1706  C5'      -22.1390  -28.6660   19.7260 C.3    80  U80         0.1812
   1707  O5'      -20.9630  -28.1850   19.0840 O.3    80  U80        -0.3114
   1708  C4'      -21.8230  -29.5790   20.9000 C.3    80  U80         0.1773
   1709  O4'      -21.0450  -30.7190   20.4560 O.3    80  U80        -0.3307
   1710  C3'      -20.9560  -28.9890   22.0010 C.3    80  U80         0.1860
   1711  O3'      -21.6950  -28.1340   22.8550 O.3    80  U80        -0.3112
   1712  C2'      -20.5560  -30.2680   22.7190 C.3    80  U80         0.2309
   1713  O2'      -21.6230  -30.7960   23.4800 O.3    80  U80        -0.2156
   1714  C1'      -20.2410  -31.1710   21.5290 C.3    80  U80         0.2420
   1715  N1       -18.8080  -31.0990   21.1360 N.ar   80  U80        -0.2534
   1716  C2       -17.9260  -31.9960   21.6940 C.ar   80  U80         0.3546
   1717  O2       -18.2730  -32.8500   22.4870 O.2    80  U80        -0.2443
   1718  N3       -16.6220  -31.8620   21.2910 N.ar   80  U80        -0.1530
   1719  C4       -16.1210  -30.9330   20.4000 C.ar   80  U80         0.2846
   1720  O4       -14.9230  -30.9290   20.1290 O.2    80  U80        -0.2650
   1721  C5       -17.1040  -30.0270   19.8610 C.ar   80  U80         0.0814
   1722  C6       -18.3820  -30.1410   20.2420 C.ar   80  U80         0.0870
   1723  OP1      -22.2410  -26.3740   17.9090 O.3    80  U80        -0.4373
   1724  OP2      -19.7510  -26.7570   17.4290 O.co2  80  U80        -0.5172
   1725  P        -20.9220  -26.9380   23.5840 P.3    81  U81         0.2141
   1726  C5'      -20.9530  -28.2340   25.8460 C.3    81  U81         0.1812
   1727  O5'      -20.1860  -27.6790   24.7920 O.3    81  U81        -0.3114
   1728  C4'      -20.0690  -29.1110   26.7060 C.3    81  U81         0.1773
   1729  O4'      -19.4560  -30.1110   25.8550 O.3    81  U81        -0.3307
   1730  C3'      -18.8820  -28.4120   27.3570 C.3    81  U81         0.1860
   1731  O3'      -19.2610  -27.7230   28.5510 O.3    81  U81        -0.3112
   1732  C2'      -18.0080  -29.6240   27.6490 C.3    81  U81         0.2309
   1733  O2'      -18.5060  -30.3980   28.7230 O.3    81  U81        -0.2156
   1734  C1'      -18.1590  -30.3990   26.3430 C.3    81  U81         0.2420
   1735  N1       -17.1510  -30.0050   25.3240 N.ar   81  U81        -0.2534
   1736  C2       -15.9670  -30.7070   25.2550 C.ar   81  U81         0.3546
   1737  O2       -15.7090  -31.6420   25.9880 O.2    81  U81        -0.2443
   1738  N3       -15.0900  -30.2770   24.2920 N.ar   81  U81        -0.1530
   1739  C4       -15.2740  -29.2300   23.4090 C.ar   81  U81         0.2846
   1740  O4       -14.3930  -28.9590   22.5980 O.2    81  U81        -0.2650
   1741  C5       -16.5340  -28.5440   23.5420 C.ar   81  U81         0.0814
   1742  C6       -17.4060  -28.9480   24.4740 C.ar   81  U81         0.0870
   1743  OP1      -21.9330  -26.0130   24.1430 O.3    81  U81        -0.4373
   1744  OP2      -19.8770  -26.4390   22.6620 O.co2  81  U81        -0.5172
   1745  P        -18.5610  -26.3400   28.9710 P.3    82  G82         0.2141
   1746  C5'      -17.4460  -27.6790   30.9240 C.3    82  G82         0.1812
   1747  O5'      -17.2820  -26.8140   29.8080 O.3    82  G82        -0.3114
   1748  C4'      -16.1670  -28.4470   31.2020 C.3    82  G82         0.1773
   1749  O4'      -15.8610  -29.3370   30.0960 O.3    82  G82        -0.3307
   1750  C3'      -14.9160  -27.5960   31.3280 C.3    82  G82         0.1860
   1751  O3'      -14.8210  -27.0330   32.6230 O.3    82  G82        -0.3112
   1752  C2'      -13.8410  -28.6510   31.1040 C.3    82  G82         0.2309
   1753  O2'      -13.6530  -29.4810   32.2330 O.3    82  G82        -0.2156
   1754  C1'      -14.4560  -29.4400   29.9530 C.3    82  G82         0.2408
   1755  N1       -10.8090  -29.1950   26.4130 N.ar   82  G82        -0.1709
   1756  C2       -10.8180  -29.8780   27.6070 C.ar   82  G82         0.2606
   1757  N2        -9.7140  -30.5850   27.8950 N.pl3  82  G82        -0.0859
   1758  N3       -11.8380  -29.8680   28.4580 N.ar   82  G82        -0.1918
   1759  C4       -12.8670  -29.1050   28.0100 C.ar   82  G82         0.1723
   1760  C5       -12.9510  -28.3870   26.8390 C.ar   82  G82         0.1748
   1761  C6       -11.8560  -28.4080   25.9400 C.ar   82  G82         0.3023
   1762  O6       -11.7490  -27.8300   24.8490 O.2    82  G82        -0.2633
   1763  N7       -14.1760  -27.7340   26.7490 N.ar   82  G82        -0.2173
   1764  C8       -14.7980  -28.0640   27.8480 C.ar   82  G82         0.1817
   1765  N9       -14.0650  -28.8960   28.6580 N.ar   82  G82        -0.2693
   1766  OP1      -19.4860  -25.6500   29.8960 O.3    82  G82        -0.4373
   1767  OP2      -18.0930  -25.6460   27.7500 O.co2  82  G82        -0.5172
   1768  P        -13.7450  -25.8790   32.8800 P.3    83  A83         0.2141
   1769  C5'      -11.1200  -26.0260   32.7430 C.3    83  A83         0.1812
   1770  O5'      -12.3650  -26.6930   32.9490 O.3    83  A83        -0.3114
   1771  C4'      -10.0200  -27.0120   32.3830 C.3    83  A83         0.1773
   1772  O4'      -10.4330  -27.8090   31.2410 O.3    83  A83        -0.3307
   1773  C3'       -8.7030  -26.3860   31.9390 C.3    83  A83         0.1860
   1774  O3'       -7.8700  -26.0790   33.0410 O.3    83  A83        -0.3112
   1775  C2'       -8.0920  -27.5160   31.1260 C.3    83  A83         0.2309
   1776  O2'       -7.5340  -28.5130   31.9550 O.3    83  A83        -0.2156
   1777  C1'       -9.3190  -28.0460   30.3950 C.3    83  A83         0.2408
   1778  N1        -7.2290  -26.8370   25.8470 N.ar   83  A83        -0.2040
   1779  C2        -6.7530  -27.5050   26.9020 C.ar   83  A83         0.2016
   1780  N3        -7.3540  -27.7840   28.0580 N.ar   83  A83        -0.2048
   1781  C4        -8.6020  -27.2930   28.0830 C.ar   83  A83         0.1692
   1782  C5        -9.2310  -26.5870   27.0780 C.ar   83  A83         0.1518
   1783  C6        -8.4880  -26.3560   25.9020 C.ar   83  A83         0.1919
   1784  N6        -8.9710  -25.6890   24.8510 N.pl3  83  A83        -0.1054
   1785  N7       -10.5180  -26.2390   27.4550 N.ar   83  A83        -0.2193
   1786  C8       -10.6380  -26.7360   28.6630 C.ar   83  A83         0.1816
   1787  N9        -9.5200  -27.3870   29.1050 N.ar   83  A83        -0.2693
   1788  OP1      -14.0260  -25.3000   34.2130 O.3    83  A83        -0.4373
   1789  OP2      -13.7210  -25.0080   31.6820 O.co2  83  A83        -0.5172
   1790  P         -6.9590  -24.7660   32.9750 P.3    84  A84         0.2141
   1791  C5'       -4.9360  -26.0070   31.8330 C.3    84  A84         0.1812
   1792  O5'       -5.9630  -25.0230   31.7460 O.3    84  A84        -0.3114
   1793  C4'       -4.0160  -25.9350   30.6280 C.3    84  A84         0.1773
   1794  O4'       -4.7190  -26.3920   29.4470 O.3    84  A84        -0.3307
   1795  C3'       -3.5310  -24.5290   30.3060 C.3    84  A84         0.1860
   1796  O3'       -2.2600  -24.3240   30.8810 O.3    84  A84        -0.3112
   1797  C2'       -3.4460  -24.4990   28.7820 C.3    84  A84         0.2309
   1798  O2'       -2.1940  -24.9250   28.2830 O.3    84  A84        -0.2156
   1799  C1'       -4.5440  -25.4750   28.3820 C.3    84  A84         0.2408
   1800  N1        -7.2870  -22.6400   25.0840 N.ar   84  A84        -0.2040
   1801  C2        -6.0450  -23.1380   25.0200 C.ar   84  A84         0.2016
   1802  N3        -5.3890  -23.8720   25.9200 N.ar   84  A84        -0.2048
   1803  C4        -6.1510  -24.0910   27.0020 C.ar   84  A84         0.1692
   1804  C5        -7.4420  -23.6480   27.2150 C.ar   84  A84         0.1518
   1805  C6        -8.0290  -22.8810   26.1870 C.ar   84  A84         0.1919
   1806  N6        -9.2710  -22.3870   26.2550 N.pl3  84  A84        -0.1054
   1807  N7        -7.9100  -24.0710   28.4480 N.ar   84  A84        -0.2193
   1808  C8        -6.9050  -24.7510   28.9480 C.ar   84  A84         0.1816
   1809  N9        -5.8140  -24.8040   28.1260 N.ar   84  A84        -0.2693
   1810  OP1       -6.1560  -24.7360   34.2190 O.3    84  A84        -0.4373
   1811  OP2       -7.8460  -23.6310   32.6340 O.co2  84  A84        -0.5172
   1812  P         -1.9230  -22.8890   31.4900 P.3    85  A85         0.2141
   1813  C5'       -0.7410  -22.0740   29.3010 C.3    85  A85         0.1812
   1814  O5'       -1.8410  -21.9510   30.1940 O.3    85  A85        -0.3114
   1815  C4'       -1.0030  -21.3440   27.9940 C.3    85  A85         0.1773
   1816  O4'       -2.1440  -21.9360   27.3200 O.3    85  A85        -0.3307
   1817  C3'       -1.3670  -19.8700   28.1180 C.3    85  A85         0.1860
   1818  O3'       -0.2110  -19.0580   28.2110 O.3    85  A85        -0.3112
   1819  C2'       -2.0660  -19.6490   26.7880 C.3    85  A85         0.2309
   1820  O2'       -1.1510  -19.6150   25.7140 O.3    85  A85        -0.2156
   1821  C1'       -2.9140  -20.9110   26.7180 C.3    85  A85         0.2408
   1822  N1        -7.6080  -18.8150   26.7450 N.ar   85  A85        -0.2040
   1823  C2        -6.6090  -18.7650   25.8570 C.ar   85  A85         0.2016
   1824  N3        -5.4080  -19.3380   25.9140 N.ar   85  A85        -0.2048
   1825  C4        -5.2670  -20.0400   27.0490 C.ar   85  A85         0.1692
   1826  C5        -6.2000  -20.1860   28.0570 C.ar   85  A85         0.1518
   1827  C6        -7.4360  -19.5280   27.8770 C.ar   85  A85         0.1919
   1828  N6        -8.4380  -19.5760   28.7630 N.pl3  85  A85        -0.1054
   1829  N7        -5.6970  -20.9840   29.0740 N.ar   85  A85        -0.2193
   1830  C8        -4.4900  -21.2980   28.6670 C.ar   85  A85         0.1816
   1831  N9        -4.1680  -20.7640   27.4500 N.ar   85  A85        -0.2693
   1832  OP1       -0.5650  -22.9750   32.0780 O.2    85  A85        -0.5172
   1833  OP2       -3.0850  -22.4700   32.3110 O.co2  85  A85        -0.4373
   1834  P         -0.2630  -17.7630   29.1500 P.3    86  G86         0.2141
   1835  C5'       -0.8590  -16.1730   27.1800 C.3    86  G86         0.1812
   1836  O5'       -1.2780  -16.7990   28.3800 O.3    86  G86        -0.3114
   1837  C4'       -2.0330  -15.5150   26.4840 C.3    86  G86         0.1773
   1838  O4'       -3.1340  -16.4490   26.3710 O.3    86  G86        -0.3307
   1839  C3'       -2.6630  -14.3520   27.2240 C.3    86  G86         0.1860
   1840  O3'       -1.8730  -13.1850   27.0930 O.3    86  G86        -0.3112
   1841  C2'       -3.9640  -14.2440   26.4450 C.3    86  G86         0.2309
   1842  O2'       -3.7690  -13.7180   25.1460 O.3    86  G86        -0.2156
   1843  C1'       -4.3450  -15.7170   26.3600 C.3    86  G86         0.2408
   1844  N1        -8.9330  -15.4760   28.5130 N.ar   86  G86        -0.1709
   1845  C2        -8.4770  -14.8860   27.3570 C.ar   86  G86         0.2606
   1846  N2        -9.3570  -14.1310   26.6830 N.pl3  86  G86        -0.0859
   1847  N3        -7.2430  -15.0250   26.8930 N.ar   86  G86        -0.1918
   1848  C4        -6.4910  -15.8170   27.6920 C.ar   86  G86         0.1723
   1849  C5        -6.8510  -16.4510   28.8610 C.ar   86  G86         0.1748
   1850  C6        -8.1710  -16.2930   29.3460 C.ar   86  G86         0.3023
   1851  O6        -8.6790  -16.7780   30.3690 O.2    86  G86        -0.2633
   1852  N7        -5.7830  -17.1720   29.3790 N.ar   86  G86        -0.2173
   1853  C8        -4.8140  -16.9640   28.5280 C.ar   86  G86         0.1817
   1854  N9        -5.1740  -16.1520   27.4790 N.ar   86  G86        -0.2693
   1855  OP1        1.0670  -17.1130   29.1170 O.2    86  G86        -0.5172
   1856  OP2       -0.8720  -18.1660   30.4390 O.co2  86  G86        -0.4373
   1857  P         -1.9990  -12.0550   28.2150 P.3    87  A87         0.2141
   1858  C5'       -3.6320  -10.6990   26.6610 C.3    87  A87         0.1812
   1859  O5'       -3.4120  -11.3690   27.9000 O.3    87  A87        -0.3114
   1860  C4'       -4.9670   -9.9740   26.6660 C.3    87  A87         0.1773
   1861  O4'       -6.0620  -10.9230   26.5840 O.3    87  A87        -0.3307
   1862  C3'       -5.2330   -9.1690   27.9300 C.3    87  A87         0.1860
   1863  O3'       -4.6980   -7.8630   27.7810 O.3    87  A87        -0.3112
   1864  C2'       -6.7580   -9.1680   28.0080 C.3    87  A87         0.2309
   1865  O2'       -7.3400   -8.2020   27.1620 O.3    87  A87        -0.2156
   1866  C1'       -7.0870  -10.5650   27.4970 C.3    87  A87         0.2408
   1867  N1        -9.9860  -13.0570   30.9380 N.ar   87  A87        -0.2040
   1868  C2       -10.2810  -12.0990   30.0520 C.ar   87  A87         0.2016
   1869  N3        -9.4790  -11.4890   29.1820 N.ar   87  A87        -0.2048
   1870  C4        -8.2300  -11.9640   29.2810 C.ar   87  A87         0.1692
   1871  C5        -7.7760  -12.9470   30.1410 C.ar   87  A87         0.1518
   1872  C6        -8.7190  -13.5160   31.0130 C.ar   87  A87         0.1919
   1873  N6        -8.4170  -14.4740   31.8980 N.pl3  87  A87        -0.1054
   1874  N7        -6.4250  -13.1780   29.9610 N.ar   87  A87        -0.2193
   1875  C8        -6.0930  -12.3420   29.0060 C.ar   87  A87         0.1816
   1876  N9        -7.1330  -11.5780   28.5480 N.ar   87  A87        -0.2693
   1877  OP1       -0.9310  -11.0570   27.9860 O.2    87  A87        -0.5172
   1878  OP2       -2.0920  -12.7480   29.5150 O.co2  87  A87        -0.4373
   1879  P         -4.1690   -7.0830   29.0700 P.3    88  U88         0.2141
   1880  C5'       -6.4310   -5.7880   29.2660 C.3    88  U88         0.1812
   1881  O5'       -5.5300   -6.7300   29.8280 O.3    88  U88        -0.3114
   1882  C4'       -7.7230   -5.7560   30.0610 C.3    88  U88         0.1773
   1883  O4'       -8.3690   -7.0500   29.9890 O.3    88  U88        -0.3307
   1884  C3'       -7.5630   -5.5570   31.5570 C.3    88  U88         0.1860
   1885  O3'       -7.3580   -4.2040   31.8810 O.3    88  U88        -0.3112
   1886  C2'       -8.9280   -6.0190   32.0290 C.3    88  U88         0.2309
   1887  O2'       -9.9300   -5.0910   31.6750 O.3    88  U88        -0.2156
   1888  C1'       -9.0660   -7.2860   31.1990 C.3    88  U88         0.2420
   1889  N1        -8.4810   -8.4770   31.8600 N.ar   88  U88        -0.2534
   1890  C2        -9.3090   -9.2670   32.6220 C.ar   88  U88         0.3546
   1891  O2       -10.4920   -9.0250   32.7750 O.2    88  U88        -0.2443
   1892  N3        -8.7030  -10.3520   33.2000 N.ar   88  U88        -0.1530
   1893  C4        -7.3770  -10.7160   33.0920 C.ar   88  U88         0.2846
   1894  O4        -6.9810  -11.7230   33.6740 O.2    88  U88        -0.2650
   1895  C5        -6.5710   -9.8420   32.2780 C.ar   88  U88         0.0814
   1896  C6        -7.1430   -8.7770   31.7040 C.ar   88  U88         0.0870
   1897  OP1       -3.5670   -5.8170   28.5990 O.2    88  U88        -0.5172
   1898  OP2       -3.3800   -8.0200   29.9080 O.co2  88  U88        -0.4373
   1899  P         -6.4980   -3.8890   33.1860 P.3    89  G89         0.2141
   1900  C5'       -8.7340   -3.1710   34.3550 C.3    89  G89         0.1812
   1901  O5'       -7.5760   -3.9890   34.3640 O.3    89  G89        -0.3114
   1902  C4'       -9.7220   -3.6670   35.3950 C.3    89  G89         0.1773
   1903  O4'      -10.1660   -5.0030   35.0470 O.3    89  G89        -0.3307
   1904  C3'       -9.1680   -3.8100   36.8070 C.3    89  G89         0.1860
   1905  O3'       -9.2300   -2.5670   37.5010 O.3    89  G89        -0.3112
   1906  C2'      -10.1480   -4.8150   37.4040 C.3    89  G89         0.2309
   1907  O2'      -11.3740   -4.2190   37.7860 O.3    89  G89        -0.2156
   1908  C1'      -10.3710   -5.7570   36.2270 C.3    89  G89         0.2408
   1909  N1        -9.3800  -10.3730   38.1050 N.ar   89  G89        -0.1709
   1910  C2       -10.4570   -9.5480   38.3400 C.ar   89  G89         0.2606
   1911  N2       -11.3870  -10.0150   39.1840 N.pl3  89  G89        -0.0859
   1912  N3       -10.6130   -8.3500   37.7880 N.ar   89  G89        -0.1918
   1913  C4        -9.5800   -8.0430   36.9640 C.ar   89  G89         0.1723
   1914  C5        -8.4650   -8.7950   36.6680 C.ar   89  G89         0.1748
   1915  C6        -8.3120  -10.0700   37.2640 C.ar   89  G89         0.3023
   1916  O6        -7.3880  -10.8840   37.1210 O.2    89  G89        -0.2633
   1917  N7        -7.6420   -8.1170   35.7750 N.ar   89  G89        -0.2173
   1918  C8        -8.2590   -6.9880   35.5550 C.ar   89  G89         0.1817
   1919  N9        -9.4430   -6.8790   36.2430 N.ar   89  G89        -0.2693
   1920  OP1       -6.0380   -2.4850   33.0780 O.2    89  G89        -0.5172
   1921  OP2       -5.5230   -4.9930   33.3640 O.co2  89  G89        -0.4373
   1922  P         -8.0860   -2.1760   38.5460 P.3    90  A90         0.2141
   1923  C5'       -9.5740   -2.7410   40.6120 C.3    90  A90         0.1812
   1924  O5'       -8.4460   -3.0700   39.8220 O.3    90  A90        -0.3114
   1925  C4'       -9.8380   -3.8390   41.6180 C.3    90  A90         0.1773
   1926  O4'      -10.1770   -5.0590   40.9160 O.3    90  A90        -0.3307
   1927  C3'       -8.6410   -4.2410   42.4620 C.3    90  A90         0.1860
   1928  O3'       -8.4440   -3.3360   43.5410 O.3    90  A90        -0.3112
   1929  C2'       -9.1210   -5.6060   42.9350 C.3    90  A90         0.2309
   1930  O2'      -10.1710   -5.5060   43.8760 O.3    90  A90        -0.2156
   1931  C1'       -9.6400   -6.1630   41.6170 C.3    90  A90         0.2408
   1932  N1        -6.9300  -10.3770   40.4800 N.ar   90  A90        -0.2040
   1933  C2        -7.9380  -10.1690   41.3340 C.ar   90  A90         0.2016
   1934  N3        -8.6030   -9.0430   41.5830 N.ar   90  A90        -0.2048
   1935  C4        -8.1320   -8.0380   40.8320 C.ar   90  A90         0.1692
   1936  C5        -7.1040   -8.0970   39.9120 C.ar   90  A90         0.1518
   1937  C6        -6.4780   -9.3440   39.7380 C.ar   90  A90         0.1919
   1938  N6        -5.4720   -9.5410   38.8800 N.pl3  90  A90        -0.1054
   1939  N7        -6.8950   -6.8600   39.3270 N.ar   90  A90        -0.2193
   1940  C8        -7.7900   -6.0890   39.8980 C.ar   90  A90         0.1816
   1941  N9        -8.5710   -6.7370   40.8130 N.ar   90  A90        -0.2693
   1942  OP1       -8.2690   -0.7550   38.9190 O.3    90  A90        -0.4373
   1943  OP2       -6.7970   -2.6320   37.9780 O.co2  90  A90        -0.5172
   1944  P         -6.9680   -3.1090   44.1170 P.3    91  G91         0.2141
   1945  C5'       -7.5600   -4.8620   45.9500 C.3    91  G91         0.1812
   1946  O5'       -6.6800   -4.4750   44.9000 O.3    91  G91        -0.3114
   1947  C4'       -7.1480   -6.1890   46.5610 C.3    91  G91         0.1773
   1948  O4'       -7.4060   -7.2750   45.6350 O.3    91  G91        -0.3307
   1949  C3'       -5.6710   -6.2960   46.9050 C.3    91  G91         0.1860
   1950  O3'       -5.4590   -5.7610   48.2070 O.3    91  G91        -0.3112
   1951  C2'       -5.4460   -7.8070   46.8460 C.3    91  G91         0.2309
   1952  O2'       -5.8410   -8.4770   48.0280 O.3    91  G91        -0.2156
   1953  C1'       -6.3480   -8.2140   45.6860 C.3    91  G91         0.2408
   1954  N1        -3.4110  -10.7980   42.4410 N.ar   91  G91        -0.1709
   1955  C2        -3.9050  -11.1890   43.6620 C.ar   91  G91         0.2606
   1956  N2        -3.5720  -12.4210   44.0640 N.pl3  91  G91        -0.0859
   1957  N3        -4.6700  -10.4260   44.4300 N.ar   91  G91        -0.1918
   1958  C4        -4.9000   -9.2170   43.8630 C.ar   91  G91         0.1723
   1959  C5        -4.4530   -8.7350   42.6540 C.ar   91  G91         0.1748
   1960  C6        -3.6400   -9.5590   41.8470 C.ar   91  G91         0.3023
   1961  O6        -3.1500   -9.2990   40.7410 O.2    91  G91        -0.2633
   1962  N7        -4.9100   -7.4440   42.4320 N.ar   91  G91        -0.2173
   1963  C8        -5.6160   -7.1700   43.4940 C.ar   91  G91         0.1817
   1964  N9        -5.6540   -8.2000   44.4030 N.ar   91  G91        -0.2693
   1965  OP1       -7.0480   -2.0220   45.1170 O.3    91  G91        -0.4373
   1966  OP2       -6.0290   -2.9980   42.9790 O.co2  91  G91        -0.5172
   1967  P         -3.9810   -5.4610   48.7460 P.3    92  C92         0.2141
   1968  C5'       -1.9000   -7.0470   48.8110 C.3    92  C92         0.1812
   1969  O5'       -3.1930   -6.7800   48.3110 O.3    92  C92        -0.3114
   1970  C4'       -1.6610   -8.5440   48.8070 C.3    92  C92         0.1773
   1971  O4'       -2.4890   -9.1600   47.7870 O.3    92  C92        -0.3307
   1972  C3'       -0.2320   -8.9420   48.4780 C.3    92  C92         0.1860
   1973  O3'        0.5370   -9.0390   49.6700 O.3    92  C92        -0.3112
   1974  C2'       -0.4240  -10.2860   47.7800 C.3    92  C92         0.2309
   1975  O2'       -0.6100  -11.3590   48.6810 O.3    92  C92        -0.2156
   1976  C1'       -1.7060  -10.0290   46.9930 C.3    92  C92         0.2420
   1977  N1        -1.4720   -9.3660   45.6820 N.ar   92  C92        -0.2535
   1978  C2        -0.7180  -10.0130   44.6980 C.ar   92  C92         0.3532
   1979  O2        -0.2560  -11.1360   44.9310 O.2    92  C92        -0.2443
   1980  N3        -0.5120   -9.3910   43.5120 N.ar   92  C92        -0.1739
   1981  C4        -1.0260   -8.1810   43.2970 C.ar   92  C92         0.1759
   1982  N4        -0.7990   -7.6080   42.1130 N.pl3  92  C92        -0.1070
   1983  C5        -1.7980   -7.5040   44.2850 C.ar   92  C92         0.0566
   1984  C6        -1.9940   -8.1280   45.4510 C.ar   92  C92         0.0850
   1985  OP1       -4.0420   -5.4320   50.2260 O.3    92  C92        -0.4373
   1986  OP2       -3.4340   -4.3020   48.0040 O.co2  92  C92        -0.5172
   1987  P          1.9280   -8.2550   49.7490 P.3    93  C93         0.2141
   1988  C5'        3.1600  -10.5640   49.7220 C.3    93  C93         0.1812
   1989  O5'        2.9590   -9.2960   49.1050 O.3    93  C93        -0.3114
   1990  C4'        3.9790  -11.4730   48.8280 C.3    93  C93         0.1773
   1991  O4'        3.2430  -11.6890   47.6000 O.3    93  C93        -0.3307
   1992  C3'        5.3250  -10.9100   48.3940 C.3    93  C93         0.1860
   1993  O3'        6.3420  -11.2730   49.3210 O.3    93  C93        -0.3112
   1994  C2'        5.5480  -11.5900   47.0480 C.3    93  C93         0.2309
   1995  O2'        6.1480  -12.8630   47.1840 O.3    93  C93        -0.2156
   1996  C1'        4.1290  -11.7270   46.4990 C.3    93  C93         0.2420
   1997  N1         3.7500  -10.6410   45.5450 N.ar   93  C93        -0.2535
   1998  C2         4.2570  -10.6560   44.2400 C.ar   93  C93         0.3532
   1999  O2         5.0120  -11.5760   43.9010 O.2    93  C93        -0.2443
   2000  N3         3.9070   -9.6630   43.3840 N.ar   93  C93        -0.1739
   2001  C4         3.0900   -8.6900   43.7890 C.ar   93  C93         0.1759
   2002  N4         2.7690   -7.7300   42.9140 N.pl3  93  C93        -0.1070
   2003  C5         2.5620   -8.6590   45.1150 C.ar   93  C93         0.0566
   2004  C6         2.9130   -9.6430   45.9510 C.ar   93  C93         0.0850
   2005  OP1        2.2590   -8.0900   51.1800 O.3    93  C93        -0.4373
   2006  OP2        1.8510   -7.0630   48.8750 O.co2  93  C93        -0.5172
   2007  P          7.5580  -10.2720   49.6060 P.3    94  G94         0.2141
   2008  C5'        9.3500  -11.6400   48.2350 C.3    94  G94         0.1813
   2009  O5'        8.5280  -10.4760   48.3430 O.3    94  G94        -0.3114
   2010  C4'        9.8540  -11.8640   46.8150 C.3    94  G94         0.1801
   2011  O4'        8.7330  -11.8230   45.8920 O.3    94  G94        -0.3306
   2012  C3'       10.8640  -10.8450   46.2930 C.3    94  G94         0.2161
   2013  O3'       12.1950  -11.3090   46.5010 O.3    94  G94        -0.2175
   2014  C2'       10.5520  -10.7960   44.8020 C.3    94  G94         0.2337
   2015  O2'       11.1940  -11.8460   44.1080 O.3    94  G94        -0.2155
   2016  C1'        9.0410  -11.0030   44.7800 C.3    94  G94         0.2409
   2017  N1         6.6000   -7.2470   42.3300 N.ar   94  G94        -0.1709
   2018  C2         7.2840   -8.3240   41.8120 C.ar   94  G94         0.2606
   2019  N2         7.3220   -8.4150   40.4760 N.pl3  94  G94        -0.0859
   2020  N3         7.8890   -9.2500   42.5470 N.ar   94  G94        -0.1918
   2021  C4         7.7500   -9.0040   43.8720 C.ar   94  G94         0.1723
   2022  C5         7.0880   -7.9580   44.4830 C.ar   94  G94         0.1748
   2023  C6         6.4470   -6.9800   43.6880 C.ar   94  G94         0.3023
   2024  O6         5.8150   -5.9790   44.0610 O.2    94  G94        -0.2633
   2025  N7         7.1740   -8.0610   45.8640 N.ar   94  G94        -0.2173
   2026  C8         7.8720   -9.1460   46.0560 C.ar   94  G94         0.1817
   2027  N9         8.2590   -9.7720   44.8960 N.ar   94  G94        -0.2693
   2028  OP1        8.2590  -10.7500   50.8220 O.3    94  G94        -0.4373
   2029  OP2        7.0130   -8.8950   49.5640 O.co2  94  G94        -0.5172
@<TRIPOS>BOND
     1   734   733    1
     2   733   735   ar
     3   733   732   ar
     4   735   736   ar
     5   732   730   ar
     6   737   719    2
     7   736   729   ar
     8   730   729   ar
     9   730   731    2
    10   705   704    1
    11   729   728    1
    12   703   719    1
    13   703   702    1
    14   719   721    1
    15   719   738    1
    16   704   702    1
    17   704   706    1
    18   721   720    1
    19   723   728    1
    20   723   722    1
    21   702   700    1
    22   720   722    1
    23   728   726    1
    24   706   716    1
    25   706   701    1
    26   722   724    1
    27   726   727    1
    28   726   724    1
    29   716   715   ar
    30   716   710   ar
    31   715   714   ar
    32   700   701    1
    33   700   698    1
    34   756   755    2
    35   724   725    1
    36   714   711   ar
    37   710   709   ar
    38   710   711   ar
    39   709   708   ar
    40   699   698    1
    41   699   697    1
    42   718   697    2
    43   755   749   ar
    44   755   754   ar
    45   711   712   ar
    46   757   754   ar
    47   757   758   ar
    48   717   697    1
    49   725   739    1
    50   708   707   ar
    51   697   680    1
    52   749   750   ar
    53   754   753   ar
    54   712   707   ar
    55   712   713    1
    56   691   690    2
    57   297   296    1
    58   652   634    2
    59   758   759   ar
    60   750   751    1
    61   750   752   ar
    62   753   759   ar
    63   753   752   ar
    64   690   684   ar
    65   690   689   ar
    66   673   654    2
    67   696   674    2
    68   298   295   ar
    69   298   299   ar
    70   759   748    1
    71   741   739    1
    72   741   740    1
    73   739   760    2
    74   739   761    1
    75   692   689   ar
    76   692   693   ar
    77   684   685   ar
    78   672   654    1
    79   680   679    1
    80   653   634    1
    81   689   688   ar
    82   632   614    2
    83   296   295   ar
    84   296   291   ar
    85   634   636    1
    86   634   620    1
    87   295   294   ar
    88   693   694   ar
    89   679   681    1
    90   679   677    1
    91   654   656    1
    92   654   640    1
    93   695   674    1
    94   743   748    1
    95   743   742    1
    96   685   686    1
    97   685   687   ar
    98   299   300   ar
    99   400   399    1
   100   688   694   ar
   101   688   687   ar
   102   674   676    1
   103   674   660    1
   104   748   746    1
   105   681   682    1
   106   681   683    1
   107   436   415    2
   108   635   636    1
   109   635   637    1
   110   431   430    1
   111   291   292   ar
   112   676   675    1
   113   740   742    1
   114   694   683    1
   115   620   619    1
   116   614   633    1
   117   614   616    1
   118   614   597    1
   119   656   655    1
   120   430   429   ar
   121   430   425   ar
   122   432   429   ar
   123   432   433   ar
   124   742   744    1
   125   410   411   ar
   126   410   407   ar
   127   616   615    1
   128   640   639    1
   129   409   408    2
   130   294   300   ar
   131   294   293   ar
   132   411   412   ar
   133   429   428   ar
   134   399   401    1
   135   399   397    1
   136   683   678    1
   137   300   290    1
   138   425   426   ar
   139   423   422    1
   140   407   408   ar
   141   407   406   ar
   142   677   675    1
   143   677   678    1
   144   615   617    1
   145   422   420    1
   146   422   424    1
   147   408   402   ar
   148   433   434   ar
   149   660   659    1
   150   292   293   ar
   151   639   637    1
   152   639   641    1
   153   619   617    1
   154   619   621    1
   155   412   406   ar
   156   412   401    1
   157   637   638    1
   158   746   744    1
   159   746   747    1
   160   428   434   ar
   161   428   427   ar
   162   406   405   ar
   163   420   421    1
   164   420   418    1
   165   415   417    1
   166   415   435    1
   167   415   398    1
   168   426   427   ar
   169   669   668    1
   170   421   437    1
   171   402   403   ar
   172   434   424    1
   173   401   396    1
   174   597   596    1
   175   417   416    1
   176   655   657    1
   177   659   657    1
   178   659   661    1
   179   617   618    1
   180   454   453    2
   181   405   403   ar
   182   403   404    1
   183   744   745    1
   184  1606  1607   ar
   185  1606  1611   ar
   186   670   668   ar
   187   670   671   ar
   188   668   667   ar
   189   397   398    1
   190   397   395    1
   191   290   288    1
   192   290   285    1
   193   424   419    1
   194   612   591    2
   195  1607  1608   ar
   196   650   651   ar
   197   650   648   ar
   198   638   643    1
   199  1648  1647    1
   200   459   437    2
   201   651   644   ar
   202   671   664   ar
   203   453   447   ar
   204   453   452   ar
   205  1629  1630   ar
   206  1629  1628   ar
   207  1612  1611    1
   208   667   665   ar
   209   621   622    1
   210   621   623    1
   211   657   658    1
   212   289   288    1
   213   347   326    2
   214   455   452   ar
   215   455   456   ar
   216  1611  1610   ar
   217   288   286    1
   218   641   643    1
   219   641   642    1
   220   418   416    1
   221   418   419    1
   222   745   762    1
   223  1630  1631   ar
   224   437   439    1
   225   437   458    1
   226   596   594    1
   227   596   598    1
   228   447   448   ar
   229   452   451   ar
   230   414   392    2
   231   661   663    1
   232   661   662    1
   233   592   594    1
   234   592   593    1
   235   367   349    2
   236   396   395    1
   237   285   284    1
   238   664   665   ar
   239   664   663    1
   240   665   666    2
   241  1608  1609   ar
   242   393   395    1
   243   393   394    1
   244   649   648    1
   245   648   647   ar
   246   618   623    1
   247   644   643    1
   248   644   645   ar
   249  1628  1633   ar
   250   631   630   ar
   251   631   624   ar
   252   613   591    1
   253   456   457   ar
   254   658   663    1
   255   594   595    1
   256   591   593    1
   257   591   574    1
   258  1626  1625    1
   259  1644  1649    1
   260  1644  1643    1
   261   630   628   ar
   262   368   349    1
   263   439   438    1
   264  1649  1647    1
   265  1649  1659    1
   266   386   385    2
   267   391   369    2
   268   390   369    1
   269  1643  1645    1
   270  1643  1641    1
   271   448   449    1
   272   448   450   ar
   273   451   457   ar
   274   451   450   ar
   275   623   624    1
   276  1647  1645    1
   277   394   392    1
   278   779   780   ar
   279   779   776   ar
   280  1610  1609   ar
   281  1610  1613   ar
   282   780   781   ar
   283  1652  1651   ar
   284  1652  1653   ar
   285   624   625   ar
   286   599   598    1
   287   457   446    1
   288  1609  1615   ar
   289  1646  1645    1
   290  1646  1662    1
   291   647   645   ar
   292   349   351    1
   293   349   332    1
   294   348   326    1
   295   326   309    1
   296   326   328    1
   297   645   646    2
   298   598   600    1
   299   392   413    1
   300   392   375    1
   301  1631  1637   ar
   302  1631  1632   ar
   303   387   384   ar
   304   387   388   ar
   305   477   476    2
   306   766   771    1
   307   766   765    1
   308   286   284    1
   309   286   287    1
   310  1627  1625    1
   311  1627  1637    1
   312  1627  1622    1
   313   385   384   ar
   314   385   379   ar
   315   369   371    1
   316   369   355    1
   317   628   629    1
   318   628   627   ar
   319  1651  1650   ar
   320   778   777    1
   321   284   282    1
   322  1641  1642    1
   323   441   446    1
   324   441   440    1
   325  1680  1662    2
   326   762   783    2
   327   762   764    1
   328   762   782    1
   329   776   777   ar
   330   776   775   ar
   331  1625  1623    1
   332   305   304    1
   333   305   303    1
   334  1633  1632   ar
   335  1633  1634    1
   336   781   771    1
   337   781   775   ar
   338   384   383   ar
   339   327   328    1
   340   327   329    1
   341   574   573    1
   342  1659  1653   ar
   343  1659  1658   ar
   344   324   303    2
   345   446   444    1
   346   625   627   ar
   347   625   626    2
   348   388   389   ar
   349   371   370    1
   350   777   772   ar
   351  1637  1636   ar
   352  1653  1654   ar
   353   438   440    1
   354   771   769    1
   355  1613  1614   ar
   356   595   600    1
   357   476   470   ar
   358   476   475   ar
   359   764   763    1
   360   351   350    1
   361   379   380   ar
   362   470   471   ar
   363   309   308    1
   364   763   765    1
   365  1622  1621    1
   366   775   774   ar
   367  1632  1635   ar
   368  1615  1614   ar
   369  1615  1605    1
   370   332   331    1
   371  1662  1664    1
   372  1662  1681    1
   373   304   306    1
   374   374   375    1
   375   374   376    1
   376   374   372    1
   377   765   767    1
   378   600   611    1
   379   287   303    1
   380   303   325    1
   381   383   389   ar
   382   383   382   ar
   383  1663  1664    1
   384  1663  1665    1
   385   376   377    1
   386   376   378    1
   387   440   442    1
   388   282   283    1
   389   772   773   ar
   390   389   378    1
   391  1650  1655   ar
   392   472   471    1
   393  1605  1603    1
   394  1605  1600    1
   395   306   308    1
   396   306   307    1
   397  1604  1603    1
   398  1308  1309   ar
   399  1308  1313   ar
   400  1309  1310   ar
   401   471   473   ar
   402   475   478   ar
   403   475   474   ar
   404  1642  1640    1
   405   774   773   ar
   406   355   354    1
   407   380   382   ar
   408   380   381    1
   409  1621  1623    1
   410  1621  1619    1
   411   329   331    1
   412   329   330    1
   413   350   352    1
   414  1658  1657   ar
   415  1623  1624    1
   416   478   479   ar
   417   370   372    1
   418   331   333    1
   419  1624  1640    1
   420   576   575    1
   421   611   610   ar
   422   611   605   ar
   423  1636  1635   ar
   424  1654  1655   ar
   425  1654  1657   ar
   426   308   310    1
   427   573   575    1
   428   573   571    1
   429  1603  1601    1
   430  1665  1666    1
   431  1665  1667    1
   432  1666  1671    1
   433   610   609   ar
   434   444   442    1
   435   444   445    1
   436   378   373    1
   437  1310  1311   ar
   438   474   473   ar
   439   474   480   ar
   440   769   770    1
   441   769   767    1
   442  1314  1313    1
   443  1313  1312   ar
   444   372   373    1
   445   442   443    1
   446  1655  1656    1
   447   575   577    1
   448   354   352    1
   449   354   356    1
   450  1660  1640    2
   451   605   604   ar
   452   605   606   ar
   453   495   494    1
   454   767   768    1
   455   604   602   ar
   456  1640  1661    1
   457   479   480   ar
   458   311   310    1
   459   365   366   ar
   460   365   363   ar
   461  1600  1599    1
   462   283   281    1
   463   493   494   ar
   464   493   499   ar
   465   307   312    1
   466   500   499    2
   467   609   606   ar
   468   352   353    1
   469   589   568    2
   470   364   363    2
   471   480   469    1
   472   571   569    1
   473   571   572    1
   474  1311  1312   ar
   475  1311  1317   ar
   476   606   607   ar
   477   330   335    1
   478  1619  1620    1
   479   366   359   ar
   480  1312  1315   ar
   481   494   496   ar
   482   310   312    1
   483   499   498   ar
   484   363   362   ar
   485   602   603    1
   486   602   601   ar
   487  1671  1669    1
   488  1671  1672    1
   489  1331  1332   ar
   490  1331  1330   ar
   491   569   570    1
   492   266   265    1
   493   333   334    1
   494   333   335    1
   495  1670  1669    1
   496  1332  1333   ar
   497   570   568    1
   498  1667  1668    1
   499  1667  1669    1
   500  1601  1599    1
   501  1601  1602    1
   502  1668  1682    1
   503   607   601   ar
   504   607   608    2
   505   590   568    1
   506  1620  1618    1
   507   443   460    1
   508   768   784    1
   509   568   554    1
   510   469   464    1
   511   469   467    1
   512   345   344   ar
   513   345   346   ar
   514   356   358    1
   515   356   357    1
   516   312   323    1
   517   800   799    1
   518   353   358    1
   519  1317  1307    1
   520  1317  1316   ar
   521  1599  1597    1
   522   464   463    1
   523   482   460    2
   524   577   572    1
   525   577   588    1
   526   359   358    1
   527   359   360   ar
   528  1315  1316   ar
   529  1330  1335   ar
   530   335   346    1
   531   496   497   ar
   532  1328  1327    1
   533   362   360   ar
   534   265   263    1
   535   265   267    1
   536   263   264    1
   537   263   261    1
   538  1679  1672   ar
   539  1679  1678   ar
   540   264   281    1
   541  1307  1302    1
   542  1307  1305    1
   543   498   497   ar
   544   498   501   ar
   545   281   302    2
   546   281   301    1
   547   344   341   ar
   548  1602  1618    1
   549  1672  1673   ar
   550   346   340   ar
   551  1581  1580    1
   552   801   798   ar
   553   801   802   ar
   554  1329  1324    1
   555  1329  1339    1
   556  1329  1327    1
   557   799   798   ar
   558   799   794   ar
   559  1333  1339   ar
   560  1333  1334   ar
   561   497   503   ar
   562   588   587   ar
   563   588   582   ar
   564   360   361    2
   565  1324  1323    1
   566  1306  1305    1
   567   798   797   ar
   568   460   462    1
   569   460   481    1
   570   462   461    1
   571   323   322   ar
   572   323   317   ar
   573   581   582   ar
   574   581   579   ar
   575   805   784    2
   576  1703  1682    2
   577   802   803   ar
   578  1394  1393    2
   579  1616  1596    2
   580   587   586   ar
   581   501   502   ar
   582   582   583   ar
   583  1339  1338   ar
   584   794   795   ar
   585  1302  1301    1
   586  1305  1303    1
   587  1678  1676   ar
   588  1618  1638    2
   589  1618  1639    1
   590   341   340   ar
   591   341   342   ar
   592  1598  1597    1
   593  1598  1596    1
   594  1682  1704    1
   595  1682  1684    1
   596  1327  1325    1
   597  1335  1334   ar
   598  1335  1336    1
   599   322   321   ar
   600   340   339   ar
   601   580   579    1
   602   784   786    1
   603   784   804    1
   604   822   821    1
   605   579   578   ar
   606  1673  1674    2
   607  1673  1675   ar
   608   467   465    1
   609   467   468    1
   610  1334  1337   ar
   611   797   803   ar
   612   797   796   ar
   613   586   583   ar
   614   554   553    1
   615   463   461    1
   616   463   465    1
   617   583   584   ar
   618   788   793    1
   619   788   787    1
   620   803   793    1
   621  1585  1584    1
   622  1414  1413    2
   623   259   261    1
   624   259   260    1
   625   317   316   ar
   626   317   318   ar
   627   316   314   ar
   628   261   262    1
   629   503   502   ar
   630   503   492    1
   631   795   796   ar
   632  1580  1578    1
   633  1580  1582    1
   634   786   785    1
   635  1323  1325    1
   636  1323  1321    1
   637  1395  1393   ar
   638  1395  1396   ar
   639  1393  1392   ar
   640   267   278    1
   641   267   262    1
   642   578   584   ar
   643   342   343    2
   644   342   336   ar
   645  1579  1596    1
   646  1579  1578    1
   647   339   337   ar
   648  1596  1617    1
   649  1683  1684    1
   650  1683  1685    1
   651   584   585    2
   652   277   278   ar
   653   277   276   ar
   654   816   821   ar
   655   816   817   ar
   656   465   466    1
   657   321   318   ar
   658   785   787    1
   659   821   820   ar
   660  1676  1675   ar
   661  1676  1677    1
   662  1338  1337   ar
   663   793   791    1
   664   278   272   ar
   665   318   319   ar
   666  1410  1409    1
   667   492   487    1
   668   492   490    1
   669  1586  1584   ar
   670  1586  1587   ar
   671  1325  1326    1
   672   314   315    1
   673   314   313   ar
   674  1301  1303    1
   675  1301  1299    1
   676  1413  1415   ar
   677  1413  1412   ar
   678   336   337   ar
   679   276   273   ar
   680   337   338    1
   681  1584  1583   ar
   682  1411  1406    1
   683  1411  1412    1
   684  1411  1409    1
   685   553   555    1
   686   553   551    1
   687  1397  1396    1
   688  1303  1304    1
   689  1578  1576    1
   690  1396  1398   ar
   691  1582  1577    1
   692  1582  1593    1
   693   787   789    1
   694  1392  1391    1
   695  1392  1399   ar
   696  1321  1322    1
   697  1391  1386    1
   698  1391  1389    1
   699   487   486    1
   700   817   818   ar
   701  1686  1685    1
   702  1686  1691    1
   703  1406  1405    1
   704  1415  1416   ar
   705   260   258    1
   706  1326  1342    1
   707  1685  1687    1
   708  1360  1342    2
   709   556   555    1
   710  1390  1389    1
   711  1412  1419   ar
   712   820   823   ar
   713   820   819   ar
   714   555   557    1
   715  1576  1577    1
   716  1576  1574    1
   717  1300  1299    1
   718  1300  1298    1
   719   567   548    2
   720   272   273   ar
   721   272   271   ar
   722   566   548    1
   723   279   258    2
   724   313   319   ar
   725   319   320    2
   726   273   274   ar
   727  1409  1407    1
   728   843   842    1
   729   823   824   ar
   730  1361  1342    1
   731   280   258    1
   732  1322  1320    1
   733  1386  1385    1
   734  1587  1593   ar
   735  1587  1588   ar
   736  1389  1387    1
   737   466   483    1
   738  1304  1320    1
   739  1562  1561    1
   740   505   483    2
   741  1342  1344    1
   742  1398  1399   ar
   743  1319  1298    2
   744   258   242    1
   745   550   548    1
   746   550   549    1
   747   271   269   ar
   748  1593  1592   ar
   749   548   534    1
   750  1583  1589   ar
   751   791   789    1
   752   791   792    1
   753   490   491    1
   754   490   488    1
   755   818   819   ar
   756   789   790    1
   757  1405  1407    1
   758  1405  1403    1
   759   819   825   ar
   760  1416  1417    1
   761  1416  1418   ar
   762   551   549    1
   763   551   552    1
   764   841   842   ar
   765   841   839   ar
   766  1419  1418   ar
   767   485   483    1
   768   485   484    1
   769   274   275    2
   770   274   268   ar
   771  1298  1318    1
   772  1298  1284    1
   773  1691  1702    1
   774  1691  1689    1
   775  1701  1702   ar
   776  1701  1700   ar
   777   842   844   ar
   778  1426  1431    1
   779  1426  1425    1
   780   486   484    1
   781   486   488    1
   782   483   504    1
   783   824   825   ar
   784  1574  1575    1
   785   269   268   ar
   786   269   270    1
   787  1687  1688    1
   788  1687  1689    1
   789  1407  1408    1
   790   565   564   ar
   791   565   558   ar
   792  1560  1561   ar
   793  1560  1566   ar
   794   547   528    2
   795  1561  1563   ar
   796   557   558    1
   797   557   552    1
   798  1320  1341    2
   799  1320  1340    1
   800   546   528    1
   801  1434  1433    2
   802   564   562   ar
   803   840   839    2
   804   488   489    1
   805   825   815    1
   806  1431  1432    1
   807  1431  1429    1
   808   256   236    2
   809  1702  1696   ar
   810  1425  1423    1
   811  1425  1427    1
   812  1430  1429    1
   813   558   559   ar
   814  1588  1589   ar
   815  1588  1591   ar
   816  1385  1387    1
   817  1385  1383    1
   818  1575  1573    1
   819  1403  1404    1
   820  1688  1705    1
   821   839   838   ar
   822  1700  1697   ar
   823  1589  1590    2
   824  1408  1422    1
   825  1592  1591   ar
   826   562   563    2
   827   562   561   ar
   828  1358  1356   ar
   829  1358  1359   ar
   830  1357  1356    2
   831  1387  1388    1
   832   559   561   ar
   833   559   560    2
   834  1423  1424    1
   835   790   806    1
   836  1689  1690    1
   837  1344  1343    1
   838   863   862    1
   839   242   241    1
   840   528   530    1
   841   528   512    1
   842   861   862   ar
   843   861   859   ar
   844  1567  1566    2
   845  1433  1432   ar
   846  1433  1435   ar
   847   534   533    1
   848   860   859    2
   849   526   506    2
   850  1432  1439   ar
   851   827   806    2
   852  1566  1565   ar
   853  1563  1564   ar
   854   844   845   ar
   855  1429  1427    1
   856  1284  1283    1
   857   234   213    2
   858   530   529    1
   859  1404  1402    1
   860  1356  1355   ar
   861   257   236    1
   862   815   810    1
   863   815   813    1
   864  1724  1705    2
   865  1696  1697   ar
   866  1696  1695   ar
   867   236   238    1
   868   236   219    1
   869   862   864   ar
   870   859   858   ar
   871  1697  1698   ar
   872   238   237    1
   873  1359  1352   ar
   874  1388  1402    1
   875   810   809    1
   876  1286  1285    1
   877  1427  1428    1
   878  1428  1442    1
   879   880   879    2
   880  1383  1384    1
   881  1705  1723    1
   882  1705  1707    1
   883  1343  1345    1
   884  1424  1422    1
   885   489   506    1
   886  1435  1436   ar
   887   838   845   ar
   888   838   837    1
   889   533   531    1
   890   533   535    1
   891  1384  1382    1
   892   806   808    1
   893   806   826    1
   894   529   531    1
   895  1439  1438   ar
   896   241   239    1
   897   241   243    1
   898  1595  1573    2
   899  1573  1594    1
   900  1573  1556    1
   901  1422  1440    2
   902  1422  1441    1
   903  1564  1565   ar
   904  1564  1570   ar
   905  1695  1693   ar
   906  1565  1568   ar
   907   808   807    1
   908   235   213    1
   909  1446  1445    1
   910  1446  1451    1
   911   237   239    1
   912   506   527    1
   913   506   508    1
   914   879   881   ar
   915   879   878   ar
   916  1285  1283    1
   917  1285  1287    1
   918   881   882   ar
   919  1283  1281    1
   920  1558  1557    1
   921   512   511    1
   922  1402  1421    2
   923  1402  1420    1
   924  1698  1699    2
   925  1698  1692   ar
   926   213   215    1
   927   213   197    1
   928  1443  1445    1
   929  1443  1444    1
   930   864   865   ar
   931   858   865   ar
   932   858   857    1
   933  1400  1382    2
   934  1557  1555    1
   935  1557  1559    1
   936  1436  1438   ar
   937  1436  1437    2
   938   531   532    1
   939   813   811    1
   940   813   814    1
   941  1355  1353   ar
   942   807   809    1
   943   837   832    1
   944   837   835    1
   945   896   895    1
   946  1463  1442    2
   947   239   240    1
   948  1445  1447    1
   949   809   811    1
   950  1556  1555    1
   951   900   899    1
   952   219   218    1
   953  1352  1353   ar
   954  1352  1351    1
   955   535   536    1
   956   535   537    1
   957   507   508    1
   958   507   509    1
   959  1693  1692   ar
   960  1693  1694    1
   961   897   892    1
   962   897   908    1
   963   897   895    1
   964  1382  1401    1
   965  1382  1368    1
   966   243   244    1
   967   243   245    1
   968   892   891    1
   969  1707  1706    1
   970  1442  1444    1
   971  1442  1464    1
   972   883   882    1
   973   882   884   ar
   974   857   852    1
   975   857   855    1
   976   878   877    1
   977   878   885   ar
   978   877   875    1
   979   877   872    1
   980  1570  1559    1
   981  1570  1569   ar
   982  1345  1346    1
   983  1345  1347    1
   984   901   899   ar
   985   901   902   ar
   986   254   253   ar
   987   254   255   ar
   988   876   875    1
   989  1568  1569   ar
   990  1290  1289    2
   991  1451  1462    1
   992  1451  1449    1
   993   544   545   ar
   994   544   542   ar
   995   511   509    1
   996   511   513    1
   997  1555  1553    1
   998  1346  1351    1
   999   545   538   ar
  1000   811   812    1
  1001  1484  1465    2
  1002   253   250   ar
  1003   215   214    1
  1004   899   898   ar
  1005  1349  1351    1
  1006  1349  1347    1
  1007  1349  1350    1
  1008   197   196    1
  1009   832   831    1
  1010  1559  1554    1
  1011  1353  1354    2
  1012  1462  1456   ar
  1013  1462  1461   ar
  1014  1281  1279    1
  1015  1281  1282    1
  1016   532   537    1
  1017  1455  1456   ar
  1018  1455  1453   ar
  1019  1706  1708    1
  1020   908   902   ar
  1021   908   907   ar
  1022   895   893    1
  1023  1483  1465    1
  1024   875   873    1
  1025  1347  1348    1
  1026   902   903   ar
  1027  1456  1457   ar
  1028  1287  1288    1
  1029  1287  1282    1
  1030  1461  1460   ar
  1031   509   510    1
  1032  1721  1722   ar
  1033  1721  1719   ar
  1034   211   191    2
  1035  1454  1453    1
  1036   835   836    1
  1037   835   833    1
  1038   885   884   ar
  1039   543   542    1
  1040   542   541   ar
  1041   852   851    1
  1042   538   537    1
  1043   538   539   ar
  1044  1453  1452   ar
  1045   872   871    1
  1046   218   216    1
  1047   218   220    1
  1048   212   191    1
  1049   214   216    1
  1050   891   893    1
  1051   891   889    1
  1052   855   856    1
  1053   855   853    1
  1054  1289  1288   ar
  1055  1289  1291   ar
  1056  1720  1719    2
  1057   192   193    1
  1058   192   194    1
  1059  1457  1460   ar
  1060  1457  1458   ar
  1061   240   245    1
  1062   255   245    1
  1063   255   249   ar
  1064   898   904   ar
  1065  1722  1715   ar
  1066  1368  1367    1
  1067   193   191    1
  1068  1452  1458   ar
  1069  1465  1448    1
  1070  1465  1467    1
  1071  1450  1449    1
  1072  1279  1280    1
  1073  1719  1718   ar
  1074  1447  1449    1
  1075  1447  1448    1
  1076  1458  1459    2
  1077  1288  1295   ar
  1078  1709  1708    1
  1079  1709  1714    1
  1080   191   175    1
  1081   541   539   ar
  1082   907   906   ar
  1083   539   540    2
  1084   903   904   ar
  1085   903   906   ar
  1086   915   914    1
  1087   915   920    1
  1088   250   249   ar
  1089   250   251   ar
  1090  1296  1278    2
  1091  1381  1362    2
  1092   513   514    1
  1093   513   515    1
  1094  1280  1278    1
  1095  1291  1292   ar
  1096   196   194    1
  1097   196   198    1
  1098   216   217    1
  1099   847   828    2
  1100  1553  1554    1
  1101  1553  1551    1
  1102   812   828    1
  1103   919   918    1
  1104  1367  1369    1
  1105  1367  1365    1
  1106   893   894    1
  1107   904   905    2
  1108   194   195    1
  1109   889   890    1
  1110  1708  1710    1
  1111   831   833    1
  1112   831   829    1
  1113  1545  1544    1
  1114   914   912    1
  1115   914   916    1
  1116   920   918    1
  1117   920   931    1
  1118   252   251    1
  1119   833   834    1
  1120   249   248   ar
  1121   220   221    1
  1122   220   222    1
  1123   871   873    1
  1124   871   869    1
  1125  1370  1369    1
  1126   830   828    1
  1127   830   829    1
  1128  1715  1714    1
  1129  1715  1716   ar
  1130   510   515    1
  1131  1348  1362    1
  1132   873   874    1
  1133  1718  1716   ar
  1134   851   853    1
  1135   851   849    1
  1136   894   911    1
  1137  1295  1294   ar
  1138  1278  1297    1
  1139  1278  1264    1
  1140   251   246   ar
  1141   853   854    1
  1142   912   913    1
  1143   828   846    1
  1144   181   180   ar
  1145   181   182   ar
  1146   180   179   ar
  1147  1714  1712    1
  1148  1467  1466    1
  1149  1292  1294   ar
  1150  1292  1293    1
  1151   515   525    1
  1152  1369  1371    1
  1153  1716  1717    2
  1154   918   916    1
  1155   524   525   ar
  1156   524   523   ar
  1157   232   231   ar
  1158   232   233   ar
  1159  1362  1364    1
  1160  1362  1380    1
  1161   199   198    1
  1162   890   888    1
  1163  1543  1544   ar
  1164  1543  1541   ar
  1165  1552  1551    1
  1166  1552  1550    1
  1167   173   172    1
  1168   173   178    1
  1169  1365  1363    1
  1170  1365  1366    1
  1171   931   930   ar
  1172   931   925   ar
  1173   177   176    1
  1174  1544  1546   ar
  1175  1524  1523    2
  1176   198   200    1
  1177   874   888    1
  1178  1710  1712    1
  1179  1710  1711    1
  1180   525   519   ar
  1181   217   222    1
  1182  1506  1485    2
  1183   175   174    1
  1184   231   228   ar
  1185   172   174    1
  1186   172   170    1
  1187  1363  1364    1
  1188   178   176    1
  1189   178   188    1
  1190   916   917    1
  1191   917   934    1
  1192   523   520   ar
  1193   248   247   ar
  1194   850   849    1
  1195   850   848    1
  1196   222   233    1
  1197   930   929   ar
  1198   834   848    1
  1199   195   200    1
  1200   869   870    1
  1201   924   925   ar
  1202   924   922   ar
  1203   233   227   ar
  1204   913   911    1
  1205   870   868    1
  1206   925   926   ar
  1207   854   868    1
  1208   246   247   ar
  1209   179   184   ar
  1210  1740  1739    2
  1211  1466  1468    1
  1212  1744  1725    2
  1213   519   520   ar
  1214   519   518   ar
  1215   182   188   ar
  1216   182   183   ar
  1217   176   174    1
  1218  1542  1541    2
  1219  1712  1713    1
  1220  1481  1482   ar
  1221  1481  1479   ar
  1222  1541  1540   ar
  1223   935   937    1
  1224   935   936    1
  1225   911   932    2
  1226   911   933    1
  1227  1264  1263    1
  1228   520   521   ar
  1229  1711  1725    1
  1230   888   909    2
  1231   888   910    1
  1232  1501  1500    1
  1233  1546  1547   ar
  1234  1371  1366    1
  1235  1371  1372    1
  1236   170   171    1
  1237  1480  1479    1
  1238   938   937    1
  1239   938   943    1
  1240  1572  1550    2
  1241   200   210    1
  1242   228   227   ar
  1243   228   229   ar
  1244  1523  1517   ar
  1245  1523  1522   ar
  1246   188   187   ar
  1247   923   922    1
  1248   922   921   ar
  1249   929   926   ar
  1250   937   939    1
  1251   867   848    2
  1252   848   866    1
  1253   518   517   ar
  1254  1550  1571    1
  1255  1550  1536    1
  1256   926   927   ar
  1257   227   226   ar
  1258  1482  1475   ar
  1259   952   934    2
  1260  1485  1505    1
  1261  1485  1471    1
  1262  1485  1487    1
  1263   868   887    2
  1264   868   886    1
  1265  1739  1741   ar
  1266  1739  1738   ar
  1267   521   522    1
  1268   521   516   ar
  1269  1479  1478   ar
  1270   934   936    1
  1271   934   953    1
  1272  1741  1742   ar
  1273  1517  1518   ar
  1274  1725  1743    1
  1275  1725  1727    1
  1276   230   229    2
  1277  1502  1499   ar
  1278  1502  1503   ar
  1279   229   223   ar
  1280   517   516   ar
  1281  1540  1547   ar
  1282  1540  1539    1
  1283  1266  1265    1
  1284  1525  1522   ar
  1285  1525  1526   ar
  1286   210   209   ar
  1287   210   204   ar
  1288   921   927   ar
  1289   184   183   ar
  1290   184   185    1
  1291  1263  1265    1
  1292  1263  1261    1
  1293   209   208   ar
  1294   183   186   ar
  1295  1265  1267    1
  1296  1522  1521   ar
  1297  1374  1373    2
  1298   927   928    2
  1299  1468  1470    1
  1300  1468  1469    1
  1301  1470  1471    1
  1302  1470  1472    1
  1303   943   944    1
  1304   943   941    1
  1305  1500  1499   ar
  1306  1500  1495   ar
  1307  1529  1507    2
  1308   226   224   ar
  1309   171   169    1
  1310  1372  1373   ar
  1311  1372  1379   ar
  1312  1537  1535    1
  1313  1537  1539    1
  1314  1537  1538    1
  1315  1738  1736   ar
  1316  1536  1535    1
  1317  1499  1498   ar
  1318  1487  1486    1
  1319   187   186   ar
  1320   942   941    1
  1321  1469  1474    1
  1322  1503  1504   ar
  1323  1535  1533    1
  1324  1742  1735   ar
  1325   940   939    1
  1326   940   954    1
  1327   939   941    1
  1328  1373  1375   ar
  1329   223   224   ar
  1330   204   203   ar
  1331   204   205   ar
  1332   951   944   ar
  1333   951   950   ar
  1334  1475  1474    1
  1335  1475  1476   ar
  1336   208   205   ar
  1337   190   169    2
  1338  1270  1269    2
  1339   224   225    1
  1340  1478  1476   ar
  1341  1539  1534    1
  1342   203   202   ar
  1343  1518  1519    1
  1344  1518  1520   ar
  1345   944   945   ar
  1346  1727  1726    1
  1347  1526  1527   ar
  1348  1379  1378   ar
  1349  1762  1761    2
  1350  1784  1783    1
  1351  1495  1496   ar
  1352  1801  1800   ar
  1353  1801  1802   ar
  1354  1549  1530    2
  1355   205   206   ar
  1356  1269  1271   ar
  1357  1269  1268   ar
  1358  1521  1520   ar
  1359  1521  1527   ar
  1360  1800  1805   ar
  1361  1842  1841    1
  1362  1261  1259    1
  1363  1261  1262    1
  1364  1271  1272   ar
  1365  1474  1472    1
  1366   169   155    1
  1367   169   189    1
  1368   950   948   ar
  1369  1736  1735   ar
  1370  1736  1737    2
  1371  1472  1473    1
  1372  1476  1477    2
  1373  1267  1268    1
  1374  1267  1262    1
  1375  1735  1734    1
  1376  1507  1528    1
  1377  1507  1509    1
  1378  1507  1491    1
  1379  1268  1275   ar
  1380   974   954    2
  1381  1260  1259    1
  1382  1260  1258    1
  1383  1498  1504   ar
  1384  1498  1497   ar
  1385   202   201   ar
  1386  1504  1494    1
  1387  1532  1530    1
  1388  1532  1531    1
  1389  1272  1273    1
  1390  1272  1274   ar
  1391  1375  1376   ar
  1392   157   156    1
  1393  1527  1516    1
  1394   945   946    2
  1395   945   947   ar
  1396  1820  1819    1
  1397  1486  1488    1
  1398   954   975    1
  1399   954   956    1
  1400   155   154    1
  1401  1509  1508    1
  1402  1275  1274   ar
  1403  1726  1728    1
  1404  1778  1783   ar
  1405  1778  1779   ar
  1406  1729  1734    1
  1407  1729  1728    1
  1408  1534  1533    1
  1409  1823  1824   ar
  1410  1823  1822   ar
  1411  1783  1782   ar
  1412  1533  1531    1
  1413   206   201   ar
  1414   206   207    1
  1415  1824  1825   ar
  1416  1802  1803   ar
  1417  1378  1376   ar
  1418  1761  1755   ar
  1419  1761  1760   ar
  1420  1496  1497   ar
  1421  1490  1491    1
  1422  1490  1488    1
  1423  1490  1492    1
  1424  1530  1548    1
  1425  1530  1513    1
  1426  1276  1258    2
  1427   948   947   ar
  1428   948   949    1
  1429  1805  1806    1
  1430  1805  1804   ar
  1431  1277  1258    1
  1432  1734  1732    1
  1433  1843  1838    1
  1434  1843  1841    1
  1435  1843  1854    1
  1436  1838  1837    1
  1437  1376  1377    2
  1438  1258  1241    1
  1439  1755  1756   ar
  1440  1841  1839    1
  1441  1489  1488    1
  1442  1489  1494    1
  1443  1837  1835    1
  1444  1837  1839    1
  1445   156   154    1
  1446   156   158    1
  1447  1861  1860    1
  1448  1861  1866    1
  1449  1858  1860    1
  1450  1858  1859    1
  1451  1860  1862    1
  1452  1494  1492    1
  1453  1846  1845    1
  1454  1728  1730    1
  1455  1821  1819    1
  1456  1821  1816    1
  1457  1821  1831    1
  1458  1512  1514    1
  1459  1512  1513    1
  1460  1512  1510    1
  1461  1822  1827   ar
  1462  1492  1493    1
  1463  1763  1760   ar
  1464  1763  1764   ar
  1465  1819  1817    1
  1466   955   956    1
  1467   955   957    1
  1468  1760  1759   ar
  1469  1847  1845   ar
  1470  1847  1848   ar
  1471  1779  1780   ar
  1472   154   152    1
  1473  1516  1514    1
  1474  1516  1511    1
  1475  1803  1804   ar
  1476  1803  1809   ar
  1477  1514  1515    1
  1478  1825  1831   ar
  1479  1825  1826   ar
  1480  1782  1785   ar
  1481  1782  1781   ar
  1482  1840  1839    1
  1483  1840  1857    1
  1484  1865  1864    1
  1485  1835  1836    1
  1486  1508  1510    1
  1487  1804  1807   ar
  1488  1816  1815    1
  1489  1730  1732    1
  1490  1730  1731    1
  1491  1845  1844   ar
  1492  1511  1510    1
  1493   958   957    1
  1494   958   963    1
  1495  1831  1830   ar
  1496  1785  1786   ar
  1497  1854  1848   ar
  1498  1854  1853   ar
  1499  1866  1864    1
  1500  1866  1876    1
  1501   161   160    2
  1502  1756  1757    1
  1503  1756  1758   ar
  1504  1732  1733    1
  1505  1848  1849   ar
  1506   957   959    1
  1507  1767  1745    2
  1508  1252  1251    2
  1509  1863  1862    1
  1510  1863  1879    1
  1511  1764  1765   ar
  1512  1245  1251   ar
  1513  1245  1246   ar
  1514   158   159    1
  1515   158   153    1
  1516  1827  1826   ar
  1517  1827  1828    1
  1518   152   153    1
  1519   152   150    1
  1520  1247  1246    1
  1521  1241  1240    1
  1522  1859  1857    1
  1523  1862  1864    1
  1524  1877  1857    2
  1525  1815  1817    1
  1526  1815  1813    1
  1527  1759  1758   ar
  1528  1759  1765   ar
  1529  1826  1829   ar
  1530  1780  1781   ar
  1531   972   971   ar
  1532   972   973   ar
  1533  1781  1787   ar
  1534  1251  1250   ar
  1535  1817  1818    1
  1536  1809  1799    1
  1537  1809  1808   ar
  1538   971   968   ar
  1539  1246  1248   ar
  1540  1818  1834    1
  1541  1857  1878    1
  1542  1798  1797    1
  1543   160   159   ar
  1544   160   162   ar
  1545  1836  1834    1
  1546  1799  1797    1
  1547  1799  1794    1
  1548  1807  1808   ar
  1549  1844  1850   ar
  1550  1853  1852   ar
  1551  1240  1242    1
  1552  1240  1238    1
  1553  1876  1875   ar
  1554  1876  1870   ar
  1555  1731  1745    1
  1556   159   166   ar
  1557   973   963    1
  1558   973   967   ar
  1559  1897  1879    2
  1560   963   961    1
  1561  1765  1754    1
  1562  1786  1787   ar
  1563  1830  1829   ar
  1564  1250  1249   ar
  1565  1250  1253   ar
  1566   968   967   ar
  1567   968   969   ar
  1568  1248  1249   ar
  1569  1797  1795    1
  1570   150   151    1
  1571  1849  1850   ar
  1572  1849  1852   ar
  1573   970   969    1
  1574   162   163   ar
  1575  1242  1243    1
  1576  1242  1244    1
  1577  1745  1747    1
  1578  1745  1766    1
  1579  1249  1255   ar
  1580   967   966   ar
  1581  1875  1874   ar
  1582  1879  1881    1
  1583  1879  1898    1
  1584   969   964   ar
  1585  1787  1777    1
  1586  1855  1834    2
  1587  1253  1254   ar
  1588  1834  1856    1
  1589  1869  1870   ar
  1590  1869  1868   ar
  1591   959   960    1
  1592   959   961    1
  1593  1880  1881    1
  1594  1880  1882    1
  1595  1870  1871   ar
  1596  1813  1814    1
  1597  1850  1851    2
  1598   166   165   ar
  1599  1794  1793    1
  1600   151   149    1
  1601   966   965   ar
  1602  1255  1254   ar
  1603  1255  1244    1
  1604  1237  1236    1
  1605  1237  1235    1
  1606   964   965   ar
  1607   163   165   ar
  1608   163   164    1
  1609   960   976    1
  1610  1747  1746    1
  1611   961   962    1
  1612  1238  1236    1
  1613  1238  1239    1
  1614  1754  1749    1
  1615  1754  1752    1
  1616  1874  1871   ar
  1617  1256  1235    2
  1618  1883  1882    1
  1619  1883  1888    1
  1620  1257  1235    1
  1621  1868  1867   ar
  1622  1244  1239    1
  1623  1882  1884    1
  1624  1749  1748    1
  1625  1871  1872   ar
  1626  1814  1812    1
  1627  1795  1793    1
  1628  1795  1796    1
  1629  1235  1221    1
  1630  1777  1775    1
  1631  1777  1772    1
  1632  1793  1791    1
  1633   997   976    2
  1634  1796  1812    1
  1635   167   149    2
  1636  1746  1748    1
  1637  1867  1872   ar
  1638   149   168    1
  1639   149   135    1
  1640  1872  1873    1
  1641   976   996    1
  1642   976   978    1
  1643  1752  1750    1
  1644  1752  1753    1
  1645  1775  1773    1
  1646  1775  1776    1
  1647   992   991    1
  1648  1888  1889    1
  1649  1888  1886    1
  1650  1748  1750    1
  1651   137   136    1
  1652  1772  1771    1
  1653   141   140    2
  1654  1750  1751    1
  1655    22     1    1
  1656  1812  1832    2
  1657  1812  1833    1
  1658  1884  1885    1
  1659  1884  1886    1
  1660   136   134    1
  1661   136   138    1
  1662  1887  1886    1
  1663  1789  1768    2
  1664  1896  1889   ar
  1665  1896  1895   ar
  1666  1792  1791    1
  1667  1792  1790    1
  1668   135   134    1
  1669  1230  1229    2
  1670  1889  1890   ar
  1671  1221  1220    1
  1672  1885  1899    1
  1673   991   986   ar
  1674   991   990   ar
  1675  1773  1771    1
  1676  1773  1774    1
  1677   993   990   ar
  1678   993   994   ar
  1679   140   142   ar
  1680   140   139   ar
  1681     1     3    1
  1682     1    23    1
  1683  1895  1893   ar
  1684   978   977    1
  1685  1229  1231   ar
  1686  1229  1228   ar
  1687   986   987   ar
  1688   142   143   ar
  1689   990   989   ar
  1690  1231  1232   ar
  1691  1771  1769    1
  1692   134   132    1
  1693  1220  1222    1
  1694  1220  1218    1
  1695     2     3    1
  1696     2     4    1
  1697  1890  1891    2
  1698  1890  1892   ar
  1699  1751  1768    1
  1700  1811  1790    2
  1701   977   979    1
  1702  1769  1770    1
  1703   994   995   ar
  1704   138   139    1
  1705   138   133    1
  1706  1228  1226   ar
  1707  1216  1218    1
  1708  1216  1217    1
  1709  1768  1770    1
  1710  1768  1788    1
  1711   139   146   ar
  1712  1234  1215    2
  1713  1790  1774    1
  1714  1790  1810    1
  1715  1232  1225   ar
  1716  1920  1899    2
  1717   987   988   ar
  1718  1893  1892   ar
  1719  1893  1894    2
  1720  1190  1169    2
  1721   989   995   ar
  1722   989   988   ar
  1723  1899  1921    1
  1724  1899  1901    1
  1725   143   144    2
  1726   143   145   ar
  1727   980   979    1
  1728   980   985    1
  1729    45    24    2
  1730  1222  1224    1
  1731  1222  1223    1
  1732   995   985    1
  1733  1218  1219    1
  1734  1226  1225   ar
  1735  1226  1227    2
  1736  1191  1169    1
  1737  1225  1224    1
  1738     4     5    1
  1739     4     6    1
  1740   132   133    1
  1741   132   130    1
  1742  1167  1149    2
  1743   979   981    1
  1744  1214  1192    2
  1745   146   145   ar
  1746  1217  1215    1
  1747  1215  1233    1
  1748  1215  1198    1
  1749    46    24    1
  1750  1169  1155    1
  1751  1169  1171    1
  1752  1224  1219    1
  1753   985   983    1
  1754     7    24    1
  1755     7     6    1
  1756    24    26    1
  1757     5    10    1
  1758  1900  1901    1
  1759  1900  1902    1
  1760  1213  1192    1
  1761     6     8    1
  1762  1013  1012    1
  1763  1192  1194    1
  1764  1192  1175    1
  1765   130   131    1
  1766  1155  1154    1
  1767   123   122    1
  1768   983   981    1
  1769   983   984    1
  1770   117   122   ar
  1771   117   118   ar
  1772  1171  1170    1
  1773   131   129    1
  1774  1903  1902    1
  1775  1903  1908    1
  1776   981   982    1
  1777  1149  1151    1
  1778  1149  1168    1
  1779  1149  1133    1
  1780  1012  1014   ar
  1781  1012  1011   ar
  1782  1014  1015   ar
  1783  1151  1150    1
  1784  1902  1904    1
  1785  1150  1152    1
  1786  1198  1197    1
  1787   122   121   ar
  1788  1209  1208    2
  1789   118   119   ar
  1790  1194  1193    1
  1791  1918  1917   ar
  1792  1918  1919   ar
  1793  1016   998    2
  1794  1011  1009   ar
  1795    10     8    1
  1796    10    21    1
  1797  1015  1008   ar
  1798  1917  1914   ar
  1799  1170  1172    1
  1800    26    25    1
  1801     9     8    1
  1802    20    21   ar
  1803    20    19   ar
  1804  1154  1152    1
  1805  1154  1156    1
  1806  1210  1207   ar
  1807  1210  1211   ar
  1808  1197  1199    1
  1809  1197  1195    1
  1810  1208  1207   ar
  1811  1208  1202   ar
  1812  1175  1174    1
  1813    25    27    1
  1814   148   129    2
  1815  1009  1008   ar
  1816  1009  1010    2
  1817  1133  1132    1
  1818  1908  1919    1
  1819  1908  1906    1
  1820   982   998    1
  1821  1008  1007    1
  1822  1919  1913   ar
  1823   129   147    1
  1824   129   113    1
  1825   119   120   ar
  1826  1207  1206   ar
  1827   121   120   ar
  1828   121   124   ar
  1829  1174  1172    1
  1830  1174  1176    1
  1831  1152  1153    1
  1832  1187  1188   ar
  1833  1187  1184   ar
  1834    21    15   ar
  1835  1002  1007    1
  1836  1002  1001    1
  1837  1211  1212   ar
  1838  1202  1203   ar
  1839  1186  1185    2
  1840  1193  1195    1
  1841  1188  1189   ar
  1842    19    16   ar
  1843  1914  1913   ar
  1844  1914  1915   ar
  1845   120   126   ar
  1846   998  1000    1
  1847   998  1017    1
  1848  1007  1005    1
  1849  1199  1200    1
  1850  1199  1201    1
  1851  1904  1906    1
  1852  1904  1905    1
  1853  1000   999    1
  1854  1172  1173    1
  1855   124   125   ar
  1856  1206  1212   ar
  1857  1206  1205   ar
  1858  1913  1912   ar
  1859    66    47    2
  1860  1184  1185   ar
  1861  1184  1183   ar
  1862  1212  1201    1
  1863  1916  1915    2
  1864  1195  1196    1
  1865  1185  1179   ar
  1866  1203  1205   ar
  1867  1203  1204    1
  1868  1156  1157    1
  1869  1156  1158    1
  1870  1915  1909   ar
  1871   999  1001    1
  1872  1906  1907    1
  1873   114   112    1
  1874   114   115    1
  1875   114   116    1
  1876    65    47    1
  1877  1905  1922    1
  1878  1165  1166   ar
  1879  1165  1163   ar
  1880  1176  1178    1
  1881  1176  1177    1
  1882  1166  1159   ar
  1883  1189  1183   ar
  1884  1189  1178    1
  1885   113   112    1
  1886   126   125   ar
  1887   126   116    1
  1888  1001  1003    1
  1889  1153  1158    1
  1890  1132  1130    1
  1891  1132  1134    1
  1892   102   101    2
  1893    27    29    1
  1894    27    28    1
  1895    15    16   ar
  1896    15    14   ar
  1897  1173  1178    1
  1898  1201  1196    1
  1899  1147  1127    2
  1900  1912  1910   ar
  1901  1183  1182   ar
  1902  1033  1032    1
  1903   112   110    1
  1904    47    30    1
  1905    47    49    1
  1906    16    17   ar
  1907  1128  1130    1
  1908  1128  1129    1
  1909    30    29    1
  1910  1179  1180   ar
  1911  1943  1922    2
  1912  1158  1159    1
  1913  1135  1134    1
  1914  1909  1910   ar
  1915    29    31    1
  1916  1159  1160   ar
  1917  1130  1131    1
  1918  1163  1164    2
  1919  1163  1162   ar
  1920    43    42   ar
  1921    43    44   ar
  1922   116   111    1
  1923  1005  1006    1
  1924  1005  1003    1
  1925  1910  1911    1
  1926    42    39   ar
  1927    28    33    1
  1928  1134  1136    1
  1929   101   100   ar
  1930   101   103   ar
  1931  1032  1031   ar
  1932  1032  1034   ar
  1933  1922  1942    1
  1934  1922  1924    1
  1935    14    12   ar
  1936  1182  1180   ar
  1937  1180  1181    1
  1938  1003  1004    1
  1939  1162  1160   ar
  1940  1160  1161    2
  1941   100    98   ar
  1942  1031  1029   ar
  1943  1034  1035   ar
  1944  1127  1148    1
  1945  1127  1129    1
  1946  1127  1111    1
  1947  1938  1937    1
  1948    17    18    2
  1949    17    11   ar
  1950   103   104   ar
  1951   128   107    2
  1952   110   111    1
  1953   110   108    1
  1954  1939  1940   ar
  1955  1939  1936   ar
  1956    49    48    1
  1957    44    33    1
  1958    44    38   ar
  1959    82    81    2
  1960   109   108    1
  1961   109   107    1
  1962  1029  1030    2
  1963  1029  1028   ar
  1964    33    31    1
  1965  1035  1028   ar
  1966  1131  1136    1
  1967    31    32    1
  1968    39    38   ar
  1969    39    40   ar
  1970  1937  1936   ar
  1971  1937  1932   ar
  1972    98    99    2
  1973    98    97   ar
  1974    86    67    2
  1975    12    11   ar
  1976    12    13    1
  1977  1054  1053    1
  1978  1924  1923    1
  1979  1136  1146    1
  1980  1028  1027    1
  1981  1940  1941   ar
  1982    63    64   ar
  1983    63    61   ar
  1984  1936  1935   ar
  1985  1004  1018    1
  1986    62    61    1
  1987    41    40    2
  1988   107   127    1
  1989   107    93    1
  1990   104    97   ar
  1991  1111  1110    1
  1992    81    83   ar
  1993    81    80   ar
  1994    38    37   ar
  1995    48    50    1
  1996    83    84   ar
  1997    97    96    1
  1998  1048  1053   ar
  1999  1048  1049   ar
  2000    40    34   ar
  2001  2019  2018    1
  2002  1145  1146   ar
  2003  1145  1144   ar
  2004  1932  1933   ar
  2005  1146  1140   ar
  2006  1053  1052   ar
  2007    64    57   ar
  2008  1923  1925    1
  2009    61    60   ar
  2010  1027  1022    1
  2011  1027  1025    1
  2012  1022  1021    1
  2013  1037  1018    2
  2014  1961  1960    2
  2015  1941  1935   ar
  2016  1941  1931    1
  2017  1935  1934   ar
  2018  1926  1931    1
  2019  1926  1925    1
  2020    94    92    1
  2021    94    96    1
  2022    94    95    1
  2023  1072  1071    1
  2024    67    85    1
  2025    67    69    1
  2026    67    53    1
  2027  1144  1141   ar
  2028  1070  1071   ar
  2029  1070  1076   ar
  2030  1049  1050   ar
  2031  1018  1020    1
  2032  1018  1036    1
  2033  1140  1139   ar
  2034  1140  1141   ar
  2035  1077  1076    2
  2036    92    93    1
  2037    92    90    1
  2038    80    78   ar
  2039  1052  1055   ar
  2040  1052  1051   ar
  2041  1933  1934   ar
  2042   106    87    2
  2043    96    91    1
  2044    84    77   ar
  2045  1110  1112    1
  2046  1110  1108    1
  2047  1139  1138   ar
  2048  1020  1019    1
  2049  1141  1142   ar
  2050  1931  1929    1
  2051  1925  1927    1
  2052  1055  1056   ar
  2053    37    35   ar
  2054  1071  1073   ar
  2055    50    52    1
  2056    50    51    1
  2057  1076  1075   ar
  2058    52    53    1
  2059    52    54    1
  2060    34    35   ar
  2061  2018  2017   ar
  2062  2018  2020   ar
  2063  1113  1112    1
  2064    69    68    1
  2065  1960  1954   ar
  2066  1960  1959   ar
  2067    60    58   ar
  2068    57    58   ar
  2069    57    56    1
  2070  1050  1051   ar
  2071    51    56    1
  2072  1051  1057   ar
  2073  1021  1019    1
  2074  1021  1023    1
  2075  1112  1114    1
  2076    89    87    1
  2077    89    88    1
  2078  1025  1026    1
  2079  1025  1023    1
  2080  1982  1981    1
  2081  1138  1137   ar
  2082    35    36    1
  2083  2017  2023   ar
  2084    91    90    1
  2085  1142  1137   ar
  2086  1142  1143    1
  2087    78    77   ar
  2088    78    79    2
  2089  1962  1959   ar
  2090  1962  1963   ar
  2091  1954  1955   ar
  2092    77    76    1
  2093  1927  1929    1
  2094  1927  1928    1
  2095  1056  1057   ar
  2096  1106  1108    1
  2097  1106  1107    1
  2098    87   105    1
  2099    87    73    1
  2100  1108  1109    1
  2101  2020  2021   ar
  2102    90    88    1
  2103    58    59    2
  2104  1959  1958   ar
  2105  1073  1074   ar
  2106  1023  1024    1
  2107    56    54    1
  2108  1057  1047    1
  2109  1075  1074   ar
  2110  1075  1078   ar
  2111  2002  2001    1
  2112  1929  1930    1
  2113    54    55    1
  2114  1966  1944    2
  2115    72    74    1
  2116    72    73    1
  2117    72    70    1
  2118    68    70    1
  2119  1074  1080   ar
  2120  1981  1980   ar
  2121  1981  1983   ar
  2122  2000  2001   ar
  2123  2000  1998   ar
  2124  1963  1964   ar
  2125  1980  1978   ar
  2126  1928  1944    1
  2127  1114  1109    1
  2128  1114  1124    1
  2129    74    76    1
  2130    74    75    1
  2131    71    76    1
  2132    71    70    1
  2133  1117  1116   ar
  2134  1117  1118   ar
  2135  1047  1042    1
  2136  1047  1045    1
  2137  1955  1956    1
  2138  1955  1957   ar
  2139  2023  2024    2
  2140  2023  2022   ar
  2141  1078  1079   ar
  2142  1116  1115   ar
  2143  1107  1105    1
  2144  2001  2003   ar
  2145  1958  1964   ar
  2146  1958  1957   ar
  2147  2021  2022   ar
  2148  2021  2027   ar
  2149  1999  1998    2
  2150  1042  1041    1
  2151  1118  1124   ar
  2152  1118  1119   ar
  2153  1124  1123   ar
  2154  2015  2014    1
  2155  1944  1946    1
  2156  1944  1965    1
  2157  1024  1038    1
  2158  1125  1105    2
  2159  1998  1997   ar
  2160  1059  1038    2
  2161  1983  1984   ar
  2162  1115  1120   ar
  2163  1080  1079   ar
  2164  1080  1069    1
  2165  1964  1953    1
  2166  2022  2025   ar
  2167  1126  1105    1
  2168  1105  1089    1
  2169  1978  1979    2
  2170  1978  1977   ar
  2171  1119  1120   ar
  2172  1119  1122   ar
  2173  1123  1122   ar
  2174  2016  2014    1
  2175  2016  2027    1
  2176  2016  2011    1
  2177  2014  2012    1
  2178  1120  1121    1
  2179  2027  2026   ar
  2180  1946  1945    1
  2181  1045  1046    1
  2182  1045  1043    1
  2183  1038  1040    1
  2184  1038  1058    1
  2185  2003  2004   ar
  2186  1069  1064    1
  2187  1069  1067    1
  2188  1040  1039    1
  2189  1041  1039    1
  2190  1041  1043    1
  2191  1984  1977   ar
  2192  1997  2004   ar
  2193  1997  1996    1
  2194  1948  1953    1
  2195  1948  1947    1
  2196  1977  1976    1
  2197  1953  1951    1
  2198  1043  1044    1
  2199  1064  1063    1
  2200  2025  2026   ar
  2201  2011  2010    1
  2202  1945  1947    1
  2203  1089  1088    1
  2204  1067  1068    1
  2205  1067  1065    1
  2206  2012  2013    1
  2207  2012  2010    1
  2208  1996  1994    1
  2209  1996  1991    1
  2210  1947  1949    1
  2211  1091  1090    1
  2212  2010  2008    1
  2213  1951  1949    1
  2214  1951  1952    1
  2215  1090  1088    1
  2216  1090  1092    1
  2217  1949  1950    1
  2218  1088  1086    1
  2219  1976  1974    1
  2220  1976  1971    1
  2221  1094  1093   ar
  2222  1094  1095   ar
  2223  1994  1995    1
  2224  1994  1992    1
  2225  1093  1098   ar
  2226  1044  1060    1
  2227  1063  1065    1
  2228  1063  1061    1
  2229  1095  1096   ar
  2230  1065  1066    1
  2231  1991  1990    1
  2232  1082  1060    2
  2233  1098  1099    1
  2234  1098  1097   ar
  2235  1974  1972    1
  2236  1974  1975    1
  2237  1062  1061    1
  2238  1062  1060    1
  2239  1971  1970    1
  2240  1096  1097   ar
  2241  1096  1102   ar
  2242  1986  1967    2
  2243  1097  1100   ar
  2244  1060  1081    1
  2245  1950  1967    1
  2246  2008  2009    1
  2247  1092  1102    1
  2248  1092  1087    1
  2249  1969  1967    1
  2250  1969  1968    1
  2251  1102  1101   ar
  2252  2009  2007    1
  2253  1992  1990    1
  2254  1992  1993    1
  2255  1086  1084    1
  2256  1086  1087    1
  2257  1972  1970    1
  2258  1972  1973    1
  2259  1066  1083    1
  2260  1085  1084    1
  2261  1085  1083    1
  2262  1967  1985    1
  2263  1100  1101   ar
  2264  1970  1968    1
  2265  1990  1988    1
  2266  2006  1987    2
  2267  1989  1988    1
  2268  1989  1987    1
  2269  1993  2007    1
  2270  1083  1104    2
  2271  1083  1103    1
  2272  2029  2007    2
  2273  2007  2028    1
  2274  1973  1987    1
  2275  1987  2005    1
