ligand
  PyMOL2.3          3D                             0

 23 25  0  0  0  0  0  0  0  0999 V2000
   23.2820    0.2910   30.4030 P   0  0  0  0  0  0  0  0  0  0  0  0
   23.2940    1.7560   28.2330 C   0  0  0  0  0  0  0  0  0  0  0  0
   22.5290    1.1130   29.2430 O   0  0  0  0  0  0  0  0  0  0  0  0
   22.5830    3.0430   27.8800 C   0  0  0  0  0  0  0  0  0  0  0  0
   21.6660    2.8710   26.8000 O   0  0  0  0  0  0  0  0  0  0  0  0
   21.7960    3.5250   29.0870 C   0  0  0  0  0  0  0  0  0  0  0  0
   22.0660    4.9260   29.2670 O   0  0  0  0  0  0  0  0  0  0  0  0
   20.3350    3.2610   28.7450 C   0  0  0  0  0  0  0  0  0  0  0  0
   20.3220    3.1340   27.2240 C   0  0  0  0  0  0  0  0  0  0  0  0
   17.5940    0.9290   23.4520 N   0  0  0  0  0  0  0  0  0  0  0  0
   18.1990    2.1280   23.4430 C   0  0  0  0  0  0  0  0  0  0  0  0
   18.1100    2.8720   22.3160 N   0  0  0  0  0  0  0  0  0  0  0  0
   18.8840    2.5730   24.5240 N   0  0  0  0  0  0  0  0  0  0  0  0
   18.9600    1.8030   25.6290 C   0  0  0  0  0  0  0  0  0  0  0  0
   18.3430    0.5710   25.6550 C   0  0  0  0  0  0  0  0  0  0  0  0
   17.6570    0.1360   24.5370 C   0  0  0  0  0  0  0  0  0  0  0  0
   17.0960   -0.9810   24.5380 O   0  0  0  0  0  0  0  0  0  0  0  0
   18.5640    0.0180   26.8640 N   0  0  0  0  0  0  0  0  0  0  0  0
   19.3090    0.8860   27.5710 C   0  0  0  0  0  0  0  0  0  0  0  0
   19.5330    1.9670   26.8160 N   0  0  0  0  0  0  0  0  0  0  0  0
   24.1900    1.2640   31.1150 O   0  0  0  0  0  0  0  0  0  0  0  0
   22.1570   -0.2500   31.2550 O   0  5  0  0  0  0  0  0  0  0  0  0
   24.0230   -0.7670   29.6310 O   0  0  0  0  0  0  0  0  0  0  0  0
  1  3  1  0  0  0  0
  1 21  1  0  0  0  0
  1 22  1  0  0  0  0
  1 23  2  0  0  0  0
  2  4  1  0  0  0  0
  2  3  1  0  0  0  0
  4  5  1  0  0  0  0
  4  6  1  0  0  0  0
  5  9  1  0  0  0  0
  6  7  1  0  0  0  0
  6  8  1  0  0  0  0
  8  9  1  0  0  0  0
  9 20  1  0  0  0  0
 10 11  4  0  0  0  0
 11 12  1  0  0  0  0
 11 13  4  0  0  0  0
 13 14  4  0  0  0  0
 14 15  4  0  0  0  0
 15 16  4  0  0  0  0
 10 16  4  0  0  0  0
 16 17  2  0  0  0  0
 15 18  4  0  0  0  0
 18 19  4  0  0  0  0
 14 20  4  0  0  0  0
 19 20  4  0  0  0  0
M  END
$$$$
