ligand
 OpenBabel02271912143D
libRbt.so/2013.1/901 2013/11/27
 23 25  0  0  0  0  0  0  0  0999 V2000
   23.5382    0.6991   31.3336 P   0  0  1  0  0  0  0  0  0  0  0  0
   22.5771    1.3515   28.9871 C   0  0  0  0  0  0  0  0  0  0  0  0
   23.2760    1.7615   30.1543 O   0  0  0  0  0  0  0  0  0  0  0  0
   22.4312    2.5666   28.0991 C   0  0  1  0  0  0  0  0  0  0  0  0
   21.8017    2.2518   26.8575 O   0  0  0  0  0  0  0  0  0  0  0  0
   21.5732    3.6015   28.8072 C   0  0  1  0  0  0  0  0  0  0  0  0
   22.2304    4.8762   28.7008 O   0  0  0  0  0  0  0  0  0  0  0  0
   20.2363    3.5819   28.0769 C   0  0  0  0  0  0  0  0  0  0  0  0
   20.5552    2.9476   26.7257 C   0  0  2  0  0  0  0  0  0  0  0  0
   17.2291    1.2223   23.1914 N   0  0  0  0  0  0  0  0  0  0  0  0
   18.0225    2.3037   23.1222 C   0  0  2  0  0  0  0  0  0  0  0  0
   17.9757    3.0503   21.9944 N   0  0  0  0  0  0  0  0  0  0  0  0
   18.8495    2.6300   24.1446 N   0  0  0  0  0  0  0  0  0  0  0  0
   18.8775    1.8598   25.2518 C   0  0  2  0  0  0  0  0  0  0  0  0
   18.0681    0.7479   25.3392 C   0  0  1  0  0  0  0  0  0  0  0  0
   17.2390    0.4316   24.2798 C   0  0  0  0  0  0  0  0  0  0  0  0
   16.5019   -0.5763   24.3367 O   0  0  0  0  0  0  0  0  0  0  0  0
   18.2824    0.1677   26.5366 N   0  0  0  0  0  0  0  0  0  0  0  0
   19.2112    0.9004   27.1759 C   0  0  0  0  0  0  0  0  0  0  0  0
   19.5555    1.9278   26.3919 N   0  0  1  0  0  0  0  0  0  0  0  0
   24.3467    1.4071   32.3935 O   0  0  0  0  0  0  0  0  0  0  0  0
   22.1504    0.2945   31.7745 O   0  5  0  0  0  0  0  0  0  0  0  0
   24.2961   -0.3946   30.6310 O   0  0  0  0  0  0  0  0  0  0  0  0
  1  3  1  6  0  0  0
  1 21  1  0  0  0  0
  1 22  1  0  0  0  0
  1 23  2  0  0  0  0
  2  3  1  0  0  0  0
  4  2  1  1  0  0  0
  4  5  1  0  0  0  0
  4  6  1  0  0  0  0
  6  7  1  6  0  0  0
  6  8  1  0  0  0  0
  8  9  1  0  0  0  0
  9  5  1  1  0  0  0
  9 20  1  0  0  0  0
 10 11  1  0  0  0  0
 10 16  1  0  0  0  0
 11 12  1  6  0  0  0
 11 13  1  0  0  0  0
 14 13  1  1  0  0  0
 14 15  1  0  0  0  0
 14 20  1  0  0  0  0
 15 16  1  6  0  0  0
 15 18  1  0  0  0  0
 16 17  2  0  0  0  0
 18 19  1  0  0  0  0
 20 19  1  6  0  0  0
M  CHG  1  22  -1
M  END
>  <CHROM.1>
177.49265153,176.86432362,177.48197119,-115.54977351,20.66268959,1.65938084
27.49533620,0.42994546,0.80687461,2.60864275

>  <Name>
ligand

>  <RI>
416

>  <Rbt.Current_Directory>
/home/itssahil/PROJECTS/Mol_Feturizer/Test_systems_manuscript/rnas/3slm

>  <Rbt.Executable>
rbdock ($Id: //depot/dev/client3/rdock/2013.1/src/exe/rbdock.cxx#4 $)

>  <Rbt.Library>
libRbt.so (2013.1, Build901 2013/11/27)

>  <Rbt.Parameter_File>
/export/apps/rDock/src/rDock_2013.1_src/data/scripts/dock_solv.prm

>  <Rbt.Receptor>
prm/pocket_docking_2.prm

>  <SCORE>
-20.4328

>  <SCORE.INTER>
-15.3985

>  <SCORE.INTER.CONST>
1

>  <SCORE.INTER.POLAR>
0

>  <SCORE.INTER.ROT>
4

>  <SCORE.INTER.SOLV>
24.1132

>  <SCORE.INTER.VDW>
-24.5701

>  <SCORE.INTER.norm>
-0.669501

>  <SCORE.INTRA>
-5.07026

>  <SCORE.INTRA.DIHEDRAL>
-7.36328

>  <SCORE.INTRA.DIHEDRAL.0>
8.62657

>  <SCORE.INTRA.POLAR>
0

>  <SCORE.INTRA.POLAR.0>
0

>  <SCORE.INTRA.REPUL>
0

>  <SCORE.INTRA.REPUL.0>
0

>  <SCORE.INTRA.SOLV>
0.224794

>  <SCORE.INTRA.SOLV.lig_0>
-66.3641

>  <SCORE.INTRA.VDW>
-1.50101

>  <SCORE.INTRA.VDW.0>
0.452231

>  <SCORE.INTRA.norm>
-0.220446

>  <SCORE.RESTR>
0.0359694

>  <SCORE.RESTR.CAVITY>
0.0359694

>  <SCORE.RESTR.norm>
0.00156389

>  <SCORE.SYSTEM>
0

>  <SCORE.SYSTEM.CONST>
0

>  <SCORE.SYSTEM.DIHEDRAL>
0

>  <SCORE.SYSTEM.SOLV>
0

>  <SCORE.SYSTEM.norm>
0

>  <SCORE.heavy>
23

>  <SCORE.norm>
-0.888383

>  <RMSD>
0.730

$$$$
ligand
 OpenBabel02271912143D
libRbt.so/2013.1/901 2013/11/27
 23 25  0  0  0  0  0  0  0  0999 V2000
   23.6273    0.8208   31.4331 P   0  0  1  0  0  0  0  0  0  0  0  0
   22.7214    1.4047   29.0470 C   0  0  0  0  0  0  0  0  0  0  0  0
   23.3932    1.8485   30.2177 O   0  0  0  0  0  0  0  0  0  0  0  0
   22.5782    2.5983   28.1298 C   0  0  1  0  0  0  0  0  0  0  0  0
   21.9396    2.2569   26.9000 O   0  0  0  0  0  0  0  0  0  0  0  0
   21.7308    3.6560   28.8168 C   0  0  1  0  0  0  0  0  0  0  0  0
   22.3953    4.9234   28.6752 O   0  0  0  0  0  0  0  0  0  0  0  0
   20.3896    3.6269   28.0947 C   0  0  0  0  0  0  0  0  0  0  0  0
   20.6968    2.9573   26.7579 C   0  0  2  0  0  0  0  0  0  0  0  0
   17.3218    1.1811   23.2957 N   0  0  0  0  0  0  0  0  0  0  0  0
   18.1191    2.2573   23.1969 C   0  0  2  0  0  0  0  0  0  0  0  0
   18.0623    2.9829   22.0559 N   0  0  0  0  0  0  0  0  0  0  0  0
   18.9594    2.5990   24.2033 N   0  0  0  0  0  0  0  0  0  0  0  0
   18.9972    1.8496   25.3244 C   0  0  2  0  0  0  0  0  0  0  0  0
   18.1839    0.7433   25.4422 C   0  0  1  0  0  0  0  0  0  0  0  0
   17.3411    0.4109   24.3987 C   0  0  0  0  0  0  0  0  0  0  0  0
   16.6003   -0.5923   24.4832 O   0  0  0  0  0  0  0  0  0  0  0  0
   18.4098    0.1847   26.6478 N   0  0  0  0  0  0  0  0  0  0  0  0
   19.3492    0.9251   27.2623 C   0  0  0  0  0  0  0  0  0  0  0  0
   19.6888    1.9360   26.4550 N   0  0  1  0  0  0  0  0  0  0  0  0
   24.3895    1.5669   32.5011 O   0  0  0  0  0  0  0  0  0  0  0  0
   22.2301    0.4093   31.8364 O   0  5  0  0  0  0  0  0  0  0  0  0
   24.4228   -0.2807   30.7863 O   0  0  0  0  0  0  0  0  0  0  0  0
  1  3  1  6  0  0  0
  1 21  1  0  0  0  0
  1 22  1  0  0  0  0
  1 23  2  0  0  0  0
  2  3  1  0  0  0  0
  4  2  1  1  0  0  0
  4  5  1  0  0  0  0
  4  6  1  0  0  0  0
  6  7  1  6  0  0  0
  6  8  1  0  0  0  0
  8  9  1  0  0  0  0
  9  5  1  1  0  0  0
  9 20  1  0  0  0  0
 10 11  1  0  0  0  0
 10 16  1  0  0  0  0
 11 12  1  6  0  0  0
 11 13  1  0  0  0  0
 14 13  1  1  0  0  0
 14 15  1  0  0  0  0
 14 20  1  0  0  0  0
 15 16  1  6  0  0  0
 15 18  1  0  0  0  0
 16 17  2  0  0  0  0
 18 19  1  0  0  0  0
 20 19  1  6  0  0  0
M  CHG  1  22  -1
M  END
>  <CHROM.1>
178.49953890,178.62488524,176.63725253,-116.05159396,20.77909736,1.69552020
27.56882846,0.44440831,0.79951116,2.56811357

>  <Name>
ligand

>  <RI>
416

>  <Rbt.Current_Directory>
/home/itssahil/PROJECTS/Mol_Feturizer/Test_systems_manuscript/rnas/3slm

>  <Rbt.Executable>
rbdock ($Id: //depot/dev/client3/rdock/2013.1/src/exe/rbdock.cxx#4 $)

>  <Rbt.Library>
libRbt.so (2013.1, Build901 2013/11/27)

>  <Rbt.Parameter_File>
/export/apps/rDock/src/rDock_2013.1_src/data/scripts/dock_solv.prm

>  <Rbt.Receptor>
prm/pocket_docking_2.prm

>  <SCORE>
-20.6156

>  <SCORE.INTER>
-15.6569

>  <SCORE.INTER.CONST>
1

>  <SCORE.INTER.POLAR>
0

>  <SCORE.INTER.ROT>
4

>  <SCORE.INTER.SOLV>
24.1428

>  <SCORE.INTER.VDW>
-24.7522

>  <SCORE.INTER.norm>
-0.680734

>  <SCORE.INTRA>
-5.04589

>  <SCORE.INTRA.DIHEDRAL>
-7.37055

>  <SCORE.INTRA.DIHEDRAL.0>
8.62657

>  <SCORE.INTRA.POLAR>
0

>  <SCORE.INTRA.POLAR.0>
0

>  <SCORE.INTRA.REPUL>
0

>  <SCORE.INTRA.REPUL.0>
0

>  <SCORE.INTRA.SOLV>
0.244055

>  <SCORE.INTRA.SOLV.lig_0>
-66.3641

>  <SCORE.INTRA.VDW>
-1.48264

>  <SCORE.INTRA.VDW.0>
0.452231

>  <SCORE.INTRA.norm>
-0.219386

>  <SCORE.RESTR>
0.0871447

>  <SCORE.RESTR.CAVITY>
0.0871447

>  <SCORE.RESTR.norm>
0.0037889

>  <SCORE.SYSTEM>
0

>  <SCORE.SYSTEM.CONST>
0

>  <SCORE.SYSTEM.DIHEDRAL>
0

>  <SCORE.SYSTEM.SOLV>
0

>  <SCORE.SYSTEM.norm>
0

>  <SCORE.heavy>
23

>  <SCORE.norm>
-0.896331

>  <RMSD>
0.757

$$$$
ligand
 OpenBabel02271912143D
libRbt.so/2013.1/901 2013/11/27
 23 25  0  0  0  0  0  0  0  0999 V2000
   23.5637    0.9802   31.5364 P   0  0  1  0  0  0  0  0  0  0  0  0
   22.6298    1.5411   29.1555 C   0  0  0  0  0  0  0  0  0  0  0  0
   23.3292    1.9916   30.3073 O   0  0  0  0  0  0  0  0  0  0  0  0
   22.4814    2.7253   28.2268 C   0  0  1  0  0  0  0  0  0  0  0  0
   21.8781    2.3618   26.9856 O   0  0  0  0  0  0  0  0  0  0  0  0
   21.5961    3.7687   28.8871 C   0  0  1  0  0  0  0  0  0  0  0  0
   22.2360    5.0494   28.7513 O   0  0  0  0  0  0  0  0  0  0  0  0
   20.2723    3.7056   28.1355 C   0  0  0  0  0  0  0  0  0  0  0  0
   20.6239    3.0339   26.8108 C   0  0  2  0  0  0  0  0  0  0  0  0
   17.3180    1.1993   23.3126 N   0  0  0  0  0  0  0  0  0  0  0  0
   18.0869    2.2972   23.2281 C   0  0  2  0  0  0  0  0  0  0  0  0
   18.0175    3.0311   22.0931 N   0  0  0  0  0  0  0  0  0  0  0  0
   18.9119    2.6522   24.2426 N   0  0  0  0  0  0  0  0  0  0  0  0
   18.9629    1.8942   25.3572 C   0  0  2  0  0  0  0  0  0  0  0  0
   18.1788    0.7656   25.4604 C   0  0  1  0  0  0  0  0  0  0  0  0
   17.3514    0.4202   24.4089 C   0  0  0  0  0  0  0  0  0  0  0  0
   16.6371   -0.6031   24.4801 O   0  0  0  0  0  0  0  0  0  0  0  0
   18.4124    0.2025   26.6624 N   0  0  0  0  0  0  0  0  0  0  0  0
   19.3281    0.9622   27.2891 C   0  0  0  0  0  0  0  0  0  0  0  0
   19.6453    1.9889   26.4928 N   0  0  1  0  0  0  0  0  0  0  0  0
   24.4371    1.6969   32.5371 O   0  0  0  0  0  0  0  0  0  0  0  0
   22.1678    0.6779   32.0306 O   0  5  0  0  0  0  0  0  0  0  0  0
   24.2420   -0.1900   30.8769 O   0  0  0  0  0  0  0  0  0  0  0  0
  1  3  1  6  0  0  0
  1 21  1  0  0  0  0
  1 22  1  0  0  0  0
  1 23  2  0  0  0  0
  2  3  1  0  0  0  0
  4  2  1  1  0  0  0
  4  5  1  0  0  0  0
  4  6  1  0  0  0  0
  6  7  1  6  0  0  0
  6  8  1  0  0  0  0
  8  9  1  0  0  0  0
  9  5  1  1  0  0  0
  9 20  1  0  0  0  0
 10 11  1  0  0  0  0
 10 16  1  0  0  0  0
 11 12  1  6  0  0  0
 11 13  1  0  0  0  0
 14 13  1  1  0  0  0
 14 15  1  0  0  0  0
 14 20  1  0  0  0  0
 15 16  1  6  0  0  0
 15 18  1  0  0  0  0
 16 17  2  0  0  0  0
 18 19  1  0  0  0  0
 20 19  1  6  0  0  0
M  CHG  1  22  -1
M  END
>  <CHROM.1>
174.70836408,175.56675824,176.04453579,-117.38169605,20.72362064,1.78434544
27.62978606,0.41768914,0.82422593,2.59253850

>  <Name>
ligand

>  <RI>
416

>  <Rbt.Current_Directory>
/home/itssahil/PROJECTS/Mol_Feturizer/Test_systems_manuscript/rnas/3slm

>  <Rbt.Executable>
rbdock ($Id: //depot/dev/client3/rdock/2013.1/src/exe/rbdock.cxx#4 $)

>  <Rbt.Library>
libRbt.so (2013.1, Build901 2013/11/27)

>  <Rbt.Parameter_File>
/export/apps/rDock/src/rDock_2013.1_src/data/scripts/dock_solv.prm

>  <Rbt.Receptor>
prm/pocket_docking_2.prm

>  <SCORE>
-20.8572

>  <SCORE.INTER>
-15.9515

>  <SCORE.INTER.CONST>
1

>  <SCORE.INTER.POLAR>
0

>  <SCORE.INTER.ROT>
4

>  <SCORE.INTER.SOLV>
24.1697

>  <SCORE.INTER.VDW>
-24.9576

>  <SCORE.INTER.norm>
-0.693544

>  <SCORE.INTRA>
-5.03363

>  <SCORE.INTRA.DIHEDRAL>
-7.24632

>  <SCORE.INTRA.DIHEDRAL.0>
8.62657

>  <SCORE.INTRA.POLAR>
0

>  <SCORE.INTRA.POLAR.0>
0

>  <SCORE.INTRA.REPUL>
0

>  <SCORE.INTRA.REPUL.0>
0

>  <SCORE.INTRA.SOLV>
0.241929

>  <SCORE.INTRA.SOLV.lig_0>
-66.3641

>  <SCORE.INTRA.VDW>
-1.53143

>  <SCORE.INTRA.VDW.0>
0.452231

>  <SCORE.INTRA.norm>
-0.218853

>  <SCORE.RESTR>
0.12792

>  <SCORE.RESTR.CAVITY>
0.12792

>  <SCORE.RESTR.norm>
0.00556172

>  <SCORE.SYSTEM>
0

>  <SCORE.SYSTEM.CONST>
0

>  <SCORE.SYSTEM.DIHEDRAL>
0

>  <SCORE.SYSTEM.SOLV>
0

>  <SCORE.SYSTEM.norm>
0

>  <SCORE.heavy>
23

>  <SCORE.norm>
-0.906836

>  <RMSD>
0.800

$$$$
ligand
 OpenBabel02271912143D
libRbt.so/2013.1/901 2013/11/27
 23 25  0  0  0  0  0  0  0  0999 V2000
   22.7004    1.0877   30.7245 P   0  0  1  0  0  0  0  0  0  0  0  0
   23.1551    2.8482   28.8406 C   0  0  0  0  0  0  0  0  0  0  0  0
   22.1983    2.1156   29.5933 O   0  0  0  0  0  0  0  0  0  0  0  0
   22.4207    3.9804   28.1585 C   0  0  1  0  0  0  0  0  0  0  0  0
   21.7340    3.5453   26.9855 O   0  0  0  0  0  0  0  0  0  0  0  0
   21.3898    4.5543   29.1159 C   0  0  1  0  0  0  0  0  0  0  0  0
   21.5097    5.9872   29.0964 O   0  0  0  0  0  0  0  0  0  0  0  0
   20.0421    4.0834   28.5838 C   0  0  0  0  0  0  0  0  0  0  0  0
   20.3184    3.7228   27.1266 C   0  0  2  0  0  0  0  0  0  0  0  0
   17.7484    0.9808   23.6041 N   0  0  0  0  0  0  0  0  0  0  0  0
   18.1381    2.2639   23.5304 C   0  0  2  0  0  0  0  0  0  0  0  0
   17.8449    2.9492   22.4008 N   0  0  0  0  0  0  0  0  0  0  0  0
   18.8114    2.8492   24.5501 N   0  0  0  0  0  0  0  0  0  0  0  0
   19.0947    2.1354   25.6592 C   0  0  2  0  0  0  0  0  0  0  0  0
   18.7000    0.8183   25.7513 C   0  0  1  0  0  0  0  0  0  0  0  0
   18.0215    0.2415   24.6945 C   0  0  0  0  0  0  0  0  0  0  0  0
   17.6605   -0.9536   24.7556 O   0  0  0  0  0  0  0  0  0  0  0  0
   19.0962    0.3458   26.9496 N   0  0  0  0  0  0  0  0  0  0  0  0
   19.7301    1.3472   27.5850 C   0  0  0  0  0  0  0  0  0  0  0  0
   19.7131    2.4281   26.7976 N   0  0  1  0  0  0  0  0  0  0  0  0
   23.8590    1.7447   31.4347 O   0  0  0  0  0  0  0  0  0  0  0  0
   21.4796    0.8730   31.5893 O   0  5  0  0  0  0  0  0  0  0  0  0
   23.0964   -0.1212   29.9207 O   0  0  0  0  0  0  0  0  0  0  0  0
  1  3  1  6  0  0  0
  1 21  1  0  0  0  0
  1 22  1  0  0  0  0
  1 23  2  0  0  0  0
  2  3  1  0  0  0  0
  4  2  1  1  0  0  0
  4  5  1  0  0  0  0
  4  6  1  0  0  0  0
  6  7  1  6  0  0  0
  6  8  1  0  0  0  0
  8  9  1  0  0  0  0
  9  5  1  1  0  0  0
  9 20  1  0  0  0  0
 10 11  1  0  0  0  0
 10 16  1  0  0  0  0
 11 12  1  6  0  0  0
 11 13  1  0  0  0  0
 14 13  1  1  0  0  0
 14 15  1  0  0  0  0
 14 20  1  0  0  0  0
 15 16  1  6  0  0  0
 15 18  1  0  0  0  0
 16 17  2  0  0  0  0
 18 19  1  0  0  0  0
 20 19  1  6  0  0  0
M  CHG  1  22  -1
M  END
>  <CHROM.1>
40.22273782,-79.71801517,-164.41191453,-103.89922521,20.57598977,2.10809176
27.57146737,0.14210584,0.93204505,2.86239420

>  <Name>
ligand

>  <RI>
416

>  <Rbt.Current_Directory>
/home/itssahil/PROJECTS/Mol_Feturizer/Test_systems_manuscript/rnas/3slm

>  <Rbt.Executable>
rbdock ($Id: //depot/dev/client3/rdock/2013.1/src/exe/rbdock.cxx#4 $)

>  <Rbt.Library>
libRbt.so (2013.1, Build901 2013/11/27)

>  <Rbt.Parameter_File>
/export/apps/rDock/src/rDock_2013.1_src/data/scripts/dock_solv.prm

>  <Rbt.Receptor>
prm/pocket_docking_2.prm

>  <SCORE>
-17.9793

>  <SCORE.INTER>
-14.4711

>  <SCORE.INTER.CONST>
1

>  <SCORE.INTER.POLAR>
0

>  <SCORE.INTER.ROT>
4

>  <SCORE.INTER.SOLV>
24.2103

>  <SCORE.INTER.VDW>
-23.9842

>  <SCORE.INTER.norm>
-0.62918

>  <SCORE.INTRA>
-3.50974

>  <SCORE.INTRA.DIHEDRAL>
-4.49076

>  <SCORE.INTRA.DIHEDRAL.0>
8.62657

>  <SCORE.INTRA.POLAR>
0

>  <SCORE.INTRA.POLAR.0>
0

>  <SCORE.INTRA.REPUL>
0

>  <SCORE.INTRA.REPUL.0>
0

>  <SCORE.INTRA.SOLV>
-0.302519

>  <SCORE.INTRA.SOLV.lig_0>
-66.3641

>  <SCORE.INTRA.VDW>
-1.1131

>  <SCORE.INTRA.VDW.0>
0.452231

>  <SCORE.INTRA.norm>
-0.152597

>  <SCORE.RESTR>
0.00155511

>  <SCORE.RESTR.CAVITY>
0.00155511

>  <SCORE.RESTR.norm>
6.76134e-05

>  <SCORE.SYSTEM>
0

>  <SCORE.SYSTEM.CONST>
0

>  <SCORE.SYSTEM.DIHEDRAL>
0

>  <SCORE.SYSTEM.SOLV>
0

>  <SCORE.SYSTEM.norm>
0

>  <SCORE.heavy>
23

>  <SCORE.norm>
-0.78171

>  <RMSD>
0.807

$$$$
ligand
 OpenBabel02271912143D
libRbt.so/2013.1/901 2013/11/27
 23 25  0  0  0  0  0  0  0  0999 V2000
   23.5739    0.5005   31.2858 P   0  0  1  0  0  0  0  0  0  0  0  0
   22.0901    2.2605   30.0384 C   0  0  0  0  0  0  0  0  0  0  0  0
   23.1722    1.3419   29.9747 O   0  0  0  0  0  0  0  0  0  0  0  0
   22.2190    3.1913   28.8537 C   0  0  1  0  0  0  0  0  0  0  0  0
   21.8787    2.5481   27.6260 O   0  0  0  0  0  0  0  0  0  0  0  0
   21.2764    4.3684   29.0397 C   0  0  1  0  0  0  0  0  0  0  0  0
   22.0071    5.5753   28.7611 O   0  0  0  0  0  0  0  0  0  0  0  0
   20.1461    4.1387   28.0443 C   0  0  0  0  0  0  0  0  0  0  0  0
   20.7356    3.1690   27.0235 C   0  0  2  0  0  0  0  0  0  0  0  0
   17.5785    1.0512   23.5478 N   0  0  0  0  0  0  0  0  0  0  0  0
   18.3285    2.1577   23.4181 C   0  0  2  0  0  0  0  0  0  0  0  0
   18.2814    2.8180   22.2377 N   0  0  0  0  0  0  0  0  0  0  0  0
   19.1138    2.5923   24.4331 N   0  0  0  0  0  0  0  0  0  0  0  0
   19.1438    1.9063   25.5942 C   0  0  2  0  0  0  0  0  0  0  0  0
   18.3786    0.7701   25.7440 C   0  0  1  0  0  0  0  0  0  0  0  0
   17.5918    0.3426   24.6914 C   0  0  0  0  0  0  0  0  0  0  0  0
   16.8953   -0.6891   24.8048 O   0  0  0  0  0  0  0  0  0  0  0  0
   18.5844    0.2879   26.9856 N   0  0  0  0  0  0  0  0  0  0  0  0
   19.4650    1.1042   27.5911 C   0  0  0  0  0  0  0  0  0  0  0  0
   19.7877    2.0858   26.7420 N   0  0  1  0  0  0  0  0  0  0  0  0
   24.1471    1.4804   32.2805 O   0  0  0  0  0  0  0  0  0  0  0  0
   22.2756   -0.1405   31.7191 O   0  5  0  0  0  0  0  0  0  0  0  0
   24.5868   -0.4770   30.7540 O   0  0  0  0  0  0  0  0  0  0  0  0
  1  3  1  6  0  0  0
  1 21  1  0  0  0  0
  1 22  1  0  0  0  0
  1 23  2  0  0  0  0
  2  3  1  0  0  0  0
  4  2  1  1  0  0  0
  4  5  1  0  0  0  0
  4  6  1  0  0  0  0
  6  7  1  6  0  0  0
  6  8  1  0  0  0  0
  8  9  1  0  0  0  0
  9  5  1  1  0  0  0
  9 20  1  0  0  0  0
 10 11  1  0  0  0  0
 10 16  1  0  0  0  0
 11 12  1  6  0  0  0
 11 13  1  0  0  0  0
 14 13  1  1  0  0  0
 14 15  1  0  0  0  0
 14 20  1  0  0  0  0
 15 16  1  6  0  0  0
 15 18  1  0  0  0  0
 16 17  2  0  0  0  0
 18 19  1  0  0  0  0
 20 19  1  6  0  0  0
M  CHG  1  22  -1
M  END
>  <CHROM.1>
-68.60230339,72.87524866,162.47699075,-132.68889412,20.75890979,1.75897462
27.76807853,0.26707430,0.87393877,2.83550279

>  <Name>
ligand

>  <RI>
416

>  <Rbt.Current_Directory>
/home/itssahil/PROJECTS/Mol_Feturizer/Test_systems_manuscript/rnas/3slm

>  <Rbt.Executable>
rbdock ($Id: //depot/dev/client3/rdock/2013.1/src/exe/rbdock.cxx#4 $)

>  <Rbt.Library>
libRbt.so (2013.1, Build901 2013/11/27)

>  <Rbt.Parameter_File>
/export/apps/rDock/src/rDock_2013.1_src/data/scripts/dock_solv.prm

>  <Rbt.Receptor>
prm/pocket_docking_2.prm

>  <SCORE>
-20.6819

>  <SCORE.INTER>
-15.7568

>  <SCORE.INTER.CONST>
1

>  <SCORE.INTER.POLAR>
0

>  <SCORE.INTER.ROT>
4

>  <SCORE.INTER.SOLV>
24.675

>  <SCORE.INTER.VDW>
-24.9962

>  <SCORE.INTER.norm>
-0.685079

>  <SCORE.INTRA>
-4.92513

>  <SCORE.INTRA.DIHEDRAL>
-5.28979

>  <SCORE.INTRA.DIHEDRAL.0>
8.62657

>  <SCORE.INTRA.POLAR>
0

>  <SCORE.INTRA.POLAR.0>
0

>  <SCORE.INTRA.REPUL>
0

>  <SCORE.INTRA.REPUL.0>
0

>  <SCORE.INTRA.SOLV>
-0.744576

>  <SCORE.INTRA.SOLV.lig_0>
-66.3641

>  <SCORE.INTRA.VDW>
-1.90794

>  <SCORE.INTRA.VDW.0>
0.452231

>  <SCORE.INTRA.norm>
-0.214136

>  <SCORE.RESTR>
0

>  <SCORE.RESTR.CAVITY>
0

>  <SCORE.RESTR.norm>
0

>  <SCORE.SYSTEM>
0

>  <SCORE.SYSTEM.CONST>
0

>  <SCORE.SYSTEM.DIHEDRAL>
0

>  <SCORE.SYSTEM.SOLV>
0

>  <SCORE.SYSTEM.norm>
0

>  <SCORE.heavy>
23

>  <SCORE.norm>
-0.899215

>  <RMSD>
0.835

$$$$
ligand
 OpenBabel02271912143D
libRbt.so/2013.1/901 2013/11/27
 23 25  0  0  0  0  0  0  0  0999 V2000
   23.5280    0.4758   31.3010 P   0  0  1  0  0  0  0  0  0  0  0  0
   22.0649    2.2632   30.0683 C   0  0  0  0  0  0  0  0  0  0  0  0
   23.0824    1.2757   29.9782 O   0  0  0  0  0  0  0  0  0  0  0  0
   22.2188    3.1790   28.8749 C   0  0  1  0  0  0  0  0  0  0  0  0
   21.8829    2.5267   27.6507 O   0  0  0  0  0  0  0  0  0  0  0  0
   21.2901    4.3705   29.0378 C   0  0  1  0  0  0  0  0  0  0  0  0
   22.0399    5.5644   28.7539 O   0  0  0  0  0  0  0  0  0  0  0  0
   20.1675    4.1447   28.0329 C   0  0  0  0  0  0  0  0  0  0  0  0
   20.7547    3.1560   27.0292 C   0  0  2  0  0  0  0  0  0  0  0  0
   17.5742    1.0671   23.5575 N   0  0  0  0  0  0  0  0  0  0  0  0
   18.3357    2.1655   23.4261 C   0  0  2  0  0  0  0  0  0  0  0  0
   18.2949    2.8248   22.2449 N   0  0  0  0  0  0  0  0  0  0  0  0
   19.1259    2.5932   24.4402 N   0  0  0  0  0  0  0  0  0  0  0  0
   19.1492    1.9083   25.6022 C   0  0  2  0  0  0  0  0  0  0  0  0
   18.3722    0.7803   25.7537 C   0  0  1  0  0  0  0  0  0  0  0  0
   17.5805    0.3598   24.7020 C   0  0  0  0  0  0  0  0  0  0  0  0
   16.8734   -0.6645   24.8169 O   0  0  0  0  0  0  0  0  0  0  0  0
   18.5735    0.2975   26.9958 N   0  0  0  0  0  0  0  0  0  0  0  0
   19.4628    1.1053   27.5999 C   0  0  0  0  0  0  0  0  0  0  0  0
   19.7955    2.0825   26.7494 N   0  0  1  0  0  0  0  0  0  0  0  0
   24.1413    1.4848   32.2412 O   0  0  0  0  0  0  0  0  0  0  0  0
   22.2436   -0.1434   31.8021 O   0  5  0  0  0  0  0  0  0  0  0  0
   24.5167   -0.5243   30.7655 O   0  0  0  0  0  0  0  0  0  0  0  0
  1  3  1  6  0  0  0
  1 21  1  0  0  0  0
  1 22  1  0  0  0  0
  1 23  2  0  0  0  0
  2  3  1  0  0  0  0
  4  2  1  1  0  0  0
  4  5  1  0  0  0  0
  4  6  1  0  0  0  0
  6  7  1  6  0  0  0
  6  8  1  0  0  0  0
  8  9  1  0  0  0  0
  9  5  1  1  0  0  0
  9 20  1  0  0  0  0
 10 11  1  0  0  0  0
 10 16  1  0  0  0  0
 11 12  1  6  0  0  0
 11 13  1  0  0  0  0
 14 13  1  1  0  0  0
 14 15  1  0  0  0  0
 14 20  1  0  0  0  0
 15 16  1  6  0  0  0
 15 18  1  0  0  0  0
 16 17  2  0  0  0  0
 18 19  1  0  0  0  0
 20 19  1  6  0  0  0
M  CHG  1  22  -1
M  END
>  <CHROM.1>
-64.62099078,69.09130223,158.87773001,-133.55500269,20.74771873,1.75315442
27.77863371,0.28538863,0.87411323,2.81776890

>  <Name>
ligand

>  <RI>
416

>  <Rbt.Current_Directory>
/home/itssahil/PROJECTS/Mol_Feturizer/Test_systems_manuscript/rnas/3slm

>  <Rbt.Executable>
rbdock ($Id: //depot/dev/client3/rdock/2013.1/src/exe/rbdock.cxx#4 $)

>  <Rbt.Library>
libRbt.so (2013.1, Build901 2013/11/27)

>  <Rbt.Parameter_File>
/export/apps/rDock/src/rDock_2013.1_src/data/scripts/dock_solv.prm

>  <Rbt.Receptor>
prm/pocket_docking_2.prm

>  <SCORE>
-20.6924

>  <SCORE.INTER>
-15.8432

>  <SCORE.INTER.CONST>
1

>  <SCORE.INTER.POLAR>
0

>  <SCORE.INTER.ROT>
4

>  <SCORE.INTER.SOLV>
24.8294

>  <SCORE.INTER.VDW>
-25.1053

>  <SCORE.INTER.norm>
-0.688834

>  <SCORE.INTRA>
-4.84919

>  <SCORE.INTRA.DIHEDRAL>
-5.0762

>  <SCORE.INTRA.DIHEDRAL.0>
8.62657

>  <SCORE.INTRA.POLAR>
0

>  <SCORE.INTRA.POLAR.0>
0

>  <SCORE.INTRA.REPUL>
0

>  <SCORE.INTRA.REPUL.0>
0

>  <SCORE.INTRA.SOLV>
-0.769414

>  <SCORE.INTRA.SOLV.lig_0>
-66.3641

>  <SCORE.INTRA.VDW>
-1.92638

>  <SCORE.INTRA.VDW.0>
0.452231

>  <SCORE.INTRA.norm>
-0.210834

>  <SCORE.RESTR>
0

>  <SCORE.RESTR.CAVITY>
0

>  <SCORE.RESTR.norm>
0

>  <SCORE.SYSTEM>
0

>  <SCORE.SYSTEM.CONST>
0

>  <SCORE.SYSTEM.DIHEDRAL>
0

>  <SCORE.SYSTEM.SOLV>
0

>  <SCORE.SYSTEM.norm>
0

>  <SCORE.heavy>
23

>  <SCORE.norm>
-0.899668

>  <RMSD>
0.839

$$$$
ligand
 OpenBabel02271912143D
libRbt.so/2013.1/901 2013/11/27
 23 25  0  0  0  0  0  0  0  0999 V2000
   23.5484    0.5038   31.3183 P   0  0  1  0  0  0  0  0  0  0  0  0
   22.1570    2.3200   30.0451 C   0  0  0  0  0  0  0  0  0  0  0  0
   23.1620    1.3174   29.9852 O   0  0  0  0  0  0  0  0  0  0  0  0
   22.3275    3.2020   28.8288 C   0  0  1  0  0  0  0  0  0  0  0  0
   21.9647    2.5299   27.6231 O   0  0  0  0  0  0  0  0  0  0  0  0
   21.4334    4.4225   28.9688 C   0  0  1  0  0  0  0  0  0  0  0  0
   22.2138    5.5878   28.6508 O   0  0  0  0  0  0  0  0  0  0  0  0
   20.2976    4.2038   27.9772 C   0  0  0  0  0  0  0  0  0  0  0  0
   20.8498    3.1751   26.9940 C   0  0  2  0  0  0  0  0  0  0  0  0
   17.5446    1.1276   23.6152 N   0  0  0  0  0  0  0  0  0  0  0  0
   18.3292    2.2059   23.4553 C   0  0  2  0  0  0  0  0  0  0  0  0
   18.2783    2.8536   22.2681 N   0  0  0  0  0  0  0  0  0  0  0  0
   19.1515    2.6249   24.4473 N   0  0  0  0  0  0  0  0  0  0  0  0
   19.1839    1.9518   25.6159 C   0  0  2  0  0  0  0  0  0  0  0  0
   18.3836    0.8446   25.7966 C   0  0  1  0  0  0  0  0  0  0  0  0
   17.5592    0.4324   24.7670 C   0  0  0  0  0  0  0  0  0  0  0  0
   16.8303   -0.5732   24.9085 O   0  0  0  0  0  0  0  0  0  0  0  0
   18.6005    0.3701   27.0392 N   0  0  0  0  0  0  0  0  0  0  0  0
   19.5219    1.1624   27.6150 C   0  0  0  0  0  0  0  0  0  0  0  0
   19.8592    2.1223   26.7469 N   0  0  1  0  0  0  0  0  0  0  0  0
   24.1486    1.4973   32.2831 O   0  0  0  0  0  0  0  0  0  0  0  0
   22.2367   -0.0933   31.7736 O   0  5  0  0  0  0  0  0  0  0  0  0
   24.5356   -0.5123   30.8112 O   0  0  0  0  0  0  0  0  0  0  0  0
  1  3  1  6  0  0  0
  1 21  1  0  0  0  0
  1 22  1  0  0  0  0
  1 23  2  0  0  0  0
  2  3  1  0  0  0  0
  4  2  1  1  0  0  0
  4  5  1  0  0  0  0
  4  6  1  0  0  0  0
  6  7  1  6  0  0  0
  6  8  1  0  0  0  0
  8  9  1  0  0  0  0
  9  5  1  1  0  0  0
  9 20  1  0  0  0  0
 10 11  1  0  0  0  0
 10 16  1  0  0  0  0
 11 12  1  6  0  0  0
 11 13  1  0  0  0  0
 14 13  1  1  0  0  0
 14 15  1  0  0  0  0
 14 20  1  0  0  0  0
 15 16  1  6  0  0  0
 15 18  1  0  0  0  0
 16 17  2  0  0  0  0
 18 19  1  0  0  0  0
 20 19  1  6  0  0  0
M  CHG  1  22  -1
M  END
>  <CHROM.1>
-64.84914993,70.15625021,161.43180193,-134.72504239,20.79230040,1.79452858
27.78364395,0.32938783,0.85471595,2.76257241

>  <Name>
ligand

>  <RI>
416

>  <Rbt.Current_Directory>
/home/itssahil/PROJECTS/Mol_Feturizer/Test_systems_manuscript/rnas/3slm

>  <Rbt.Executable>
rbdock ($Id: //depot/dev/client3/rdock/2013.1/src/exe/rbdock.cxx#4 $)

>  <Rbt.Library>
libRbt.so (2013.1, Build901 2013/11/27)

>  <Rbt.Parameter_File>
/export/apps/rDock/src/rDock_2013.1_src/data/scripts/dock_solv.prm

>  <Rbt.Receptor>
prm/pocket_docking_2.prm

>  <SCORE>
-20.7267

>  <SCORE.INTER>
-15.7141

>  <SCORE.INTER.CONST>
1

>  <SCORE.INTER.POLAR>
0

>  <SCORE.INTER.ROT>
4

>  <SCORE.INTER.SOLV>
24.9379

>  <SCORE.INTER.VDW>
-25.0553

>  <SCORE.INTER.norm>
-0.68322

>  <SCORE.INTRA>
-5.01266

>  <SCORE.INTRA.DIHEDRAL>
-5.41398

>  <SCORE.INTRA.DIHEDRAL.0>
8.62657

>  <SCORE.INTRA.POLAR>
0

>  <SCORE.INTRA.POLAR.0>
0

>  <SCORE.INTRA.REPUL>
0

>  <SCORE.INTRA.REPUL.0>
0

>  <SCORE.INTRA.SOLV>
-0.768255

>  <SCORE.INTRA.SOLV.lig_0>
-66.3641

>  <SCORE.INTRA.VDW>
-1.92154

>  <SCORE.INTRA.VDW.0>
0.452231

>  <SCORE.INTRA.norm>
-0.217942

>  <SCORE.RESTR>
0

>  <SCORE.RESTR.CAVITY>
0

>  <SCORE.RESTR.norm>
0

>  <SCORE.SYSTEM>
0

>  <SCORE.SYSTEM.CONST>
0

>  <SCORE.SYSTEM.DIHEDRAL>
0

>  <SCORE.SYSTEM.SOLV>
0

>  <SCORE.SYSTEM.norm>
0

>  <SCORE.heavy>
23

>  <SCORE.norm>
-0.901162

>  <RMSD>
0.862

$$$$
ligand
 OpenBabel02271912143D
libRbt.so/2013.1/901 2013/11/27
 23 25  0  0  0  0  0  0  0  0999 V2000
   23.8775    0.5753   30.7374 P   0  0  1  0  0  0  0  0  0  0  0  0
   22.8741    1.4820   28.4954 C   0  0  0  0  0  0  0  0  0  0  0  0
   23.4182    1.7791   29.7739 O   0  0  0  0  0  0  0  0  0  0  0  0
   22.4407    2.7910   27.8750 C   0  0  1  0  0  0  0  0  0  0  0  0
   21.6660    2.5943   26.6926 O   0  0  0  0  0  0  0  0  0  0  0  0
   21.5849    3.5555   28.8708 C   0  0  1  0  0  0  0  0  0  0  0  0
   22.0547    4.9140   28.9145 O   0  0  0  0  0  0  0  0  0  0  0  0
   20.1618    3.4570   28.3358 C   0  0  0  0  0  0  0  0  0  0  0  0
   20.3382    3.1084   26.8603 C   0  0  2  0  0  0  0  0  0  0  0  0
   17.2951    1.1683   23.1850 N   0  0  0  0  0  0  0  0  0  0  0  0
   18.0078    2.3061   23.1534 C   0  0  2  0  0  0  0  0  0  0  0  0
   17.9509    3.0561   22.0283 N   0  0  0  0  0  0  0  0  0  0  0  0
   18.7663    2.6850   24.2103 N   0  0  0  0  0  0  0  0  0  0  0  0
   18.8071    1.9104   25.3139 C   0  0  2  0  0  0  0  0  0  0  0  0
   18.0800    0.7407   25.3630 C   0  0  1  0  0  0  0  0  0  0  0  0
   17.3202    0.3720   24.2692 C   0  0  0  0  0  0  0  0  0  0  0  0
   16.6586   -0.6883   24.2912 O   0  0  0  0  0  0  0  0  0  0  0  0
   18.2886    0.1687   26.5654 N   0  0  0  0  0  0  0  0  0  0  0  0
   19.1336    0.9635   27.2455 C   0  0  0  0  0  0  0  0  0  0  0  0
   19.4316    2.0197   26.4811 N   0  0  1  0  0  0  0  0  0  0  0  0
   22.6765   -0.3183   30.9303 O   0  0  0  0  0  0  0  0  0  0  0  0
   25.0225   -0.0710   29.9922 O   0  5  0  0  0  0  0  0  0  0  0  0
   24.2970    1.2960   31.9900 O   0  0  0  0  0  0  0  0  0  0  0  0
  1  3  1  6  0  0  0
  1 21  1  0  0  0  0
  1 22  1  0  0  0  0
  1 23  2  0  0  0  0
  2  3  1  0  0  0  0
  4  2  1  1  0  0  0
  4  5  1  0  0  0  0
  4  6  1  0  0  0  0
  6  7  1  6  0  0  0
  6  8  1  0  0  0  0
  8  9  1  0  0  0  0
  9  5  1  1  0  0  0
  9 20  1  0  0  0  0
 10 11  1  0  0  0  0
 10 16  1  0  0  0  0
 11 12  1  6  0  0  0
 11 13  1  0  0  0  0
 14 13  1  1  0  0  0
 14 15  1  0  0  0  0
 14 20  1  0  0  0  0
 15 16  1  6  0  0  0
 15 18  1  0  0  0  0
 16 17  2  0  0  0  0
 18 19  1  0  0  0  0
 20 19  1  6  0  0  0
M  CHG  1  22  -1
M  END
>  <CHROM.1>
-56.68769875,-169.64301431,175.65579384,-100.53924666,20.74221697,1.66178972
27.33890473,0.26440554,0.79455686,2.81660394

>  <Name>
ligand

>  <RI>
416

>  <Rbt.Current_Directory>
/home/itssahil/PROJECTS/Mol_Feturizer/Test_systems_manuscript/rnas/3slm

>  <Rbt.Executable>
rbdock ($Id: //depot/dev/client3/rdock/2013.1/src/exe/rbdock.cxx#4 $)

>  <Rbt.Library>
libRbt.so (2013.1, Build901 2013/11/27)

>  <Rbt.Parameter_File>
/export/apps/rDock/src/rDock_2013.1_src/data/scripts/dock_solv.prm

>  <Rbt.Receptor>
prm/pocket_docking_2.prm

>  <SCORE>
-19.5817

>  <SCORE.INTER>
-14.8164

>  <SCORE.INTER.CONST>
1

>  <SCORE.INTER.POLAR>
0

>  <SCORE.INTER.ROT>
4

>  <SCORE.INTER.SOLV>
24.296

>  <SCORE.INTER.VDW>
-24.243

>  <SCORE.INTER.norm>
-0.644193

>  <SCORE.INTRA>
-4.79312

>  <SCORE.INTRA.DIHEDRAL>
-6.976

>  <SCORE.INTRA.DIHEDRAL.0>
8.62657

>  <SCORE.INTRA.POLAR>
0

>  <SCORE.INTRA.POLAR.0>
0

>  <SCORE.INTRA.REPUL>
0

>  <SCORE.INTRA.REPUL.0>
0

>  <SCORE.INTRA.SOLV>
-0.504502

>  <SCORE.INTRA.SOLV.lig_0>
-66.3641

>  <SCORE.INTRA.VDW>
-1.05287

>  <SCORE.INTRA.VDW.0>
0.452231

>  <SCORE.INTRA.norm>
-0.208397

>  <SCORE.RESTR>
0.0278711

>  <SCORE.RESTR.CAVITY>
0.0278711

>  <SCORE.RESTR.norm>
0.00121179

>  <SCORE.SYSTEM>
0

>  <SCORE.SYSTEM.CONST>
0

>  <SCORE.SYSTEM.DIHEDRAL>
0

>  <SCORE.SYSTEM.SOLV>
0

>  <SCORE.SYSTEM.norm>
0

>  <SCORE.heavy>
23

>  <SCORE.norm>
-0.851378

>  <RMSD>
0.912

$$$$
ligand
 OpenBabel02271912143D
libRbt.so/2013.1/901 2013/11/27
 23 25  0  0  0  0  0  0  0  0999 V2000
   23.9485    0.6404   30.2518 P   0  0  1  0  0  0  0  0  0  0  0  0
   21.6278    1.8433   30.1004 C   0  0  0  0  0  0  0  0  0  0  0  0
   22.3816    0.6579   29.8873 O   0  0  0  0  0  0  0  0  0  0  0  0
   21.9066    2.7695   28.9381 C   0  0  1  0  0  0  0  0  0  0  0  0
   21.6271    2.1532   27.6815 O   0  0  0  0  0  0  0  0  0  0  0  0
   21.0248    4.0009   29.0593 C   0  0  1  0  0  0  0  0  0  0  0  0
   21.8468    5.1623   28.8504 O   0  0  0  0  0  0  0  0  0  0  0  0
   19.9657    3.8444   27.9753 C   0  0  0  0  0  0  0  0  0  0  0  0
   20.5751    2.8449   26.9958 C   0  0  2  0  0  0  0  0  0  0  0  0
   17.3658    1.1126   23.3583 N   0  0  0  0  0  0  0  0  0  0  0  0
   18.1579    2.1963   23.3146 C   0  0  2  0  0  0  0  0  0  0  0  0
   18.1442    2.9436   22.1864 N   0  0  0  0  0  0  0  0  0  0  0  0
   18.9516    2.5242   24.3626 N   0  0  0  0  0  0  0  0  0  0  0  0
   18.9473    1.7533   25.4696 C   0  0  2  0  0  0  0  0  0  0  0  0
   18.1387    0.6391   25.5311 C   0  0  1  0  0  0  0  0  0  0  0  0
   17.3441    0.3212   24.4461 C   0  0  0  0  0  0  0  0  0  0  0  0
   16.6084   -0.6888   24.4793 O   0  0  0  0  0  0  0  0  0  0  0  0
   18.3173    0.0586   26.7342 N   0  0  0  0  0  0  0  0  0  0  0  0
   19.2235    0.7936   27.4026 C   0  0  0  0  0  0  0  0  0  0  0  0
   19.5892    1.8225   26.6303 N   0  0  1  0  0  0  0  0  0  0  0  0
   24.3655    2.0737   30.4752 O   0  0  0  0  0  0  0  0  0  0  0  0
   24.0260   -0.2309   31.4843 O   0  5  0  0  0  0  0  0  0  0  0  0
   24.5658    0.0192   29.0281 O   0  0  0  0  0  0  0  0  0  0  0  0
  1  3  1  6  0  0  0
  1 21  1  0  0  0  0
  1 22  1  0  0  0  0
  1 23  2  0  0  0  0
  2  3  1  0  0  0  0
  4  2  1  1  0  0  0
  4  5  1  0  0  0  0
  4  6  1  0  0  0  0
  6  7  1  6  0  0  0
  6  8  1  0  0  0  0
  8  9  1  0  0  0  0
  9  5  1  1  0  0  0
  9 20  1  0  0  0  0
 10 11  1  0  0  0  0
 10 16  1  0  0  0  0
 11 12  1  6  0  0  0
 11 13  1  0  0  0  0
 14 13  1  1  0  0  0
 14 15  1  0  0  0  0
 14 20  1  0  0  0  0
 15 16  1  6  0  0  0
 15 18  1  0  0  0  0
 16 17  2  0  0  0  0
 18 19  1  0  0  0  0
 20 19  1  6  0  0  0
M  CHG  1  22  -1
M  END
>  <CHROM.1>
-12.91364833,55.53746988,79.93369283,-138.57446775,20.68138406,1.64082314
27.42816581,0.07835528,0.81005115,3.03994211

>  <Name>
ligand

>  <RI>
416

>  <Rbt.Current_Directory>
/home/itssahil/PROJECTS/Mol_Feturizer/Test_systems_manuscript/rnas/3slm

>  <Rbt.Executable>
rbdock ($Id: //depot/dev/client3/rdock/2013.1/src/exe/rbdock.cxx#4 $)

>  <Rbt.Library>
libRbt.so (2013.1, Build901 2013/11/27)

>  <Rbt.Parameter_File>
/export/apps/rDock/src/rDock_2013.1_src/data/scripts/dock_solv.prm

>  <Rbt.Receptor>
prm/pocket_docking_2.prm

>  <SCORE>
-18.9195

>  <SCORE.INTER>
-15.7059

>  <SCORE.INTER.CONST>
1

>  <SCORE.INTER.POLAR>
0

>  <SCORE.INTER.ROT>
4

>  <SCORE.INTER.SOLV>
22.032

>  <SCORE.INTER.VDW>
-24.0812

>  <SCORE.INTER.norm>
-0.682864

>  <SCORE.INTRA>
-3.21406

>  <SCORE.INTRA.DIHEDRAL>
-3.35976

>  <SCORE.INTRA.DIHEDRAL.0>
8.62657

>  <SCORE.INTRA.POLAR>
0

>  <SCORE.INTRA.POLAR.0>
0

>  <SCORE.INTRA.REPUL>
0

>  <SCORE.INTRA.REPUL.0>
0

>  <SCORE.INTRA.SOLV>
0.31533

>  <SCORE.INTRA.SOLV.lig_0>
-66.3641

>  <SCORE.INTRA.VDW>
-1.69184

>  <SCORE.INTRA.VDW.0>
0.452231

>  <SCORE.INTRA.norm>
-0.139742

>  <SCORE.RESTR>
0.000387646

>  <SCORE.RESTR.CAVITY>
0.000387646

>  <SCORE.RESTR.norm>
1.68542e-05

>  <SCORE.SYSTEM>
0

>  <SCORE.SYSTEM.CONST>
0

>  <SCORE.SYSTEM.DIHEDRAL>
0

>  <SCORE.SYSTEM.SOLV>
0

>  <SCORE.SYSTEM.norm>
0

>  <SCORE.heavy>
23

>  <SCORE.norm>
-0.822589

>  <RMSD>
0.924

$$$$
ligand
 OpenBabel02271912143D
libRbt.so/2013.1/901 2013/11/27
 23 25  0  0  0  0  0  0  0  0999 V2000
   23.3124    0.6746   29.9033 P   0  0  1  0  0  0  0  0  0  0  0  0
   23.1873    2.7660   28.3330 C   0  0  0  0  0  0  0  0  0  0  0  0
   22.4928    1.8422   29.1594 O   0  0  0  0  0  0  0  0  0  0  0  0
   22.2306    3.8926   28.0137 C   0  0  1  0  0  0  0  0  0  0  0  0
   21.3516    3.5622   26.9389 O   0  0  0  0  0  0  0  0  0  0  0  0
   21.3797    4.1860   29.2378 C   0  0  1  0  0  0  0  0  0  0  0  0
   21.3689    5.6091   29.4447 O   0  0  0  0  0  0  0  0  0  0  0  0
   19.9957    3.6437   28.9039 C   0  0  0  0  0  0  0  0  0  0  0  0
   19.9879    3.5452   27.3808 C   0  0  2  0  0  0  0  0  0  0  0  0
   17.7113    0.9107   23.5849 N   0  0  0  0  0  0  0  0  0  0  0  0
   18.0677    2.2055   23.5949 C   0  0  2  0  0  0  0  0  0  0  0  0
   17.8225    2.9368   22.4828 N   0  0  0  0  0  0  0  0  0  0  0  0
   18.6621    2.7582   24.6798 N   0  0  0  0  0  0  0  0  0  0  0  0
   18.8995    1.9993   25.7694 C   0  0  2  0  0  0  0  0  0  0  0  0
   18.5380    0.6695   25.7760 C   0  0  1  0  0  0  0  0  0  0  0  0
   17.9403    0.1271   24.6543 C   0  0  0  0  0  0  0  0  0  0  0  0
   17.6107   -1.0786   24.6376 O   0  0  0  0  0  0  0  0  0  0  0  0
   18.8758    0.1501   26.9728 N   0  0  0  0  0  0  0  0  0  0  0  0
   19.4419    1.1357   27.6915 C   0  0  0  0  0  0  0  0  0  0  0  0
   19.4407    2.2526   26.9557 N   0  0  1  0  0  0  0  0  0  0  0  0
   23.5613   -0.4090   28.8824 O   0  0  0  0  0  0  0  0  0  0  0  0
   24.5627    1.3652   30.3972 O   0  5  0  0  0  0  0  0  0  0  0  0
   22.3724    0.2594   31.0026 O   0  0  0  0  0  0  0  0  0  0  0  0
  1  3  1  6  0  0  0
  1 21  1  0  0  0  0
  1 22  1  0  0  0  0
  1 23  2  0  0  0  0
  2  3  1  0  0  0  0
  4  2  1  1  0  0  0
  4  5  1  0  0  0  0
  4  6  1  0  0  0  0
  6  7  1  6  0  0  0
  6  8  1  0  0  0  0
  8  9  1  0  0  0  0
  9  5  1  1  0  0  0
  9 20  1  0  0  0  0
 10 11  1  0  0  0  0
 10 16  1  0  0  0  0
 11 12  1  6  0  0  0
 11 13  1  0  0  0  0
 14 13  1  1  0  0  0
 14 15  1  0  0  0  0
 14 20  1  0  0  0  0
 15 16  1  6  0  0  0
 15 18  1  0  0  0  0
 16 17  2  0  0  0  0
 18 19  1  0  0  0  0
 20 19  1  6  0  0  0
M  CHG  1  22  -1
M  END
>  <CHROM.1>
-79.55320574,-81.83718895,-168.37838305,-86.68488803,20.63763881,1.88266551
27.38558311,-0.07622552,0.82646220,-3.11523762

>  <Name>
ligand

>  <RI>
416

>  <Rbt.Current_Directory>
/home/itssahil/PROJECTS/Mol_Feturizer/Test_systems_manuscript/rnas/3slm

>  <Rbt.Executable>
rbdock ($Id: //depot/dev/client3/rdock/2013.1/src/exe/rbdock.cxx#4 $)

>  <Rbt.Library>
libRbt.so (2013.1, Build901 2013/11/27)

>  <Rbt.Parameter_File>
/export/apps/rDock/src/rDock_2013.1_src/data/scripts/dock_solv.prm

>  <Rbt.Receptor>
prm/pocket_docking_2.prm

>  <SCORE>
-18.362

>  <SCORE.INTER>
-15.6617

>  <SCORE.INTER.CONST>
1

>  <SCORE.INTER.POLAR>
0

>  <SCORE.INTER.ROT>
4

>  <SCORE.INTER.SOLV>
23.1978

>  <SCORE.INTER.VDW>
-24.4404

>  <SCORE.INTER.norm>
-0.680943

>  <SCORE.INTRA>
-2.7005

>  <SCORE.INTRA.DIHEDRAL>
-4.74773

>  <SCORE.INTRA.DIHEDRAL.0>
8.62657

>  <SCORE.INTRA.POLAR>
0

>  <SCORE.INTRA.POLAR.0>
0

>  <SCORE.INTRA.REPUL>
0

>  <SCORE.INTRA.REPUL.0>
0

>  <SCORE.INTRA.SOLV>
0.18972

>  <SCORE.INTRA.SOLV.lig_0>
-66.3641

>  <SCORE.INTRA.VDW>
-0.421498

>  <SCORE.INTRA.VDW.0>
0.452231

>  <SCORE.INTRA.norm>
-0.117413

>  <SCORE.RESTR>
0.000214397

>  <SCORE.RESTR.CAVITY>
0.000214397

>  <SCORE.RESTR.norm>
9.32163e-06

>  <SCORE.SYSTEM>
0

>  <SCORE.SYSTEM.CONST>
0

>  <SCORE.SYSTEM.DIHEDRAL>
0

>  <SCORE.SYSTEM.SOLV>
0

>  <SCORE.SYSTEM.norm>
0

>  <SCORE.heavy>
23

>  <SCORE.norm>
-0.798346

>  <RMSD>
0.949

$$$$
ligand
 OpenBabel02271912143D
libRbt.so/2013.1/901 2013/11/27
 23 25  0  0  0  0  0  0  0  0999 V2000
   23.3166    0.6458   29.9093 P   0  0  1  0  0  0  0  0  0  0  0  0
   23.2047    2.7815   28.3989 C   0  0  0  0  0  0  0  0  0  0  0  0
   22.4993    1.8135   29.1631 O   0  0  0  0  0  0  0  0  0  0  0  0
   22.2378    3.9016   28.0874 C   0  0  1  0  0  0  0  0  0  0  0  0
   21.3640    3.5721   27.0082 O   0  0  0  0  0  0  0  0  0  0  0  0
   21.3819    4.1764   29.3124 C   0  0  1  0  0  0  0  0  0  0  0  0
   21.3570    5.5974   29.5314 O   0  0  0  0  0  0  0  0  0  0  0  0
   20.0037    3.6236   28.9713 C   0  0  0  0  0  0  0  0  0  0  0  0
   19.9997    3.5381   27.4473 C   0  0  2  0  0  0  0  0  0  0  0  0
   17.7917    0.9044   23.6106 N   0  0  0  0  0  0  0  0  0  0  0  0
   18.1408    2.2011   23.6300 C   0  0  2  0  0  0  0  0  0  0  0  0
   17.9073    2.9348   22.5170 N   0  0  0  0  0  0  0  0  0  0  0  0
   18.7167    2.7533   24.7251 N   0  0  0  0  0  0  0  0  0  0  0  0
   18.9428    1.9919   25.8155 C   0  0  2  0  0  0  0  0  0  0  0  0
   18.5886    0.6601   25.8124 C   0  0  1  0  0  0  0  0  0  0  0  0
   18.0098    0.1183   24.6805 C   0  0  0  0  0  0  0  0  0  0  0  0
   17.6872   -1.0890   24.6551 O   0  0  0  0  0  0  0  0  0  0  0  0
   18.9123    0.1385   27.0121 N   0  0  0  0  0  0  0  0  0  0  0  0
   19.4626    1.1247   27.7421 C   0  0  0  0  0  0  0  0  0  0  0  0
   19.4657    2.2441   27.0101 N   0  0  1  0  0  0  0  0  0  0  0  0
   23.5685   -0.4376   28.8890 O   0  0  0  0  0  0  0  0  0  0  0  0
   24.5654    1.3362   30.4071 O   0  5  0  0  0  0  0  0  0  0  0  0
   22.3733    0.2305   31.0057 O   0  0  0  0  0  0  0  0  0  0  0  0
  1  3  1  6  0  0  0
  1 21  1  0  0  0  0
  1 22  1  0  0  0  0
  1 23  2  0  0  0  0
  2  3  1  0  0  0  0
  4  2  1  1  0  0  0
  4  5  1  0  0  0  0
  4  6  1  0  0  0  0
  6  7  1  6  0  0  0
  6  8  1  0  0  0  0
  8  9  1  0  0  0  0
  9  5  1  1  0  0  0
  9 20  1  0  0  0  0
 10 11  1  0  0  0  0
 10 16  1  0  0  0  0
 11 12  1  6  0  0  0
 11 13  1  0  0  0  0
 14 13  1  1  0  0  0
 14 15  1  0  0  0  0
 14 20  1  0  0  0  0
 15 16  1  6  0  0  0
 15 18  1  0  0  0  0
 16 17  2  0  0  0  0
 18 19  1  0  0  0  0
 20 19  1  6  0  0  0
M  CHG  1  22  -1
M  END
>  <CHROM.1>
-83.02098690,-79.14349812,-167.50393946,-85.88427146,20.66498223,1.87073928
27.42415806,-0.09348042,0.83144391,-3.09305647

>  <Name>
ligand

>  <RI>
416

>  <Rbt.Current_Directory>
/home/itssahil/PROJECTS/Mol_Feturizer/Test_systems_manuscript/rnas/3slm

>  <Rbt.Executable>
rbdock ($Id: //depot/dev/client3/rdock/2013.1/src/exe/rbdock.cxx#4 $)

>  <Rbt.Library>
libRbt.so (2013.1, Build901 2013/11/27)

>  <Rbt.Parameter_File>
/export/apps/rDock/src/rDock_2013.1_src/data/scripts/dock_solv.prm

>  <Rbt.Receptor>
prm/pocket_docking_2.prm

>  <SCORE>
-18.3307

>  <SCORE.INTER>
-15.5484

>  <SCORE.INTER.CONST>
1

>  <SCORE.INTER.POLAR>
0

>  <SCORE.INTER.ROT>
4

>  <SCORE.INTER.SOLV>
23.2127

>  <SCORE.INTER.VDW>
-24.3698

>  <SCORE.INTER.norm>
-0.676015

>  <SCORE.INTRA>
-2.7824

>  <SCORE.INTRA.DIHEDRAL>
-4.7841

>  <SCORE.INTRA.DIHEDRAL.0>
8.62657

>  <SCORE.INTRA.POLAR>
0

>  <SCORE.INTRA.POLAR.0>
0

>  <SCORE.INTRA.REPUL>
0

>  <SCORE.INTRA.REPUL.0>
0

>  <SCORE.INTRA.SOLV>
0.235981

>  <SCORE.INTRA.SOLV.lig_0>
-66.3641

>  <SCORE.INTRA.VDW>
-0.508337

>  <SCORE.INTRA.VDW.0>
0.452231

>  <SCORE.INTRA.norm>
-0.120974

>  <SCORE.RESTR>
0

>  <SCORE.RESTR.CAVITY>
0

>  <SCORE.RESTR.norm>
0

>  <SCORE.SYSTEM>
0

>  <SCORE.SYSTEM.CONST>
0

>  <SCORE.SYSTEM.DIHEDRAL>
0

>  <SCORE.SYSTEM.SOLV>
0

>  <SCORE.SYSTEM.norm>
0

>  <SCORE.heavy>
23

>  <SCORE.norm>
-0.796989

>  <RMSD>
0.956

$$$$
ligand
 OpenBabel02271912143D
libRbt.so/2013.1/901 2013/11/27
 23 25  0  0  0  0  0  0  0  0999 V2000
   23.3151    0.7809   31.4869 P   0  0  1  0  0  0  0  0  0  0  0  0
   21.7015    2.3588   30.1596 C   0  0  0  0  0  0  0  0  0  0  0  0
   22.8627    1.5403   30.1426 O   0  0  0  0  0  0  0  0  0  0  0  0
   21.8186    3.3309   29.0072 C   0  0  1  0  0  0  0  0  0  0  0  0
   21.6220    2.6939   27.7453 O   0  0  0  0  0  0  0  0  0  0  0  0
   20.7584    4.4092   29.1549 C   0  0  1  0  0  0  0  0  0  0  0  0
   21.3878    5.6864   28.9533 O   0  0  0  0  0  0  0  0  0  0  0  0
   19.7226    4.1034   28.0803 C   0  0  0  0  0  0  0  0  0  0  0  0
   20.4670    3.2223   27.0806 C   0  0  2  0  0  0  0  0  0  0  0  0
   17.6420    0.9876   23.3985 N   0  0  0  0  0  0  0  0  0  0  0  0
   18.2737    2.1719   23.3522 C   0  0  2  0  0  0  0  0  0  0  0  0
   18.1870    2.8896   22.2081 N   0  0  0  0  0  0  0  0  0  0  0  0
   18.9823    2.6277   24.4132 N   0  0  0  0  0  0  0  0  0  0  0  0
   19.0551    1.8837   25.5361 C   0  0  2  0  0  0  0  0  0  0  0  0
   18.4109    0.6671   25.6005 C   0  0  1  0  0  0  0  0  0  0  0  0
   17.7010    0.2204   24.5022 C   0  0  0  0  0  0  0  0  0  0  0  0
   17.1151   -0.8832   24.5379 O   0  0  0  0  0  0  0  0  0  0  0  0
   18.6349    0.1393   26.8201 N   0  0  0  0  0  0  0  0  0  0  0  0
   19.4082    1.0073   27.4960 C   0  0  0  0  0  0  0  0  0  0  0  0
   19.6467    2.0639   26.7116 N   0  0  1  0  0  0  0  0  0  0  0  0
   23.8278    1.8349   32.4378 O   0  0  0  0  0  0  0  0  0  0  0  0
   22.0582    0.0811   31.9504 O   0  5  0  0  0  0  0  0  0  0  0  0
   24.3855   -0.1549   30.9939 O   0  0  0  0  0  0  0  0  0  0  0  0
  1  3  1  6  0  0  0
  1 21  1  0  0  0  0
  1 22  1  0  0  0  0
  1 23  2  0  0  0  0
  2  3  1  0  0  0  0
  4  2  1  1  0  0  0
  4  5  1  0  0  0  0
  4  6  1  0  0  0  0
  6  7  1  6  0  0  0
  6  8  1  0  0  0  0
  8  9  1  0  0  0  0
  9  5  1  1  0  0  0
  9 20  1  0  0  0  0
 10 11  1  0  0  0  0
 10 16  1  0  0  0  0
 11 12  1  6  0  0  0
 11 13  1  0  0  0  0
 14 13  1  1  0  0  0
 14 15  1  0  0  0  0
 14 20  1  0  0  0  0
 15 16  1  6  0  0  0
 15 18  1  0  0  0  0
 16 17  2  0  0  0  0
 18 19  1  0  0  0  0
 20 19  1  6  0  0  0
M  CHG  1  22  -1
M  END
>  <CHROM.1>
-70.64829118,72.41776726,158.22471155,-135.54611099,20.56380072,1.83368887
27.80916060,0.14040671,0.94762532,2.96157951

>  <Name>
ligand

>  <RI>
416

>  <Rbt.Current_Directory>
/home/itssahil/PROJECTS/Mol_Feturizer/Test_systems_manuscript/rnas/3slm

>  <Rbt.Executable>
rbdock ($Id: //depot/dev/client3/rdock/2013.1/src/exe/rbdock.cxx#4 $)

>  <Rbt.Library>
libRbt.so (2013.1, Build901 2013/11/27)

>  <Rbt.Parameter_File>
/export/apps/rDock/src/rDock_2013.1_src/data/scripts/dock_solv.prm

>  <Rbt.Receptor>
prm/pocket_docking_2.prm

>  <SCORE>
-20.597

>  <SCORE.INTER>
-16.0594

>  <SCORE.INTER.CONST>
1

>  <SCORE.INTER.POLAR>
0

>  <SCORE.INTER.ROT>
4

>  <SCORE.INTER.SOLV>
24.4158

>  <SCORE.INTER.VDW>
-25.1115

>  <SCORE.INTER.norm>
-0.698236

>  <SCORE.INTRA>
-4.54096

>  <SCORE.INTRA.DIHEDRAL>
-4.57843

>  <SCORE.INTRA.DIHEDRAL.0>
8.62657

>  <SCORE.INTRA.POLAR>
0

>  <SCORE.INTRA.POLAR.0>
0

>  <SCORE.INTRA.REPUL>
0

>  <SCORE.INTRA.REPUL.0>
0

>  <SCORE.INTRA.SOLV>
-0.727485

>  <SCORE.INTRA.SOLV.lig_0>
-66.3641

>  <SCORE.INTRA.VDW>
-1.888

>  <SCORE.INTRA.VDW.0>
0.452231

>  <SCORE.INTRA.norm>
-0.197433

>  <SCORE.RESTR>
0.00338863

>  <SCORE.RESTR.CAVITY>
0.00338863

>  <SCORE.RESTR.norm>
0.000147332

>  <SCORE.SYSTEM>
0

>  <SCORE.SYSTEM.CONST>
0

>  <SCORE.SYSTEM.DIHEDRAL>
0

>  <SCORE.SYSTEM.SOLV>
0

>  <SCORE.SYSTEM.norm>
0

>  <SCORE.heavy>
23

>  <SCORE.norm>
-0.895522

>  <RMSD>
0.977

$$$$
ligand
 OpenBabel02271912143D
libRbt.so/2013.1/901 2013/11/27
 23 25  0  0  0  0  0  0  0  0999 V2000
   23.2446    0.7547   31.5554 P   0  0  1  0  0  0  0  0  0  0  0  0
   21.6988    2.3519   30.1717 C   0  0  0  0  0  0  0  0  0  0  0  0
   22.8059    1.4613   30.1783 O   0  0  0  0  0  0  0  0  0  0  0  0
   21.8645    3.2677   28.9799 C   0  0  1  0  0  0  0  0  0  0  0  0
   21.6391    2.5883   27.7452 O   0  0  0  0  0  0  0  0  0  0  0  0
   20.8575    4.4012   29.0785 C   0  0  1  0  0  0  0  0  0  0  0  0
   21.5483    5.6369   28.8255 O   0  0  0  0  0  0  0  0  0  0  0  0
   19.8096    4.1007   28.0141 C   0  0  0  0  0  0  0  0  0  0  0  0
   20.5119    3.1434   27.0549 C   0  0  2  0  0  0  0  0  0  0  0  0
   17.4815    0.9631   23.5059 N   0  0  0  0  0  0  0  0  0  0  0  0
   18.1547    2.1220   23.4195 C   0  0  2  0  0  0  0  0  0  0  0  0
   18.0556    2.8258   22.2678 N   0  0  0  0  0  0  0  0  0  0  0  0
   18.9157    2.5663   24.4488 N   0  0  0  0  0  0  0  0  0  0  0  0
   18.9992    1.8365   25.5803 C   0  0  2  0  0  0  0  0  0  0  0  0
   18.3130    0.6461   25.6855 C   0  0  1  0  0  0  0  0  0  0  0  0
   17.5498    0.2104   24.6189 C   0  0  0  0  0  0  0  0  0  0  0  0
   16.9249   -0.8697   24.6919 O   0  0  0  0  0  0  0  0  0  0  0  0
   18.5588    0.1280   26.9051 N   0  0  0  0  0  0  0  0  0  0  0  0
   19.3865    0.9760   27.5408 C   0  0  0  0  0  0  0  0  0  0  0  0
   19.6371    2.0114   26.7321 N   0  0  1  0  0  0  0  0  0  0  0  0
   23.7870    1.8390   32.4544 O   0  0  0  0  0  0  0  0  0  0  0  0
   21.9727    0.1088   32.0547 O   0  5  0  0  0  0  0  0  0  0  0  0
   24.2896   -0.2295   31.1039 O   0  0  0  0  0  0  0  0  0  0  0  0
  1  3  1  6  0  0  0
  1 21  1  0  0  0  0
  1 22  1  0  0  0  0
  1 23  2  0  0  0  0
  2  3  1  0  0  0  0
  4  2  1  1  0  0  0
  4  5  1  0  0  0  0
  4  6  1  0  0  0  0
  6  7  1  6  0  0  0
  6  8  1  0  0  0  0
  8  9  1  0  0  0  0
  9  5  1  1  0  0  0
  9 20  1  0  0  0  0
 10 11  1  0  0  0  0
 10 16  1  0  0  0  0
 11 12  1  6  0  0  0
 11 13  1  0  0  0  0
 14 13  1  1  0  0  0
 14 15  1  0  0  0  0
 14 20  1  0  0  0  0
 15 16  1  6  0  0  0
 15 18  1  0  0  0  0
 16 17  2  0  0  0  0
 18 19  1  0  0  0  0
 20 19  1  6  0  0  0
M  CHG  1  22  -1
M  END
>  <CHROM.1>
-68.04223711,71.30903430,156.84909532,-138.21533467,20.52039828,1.79835513
27.84731903,0.22082376,0.92681387,2.86092844

>  <Name>
ligand

>  <RI>
416

>  <Rbt.Current_Directory>
/home/itssahil/PROJECTS/Mol_Feturizer/Test_systems_manuscript/rnas/3slm

>  <Rbt.Executable>
rbdock ($Id: //depot/dev/client3/rdock/2013.1/src/exe/rbdock.cxx#4 $)

>  <Rbt.Library>
libRbt.so (2013.1, Build901 2013/11/27)

>  <Rbt.Parameter_File>
/export/apps/rDock/src/rDock_2013.1_src/data/scripts/dock_solv.prm

>  <Rbt.Receptor>
prm/pocket_docking_2.prm

>  <SCORE>
-20.6751

>  <SCORE.INTER>
-16.1606

>  <SCORE.INTER.CONST>
1

>  <SCORE.INTER.POLAR>
0

>  <SCORE.INTER.ROT>
4

>  <SCORE.INTER.SOLV>
24.5078

>  <SCORE.INTER.VDW>
-25.2097

>  <SCORE.INTER.norm>
-0.702635

>  <SCORE.INTRA>
-4.5153

>  <SCORE.INTRA.DIHEDRAL>
-4.49641

>  <SCORE.INTRA.DIHEDRAL.0>
8.62657

>  <SCORE.INTRA.POLAR>
0

>  <SCORE.INTRA.POLAR.0>
0

>  <SCORE.INTRA.REPUL>
0

>  <SCORE.INTRA.REPUL.0>
0

>  <SCORE.INTRA.SOLV>
-0.750491

>  <SCORE.INTRA.SOLV.lig_0>
-66.3641

>  <SCORE.INTRA.VDW>
-1.89185

>  <SCORE.INTRA.VDW.0>
0.452231

>  <SCORE.INTRA.norm>
-0.196317

>  <SCORE.RESTR>
0.000748871

>  <SCORE.RESTR.CAVITY>
0.000748871

>  <SCORE.RESTR.norm>
3.25596e-05

>  <SCORE.SYSTEM>
0

>  <SCORE.SYSTEM.CONST>
0

>  <SCORE.SYSTEM.DIHEDRAL>
0

>  <SCORE.SYSTEM.SOLV>
0

>  <SCORE.SYSTEM.norm>
0

>  <SCORE.heavy>
23

>  <SCORE.norm>
-0.898919

>  <RMSD>
0.979

$$$$
ligand
 OpenBabel02271912143D
libRbt.so/2013.1/901 2013/11/27
 23 25  0  0  0  0  0  0  0  0999 V2000
   23.2875    0.8212   31.4866 P   0  0  1  0  0  0  0  0  0  0  0  0
   21.6711    2.4153   30.1822 C   0  0  0  0  0  0  0  0  0  0  0  0
   22.8033    1.5579   30.1408 O   0  0  0  0  0  0  0  0  0  0  0  0
   21.7801    3.3625   29.0086 C   0  0  1  0  0  0  0  0  0  0  0  0
   21.5870    2.6964   27.7613 O   0  0  0  0  0  0  0  0  0  0  0  0
   20.7122    4.4361   29.1336 C   0  0  1  0  0  0  0  0  0  0  0  0
   21.3321    5.7131   28.9031 O   0  0  0  0  0  0  0  0  0  0  0  0
   19.6776    4.0991   28.0671 C   0  0  0  0  0  0  0  0  0  0  0  0
   20.4275    3.2016   27.0863 C   0  0  2  0  0  0  0  0  0  0  0  0
   17.4642    0.9508   23.5247 N   0  0  0  0  0  0  0  0  0  0  0  0
   18.0656    2.1500   23.4627 C   0  0  2  0  0  0  0  0  0  0  0  0
   17.9027    2.8807   22.3352 N   0  0  0  0  0  0  0  0  0  0  0  0
   18.8185    2.6081   24.4918 N   0  0  0  0  0  0  0  0  0  0  0  0
   18.9670    1.8511   25.5984 C   0  0  2  0  0  0  0  0  0  0  0  0
   18.3547    0.6191   25.6786 C   0  0  1  0  0  0  0  0  0  0  0  0
   17.5984    0.1706   24.6125 C   0  0  0  0  0  0  0  0  0  0  0  0
   17.0403   -0.9467   24.6629 O   0  0  0  0  0  0  0  0  0  0  0  0
   18.6543    0.0804   26.8771 N   0  0  0  0  0  0  0  0  0  0  0  0
   19.4423    0.9571   27.5243 C   0  0  0  0  0  0  0  0  0  0  0  0
   19.6154    2.0294   26.7438 N   0  0  1  0  0  0  0  0  0  0  0  0
   23.7682    1.8968   32.4300 O   0  0  0  0  0  0  0  0  0  0  0  0
   22.0574    0.0812   31.9593 O   0  5  0  0  0  0  0  0  0  0  0  0
   24.3870   -0.0799   30.9931 O   0  0  0  0  0  0  0  0  0  0  0  0
  1  3  1  6  0  0  0
  1 21  1  0  0  0  0
  1 22  1  0  0  0  0
  1 23  2  0  0  0  0
  2  3  1  0  0  0  0
  4  2  1  1  0  0  0
  4  5  1  0  0  0  0
  4  6  1  0  0  0  0
  6  7  1  6  0  0  0
  6  8  1  0  0  0  0
  8  9  1  0  0  0  0
  9  5  1  1  0  0  0
  9 20  1  0  0  0  0
 10 11  1  0  0  0  0
 10 16  1  0  0  0  0
 11 12  1  6  0  0  0
 11 13  1  0  0  0  0
 14 13  1  1  0  0  0
 14 15  1  0  0  0  0
 14 20  1  0  0  0  0
 15 16  1  6  0  0  0
 15 18  1  0  0  0  0
 16 17  2  0  0  0  0
 18 19  1  0  0  0  0
 20 19  1  6  0  0  0
M  CHG  1  22  -1
M  END
>  <CHROM.1>
-66.03290550,69.38515998,157.49868383,-139.25276119,20.49895759,1.83292231
27.84427661,0.13093610,0.93085968,2.96127461

>  <Name>
ligand

>  <RI>
416

>  <Rbt.Current_Directory>
/home/itssahil/PROJECTS/Mol_Feturizer/Test_systems_manuscript/rnas/3slm

>  <Rbt.Executable>
rbdock ($Id: //depot/dev/client3/rdock/2013.1/src/exe/rbdock.cxx#4 $)

>  <Rbt.Library>
libRbt.so (2013.1, Build901 2013/11/27)

>  <Rbt.Parameter_File>
/export/apps/rDock/src/rDock_2013.1_src/data/scripts/dock_solv.prm

>  <Rbt.Receptor>
prm/pocket_docking_2.prm

>  <SCORE>
-20.6513

>  <SCORE.INTER>
-15.9716

>  <SCORE.INTER.CONST>
1

>  <SCORE.INTER.POLAR>
0

>  <SCORE.INTER.ROT>
4

>  <SCORE.INTER.SOLV>
23.883

>  <SCORE.INTER.VDW>
-24.8754

>  <SCORE.INTER.norm>
-0.694419

>  <SCORE.INTRA>
-4.67963

>  <SCORE.INTRA.DIHEDRAL>
-4.78817

>  <SCORE.INTRA.DIHEDRAL.0>
8.62657

>  <SCORE.INTRA.POLAR>
0

>  <SCORE.INTRA.POLAR.0>
0

>  <SCORE.INTRA.REPUL>
0

>  <SCORE.INTRA.REPUL.0>
0

>  <SCORE.INTRA.SOLV>
-0.760292

>  <SCORE.INTRA.SOLV.lig_0>
-66.3641

>  <SCORE.INTRA.VDW>
-1.9054

>  <SCORE.INTRA.VDW.0>
0.452231

>  <SCORE.INTRA.norm>
-0.203462

>  <SCORE.RESTR>
0

>  <SCORE.RESTR.CAVITY>
0

>  <SCORE.RESTR.norm>
0

>  <SCORE.SYSTEM>
0

>  <SCORE.SYSTEM.CONST>
0

>  <SCORE.SYSTEM.DIHEDRAL>
0

>  <SCORE.SYSTEM.SOLV>
0

>  <SCORE.SYSTEM.norm>
0

>  <SCORE.heavy>
23

>  <SCORE.norm>
-0.897881

>  <RMSD>
0.997

$$$$
ligand
 OpenBabel02271912143D
libRbt.so/2013.1/901 2013/11/27
 23 25  0  0  0  0  0  0  0  0999 V2000
   23.6481    0.5780   31.2916 P   0  0  1  0  0  0  0  0  0  0  0  0
   22.7262    1.2667   28.9398 C   0  0  0  0  0  0  0  0  0  0  0  0
   23.3747    1.6667   30.1390 O   0  0  0  0  0  0  0  0  0  0  0  0
   22.5545    2.5032   28.0865 C   0  0  1  0  0  0  0  0  0  0  0  0
   21.8967    2.2170   26.8527 O   0  0  0  0  0  0  0  0  0  0  0  0
   21.7095    3.5160   28.8408 C   0  0  1  0  0  0  0  0  0  0  0  0
   22.3590    4.7960   28.7512 O   0  0  0  0  0  0  0  0  0  0  0  0
   20.3556    3.5089   28.1422 C   0  0  0  0  0  0  0  0  0  0  0  0
   20.6448    2.9104   26.7682 C   0  0  2  0  0  0  0  0  0  0  0  0
   17.2905    1.2213   23.2428 N   0  0  0  0  0  0  0  0  0  0  0  0
   18.0847    2.3024   23.1776 C   0  0  2  0  0  0  0  0  0  0  0  0
   18.0305    3.0594   22.0571 N   0  0  0  0  0  0  0  0  0  0  0  0
   18.9196    2.6183   24.1969 N   0  0  0  0  0  0  0  0  0  0  0  0
   18.9549    1.8380   25.2967 C   0  0  2  0  0  0  0  0  0  0  0  0
   18.1448    0.7263   25.3800 C   0  0  1  0  0  0  0  0  0  0  0  0
   17.3076    0.4206   24.3238 C   0  0  0  0  0  0  0  0  0  0  0  0
   16.5696   -0.5869   24.3770 O   0  0  0  0  0  0  0  0  0  0  0  0
   18.3672    0.1349   26.5704 N   0  0  0  0  0  0  0  0  0  0  0  0
   19.3016    0.8607   27.2095 C   0  0  0  0  0  0  0  0  0  0  0  0
   19.6414    1.8948   26.4324 N   0  0  1  0  0  0  0  0  0  0  0  0
   22.3097   -0.0060   31.6733 O   0  0  0  0  0  0  0  0  0  0  0  0
   24.5964   -0.4058   30.6458 O   0  5  0  0  0  0  0  0  0  0  0  0
   24.2768    1.4020   32.3825 O   0  0  0  0  0  0  0  0  0  0  0  0
  1  3  1  6  0  0  0
  1 21  1  0  0  0  0
  1 22  1  0  0  0  0
  1 23  2  0  0  0  0
  2  3  1  0  0  0  0
  4  2  1  1  0  0  0
  4  5  1  0  0  0  0
  4  6  1  0  0  0  0
  6  7  1  6  0  0  0
  6  8  1  0  0  0  0
  8  9  1  0  0  0  0
  9  5  1  1  0  0  0
  9 20  1  0  0  0  0
 10 11  1  0  0  0  0
 10 16  1  0  0  0  0
 11 12  1  6  0  0  0
 11 13  1  0  0  0  0
 14 13  1  1  0  0  0
 14 15  1  0  0  0  0
 14 20  1  0  0  0  0
 15 16  1  6  0  0  0
 15 18  1  0  0  0  0
 16 17  2  0  0  0  0
 18 19  1  0  0  0  0
 20 19  1  6  0  0  0
M  CHG  1  22  -1
M  END
>  <CHROM.1>
-57.77907831,-179.44832476,177.47600224,-114.19587506,20.76174687,1.60323711
27.51104859,0.42937309,0.79544159,2.61809855

>  <Name>
ligand

>  <RI>
416

>  <Rbt.Current_Directory>
/home/itssahil/PROJECTS/Mol_Feturizer/Test_systems_manuscript/rnas/3slm

>  <Rbt.Executable>
rbdock ($Id: //depot/dev/client3/rdock/2013.1/src/exe/rbdock.cxx#4 $)

>  <Rbt.Library>
libRbt.so (2013.1, Build901 2013/11/27)

>  <Rbt.Parameter_File>
/export/apps/rDock/src/rDock_2013.1_src/data/scripts/dock_solv.prm

>  <Rbt.Receptor>
prm/pocket_docking_2.prm

>  <SCORE>
-20.4303

>  <SCORE.INTER>
-14.8965

>  <SCORE.INTER.CONST>
1

>  <SCORE.INTER.POLAR>
0

>  <SCORE.INTER.ROT>
4

>  <SCORE.INTER.SOLV>
25.728

>  <SCORE.INTER.VDW>
-24.7737

>  <SCORE.INTER.norm>
-0.647675

>  <SCORE.INTRA>
-5.53555

>  <SCORE.INTRA.DIHEDRAL>
-7.39489

>  <SCORE.INTRA.DIHEDRAL.0>
8.62657

>  <SCORE.INTRA.POLAR>
0

>  <SCORE.INTRA.POLAR.0>
0

>  <SCORE.INTRA.REPUL>
0

>  <SCORE.INTRA.REPUL.0>
0

>  <SCORE.INTRA.SOLV>
-0.535052

>  <SCORE.INTRA.SOLV.lig_0>
-66.3641

>  <SCORE.INTRA.VDW>
-1.57058

>  <SCORE.INTRA.VDW.0>
0.452231

>  <SCORE.INTRA.norm>
-0.240676

>  <SCORE.RESTR>
0.00178968

>  <SCORE.RESTR.CAVITY>
0.00178968

>  <SCORE.RESTR.norm>
7.78123e-05

>  <SCORE.SYSTEM>
0

>  <SCORE.SYSTEM.CONST>
0

>  <SCORE.SYSTEM.DIHEDRAL>
0

>  <SCORE.SYSTEM.SOLV>
0

>  <SCORE.SYSTEM.norm>
0

>  <SCORE.heavy>
23

>  <SCORE.norm>
-0.888273

>  <RMSD>
1.014

$$$$
ligand
 OpenBabel02271912143D
libRbt.so/2013.1/901 2013/11/27
 23 25  0  0  0  0  0  0  0  0999 V2000
   23.0971    1.0742   30.6944 P   0  0  1  0  0  0  0  0  0  0  0  0
   23.3233    3.1692   29.1403 C   0  0  0  0  0  0  0  0  0  0  0  0
   22.4643    2.2283   29.7693 O   0  0  0  0  0  0  0  0  0  0  0  0
   22.4545    4.2851   28.6051 C   0  0  1  0  0  0  0  0  0  0  0  0
   21.7307    3.8904   27.4401 O   0  0  0  0  0  0  0  0  0  0  0  0
   21.4447    4.6841   29.6680 C   0  0  1  0  0  0  0  0  0  0  0  0
   21.4440    6.1187   29.7686 O   0  0  0  0  0  0  0  0  0  0  0  0
   20.1086    4.1423   29.1756 C   0  0  0  0  0  0  0  0  0  0  0  0
   20.3176    3.9300   27.6786 C   0  0  2  0  0  0  0  0  0  0  0  0
   18.1145    1.1860   23.9172 N   0  0  0  0  0  0  0  0  0  0  0  0
   18.4413    2.4886   23.9081 C   0  0  2  0  0  0  0  0  0  0  0  0
   18.1833    3.1968   22.7840 N   0  0  0  0  0  0  0  0  0  0  0  0
   19.0193    3.0714   24.9861 N   0  0  0  0  0  0  0  0  0  0  0  0
   19.2702    2.3351   26.0882 C   0  0  2  0  0  0  0  0  0  0  0  0
   18.9390    0.9976   26.1142 C   0  0  1  0  0  0  0  0  0  0  0  0
   18.3576    0.4244   24.9993 C   0  0  0  0  0  0  0  0  0  0  0  0
   18.0556   -0.7885   25.0004 O   0  0  0  0  0  0  0  0  0  0  0  0
   19.2844    0.5046   27.3201 N   0  0  0  0  0  0  0  0  0  0  0  0
   19.8255    1.5139   28.0250 C   0  0  0  0  0  0  0  0  0  0  0  0
   19.8014    2.6189   27.2720 N   0  0  1  0  0  0  0  0  0  0  0  0
   24.1777    1.7195   31.5276 O   0  0  0  0  0  0  0  0  0  0  0  0
   21.9201    0.5590   31.4902 O   0  5  0  0  0  0  0  0  0  0  0  0
   23.6244    0.0920   29.6836 O   0  0  0  0  0  0  0  0  0  0  0  0
  1  3  1  6  0  0  0
  1 21  1  0  0  0  0
  1 22  1  0  0  0  0
  1 23  2  0  0  0  0
  2  3  1  0  0  0  0
  4  2  1  1  0  0  0
  4  5  1  0  0  0  0
  4  6  1  0  0  0  0
  6  7  1  6  0  0  0
  6  8  1  0  0  0  0
  8  9  1  0  0  0  0
  9  5  1  1  0  0  0
  9 20  1  0  0  0  0
 10 11  1  0  0  0  0
 10 16  1  0  0  0  0
 11 12  1  6  0  0  0
 11 13  1  0  0  0  0
 14 13  1  1  0  0  0
 14 15  1  0  0  0  0
 14 20  1  0  0  0  0
 15 16  1  6  0  0  0
 15 18  1  0  0  0  0
 16 17  2  0  0  0  0
 18 19  1  0  0  0  0
 20 19  1  6  0  0  0
M  CHG  1  22  -1
M  END
>  <CHROM.1>
42.36036619,-74.22361109,-167.79977378,-95.87200757,20.80306947,2.25247378
27.87519088,-0.02755121,0.91943630,3.08505447

>  <Name>
ligand

>  <RI>
416

>  <Rbt.Current_Directory>
/home/itssahil/PROJECTS/Mol_Feturizer/Test_systems_manuscript/rnas/3slm

>  <Rbt.Executable>
rbdock ($Id: //depot/dev/client3/rdock/2013.1/src/exe/rbdock.cxx#4 $)

>  <Rbt.Library>
libRbt.so (2013.1, Build901 2013/11/27)

>  <Rbt.Parameter_File>
/export/apps/rDock/src/rDock_2013.1_src/data/scripts/dock_solv.prm

>  <Rbt.Receptor>
prm/pocket_docking_6.prm

>  <SCORE>
-19.324

>  <SCORE.INTER>
-15.0481

>  <SCORE.INTER.CONST>
1

>  <SCORE.INTER.POLAR>
0

>  <SCORE.INTER.ROT>
4

>  <SCORE.INTER.SOLV>
23.4208

>  <SCORE.INTER.VDW>
-24.1057

>  <SCORE.INTER.norm>
-0.654266

>  <SCORE.INTRA>
-4.27588

>  <SCORE.INTRA.DIHEDRAL>
-5.62391

>  <SCORE.INTRA.DIHEDRAL.0>
8.62657

>  <SCORE.INTRA.POLAR>
0

>  <SCORE.INTRA.POLAR.0>
0

>  <SCORE.INTRA.REPUL>
0

>  <SCORE.INTRA.REPUL.0>
0

>  <SCORE.INTRA.SOLV>
-0.357751

>  <SCORE.INTRA.SOLV.lig_0>
-66.3641

>  <SCORE.INTRA.VDW>
-1.28505

>  <SCORE.INTRA.VDW.0>
0.452231

>  <SCORE.INTRA.norm>
-0.185908

>  <SCORE.RESTR>
0

>  <SCORE.RESTR.CAVITY>
0

>  <SCORE.RESTR.norm>
0

>  <SCORE.SYSTEM>
0

>  <SCORE.SYSTEM.CONST>
0

>  <SCORE.SYSTEM.DIHEDRAL>
0

>  <SCORE.SYSTEM.SOLV>
0

>  <SCORE.SYSTEM.norm>
0

>  <SCORE.heavy>
23

>  <SCORE.norm>
-0.840174

>  <RMSD>
1.021

$$$$
ligand
 OpenBabel02271912143D
libRbt.so/2013.1/901 2013/11/27
 23 25  0  0  0  0  0  0  0  0999 V2000
   22.4794    1.1855   31.0524 P   0  0  1  0  0  0  0  0  0  0  0  0
   23.2396    2.8627   29.1911 C   0  0  0  0  0  0  0  0  0  0  0  0
   22.1643    2.2178   29.8593 O   0  0  0  0  0  0  0  0  0  0  0  0
   22.6565    4.0195   28.4112 C   0  0  1  0  0  0  0  0  0  0  0  0
   22.0030    3.5875   27.2182 O   0  0  0  0  0  0  0  0  0  0  0  0
   21.6289    4.7340   29.2726 C   0  0  1  0  0  0  0  0  0  0  0  0
   21.8837    6.1471   29.1939 O   0  0  0  0  0  0  0  0  0  0  0  0
   20.2770    4.3601   28.6779 C   0  0  0  0  0  0  0  0  0  0  0  0
   20.6045    3.9000   27.2599 C   0  0  2  0  0  0  0  0  0  0  0  0
   17.9249    1.2576   23.7428 N   0  0  0  0  0  0  0  0  0  0  0  0
   18.4259    2.4993   23.6395 C   0  0  2  0  0  0  0  0  0  0  0  0
   18.2300    3.1648   22.4774 N   0  0  0  0  0  0  0  0  0  0  0  0
   19.1132    3.0627   24.6622 N   0  0  0  0  0  0  0  0  0  0  0  0
   19.2974    2.3690   25.8044 C   0  0  2  0  0  0  0  0  0  0  0  0
   18.7879    1.0944   25.9271 C   0  0  1  0  0  0  0  0  0  0  0  0
   18.0973    0.5387   24.8669 C   0  0  0  0  0  0  0  0  0  0  0  0
   17.6328   -0.6184   24.9557 O   0  0  0  0  0  0  0  0  0  0  0  0
   19.1023    0.6347   27.1543 N   0  0  0  0  0  0  0  0  0  0  0  0
   19.7989    1.6014   27.7775 C   0  0  0  0  0  0  0  0  0  0  0  0
   19.9010    2.6500   26.9537 N   0  0  1  0  0  0  0  0  0  0  0  0
   23.5037    1.8424   31.9453 O   0  0  0  0  0  0  0  0  0  0  0  0
   21.1347    0.9620   31.7052 O   0  5  0  0  0  0  0  0  0  0  0  0
   23.0063   -0.0177   30.3181 O   0  0  0  0  0  0  0  0  0  0  0  0
  1  3  1  6  0  0  0
  1 21  1  0  0  0  0
  1 22  1  0  0  0  0
  1 23  2  0  0  0  0
  2  3  1  0  0  0  0
  4  2  1  1  0  0  0
  4  5  1  0  0  0  0
  4  6  1  0  0  0  0
  6  7  1  6  0  0  0
  6  8  1  0  0  0  0
  8  9  1  0  0  0  0
  9  5  1  1  0  0  0
  9 20  1  0  0  0  0
 10 11  1  0  0  0  0
 10 16  1  0  0  0  0
 11 12  1  6  0  0  0
 11 13  1  0  0  0  0
 14 13  1  1  0  0  0
 14 15  1  0  0  0  0
 14 20  1  0  0  0  0
 15 16  1  6  0  0  0
 15 18  1  0  0  0  0
 16 17  2  0  0  0  0
 18 19  1  0  0  0  0
 20 19  1  6  0  0  0
M  CHG  1  22  -1
M  END
>  <CHROM.1>
46.16160139,-76.73821491,-164.87240468,-105.71380753,20.65739402,2.28376324
27.78243836,0.31863978,0.94562671,2.68039824

>  <Name>
ligand

>  <RI>
0

>  <Rbt.Current_Directory>
/home/itssahil/PROJECTS/Mol_Feturizer/Test_systems_manuscript/rnas/3slm

>  <Rbt.Executable>
rbdock ($Id: //depot/dev/client3/rdock/2013.1/src/exe/rbdock.cxx#4 $)

>  <Rbt.Library>
libRbt.so (2013.1, Build901 2013/11/27)

>  <Rbt.Parameter_File>
/export/apps/rDock/src/rDock_2013.1_src/data/scripts/dock_solv.prm

>  <Rbt.Receptor>
prm/pocket_docking_7.prm

>  <SCORE>
-19.5331

>  <SCORE.INTER>
-15.4143

>  <SCORE.INTER.CONST>
1

>  <SCORE.INTER.POLAR>
0

>  <SCORE.INTER.ROT>
4

>  <SCORE.INTER.SOLV>
25.1764

>  <SCORE.INTER.VDW>
-24.935

>  <SCORE.INTER.norm>
-0.670189

>  <SCORE.INTRA>
-4.11876

>  <SCORE.INTRA.DIHEDRAL>
-5.16416

>  <SCORE.INTRA.DIHEDRAL.0>
8.62657

>  <SCORE.INTRA.POLAR>
0

>  <SCORE.INTRA.POLAR.0>
0

>  <SCORE.INTRA.REPUL>
0

>  <SCORE.INTRA.REPUL.0>
0

>  <SCORE.INTRA.SOLV>
-0.313413

>  <SCORE.INTRA.SOLV.lig_0>
-66.3641

>  <SCORE.INTRA.VDW>
-1.37998

>  <SCORE.INTRA.VDW.0>
0.452231

>  <SCORE.INTRA.norm>
-0.179077

>  <SCORE.RESTR>
0

>  <SCORE.RESTR.CAVITY>
0

>  <SCORE.RESTR.norm>
0

>  <SCORE.SYSTEM>
0

>  <SCORE.SYSTEM.CONST>
0

>  <SCORE.SYSTEM.DIHEDRAL>
0

>  <SCORE.SYSTEM.SOLV>
0

>  <SCORE.SYSTEM.norm>
0

>  <SCORE.heavy>
23

>  <SCORE.norm>
-0.849266

>  <RMSD>
1.026

$$$$
ligand
 OpenBabel02271912143D
libRbt.so/2013.1/901 2013/11/27
 23 25  0  0  0  0  0  0  0  0999 V2000
   23.5237    0.6734   31.3954 P   0  0  1  0  0  0  0  0  0  0  0  0
   22.6939    1.3083   28.9946 C   0  0  0  0  0  0  0  0  0  0  0  0
   23.3399    1.7232   30.1902 O   0  0  0  0  0  0  0  0  0  0  0  0
   22.5367    2.5314   28.1196 C   0  0  1  0  0  0  0  0  0  0  0  0
   21.8957    2.2270   26.8814 O   0  0  0  0  0  0  0  0  0  0  0  0
   21.6835    3.5577   28.8459 C   0  0  1  0  0  0  0  0  0  0  0  0
   22.3369    4.8348   28.7452 O   0  0  0  0  0  0  0  0  0  0  0  0
   20.3395    3.5420   28.1287 C   0  0  0  0  0  0  0  0  0  0  0  0
   20.6465    2.9213   26.7684 C   0  0  2  0  0  0  0  0  0  0  0  0
   17.2953    1.2174   23.2473 N   0  0  0  0  0  0  0  0  0  0  0  0
   18.0865    2.3005   23.1801 C   0  0  2  0  0  0  0  0  0  0  0  0
   18.0297    3.0556   22.0584 N   0  0  0  0  0  0  0  0  0  0  0  0
   18.9210    2.6204   24.1985 N   0  0  0  0  0  0  0  0  0  0  0  0
   18.9589    1.8420   25.2995 C   0  0  2  0  0  0  0  0  0  0  0  0
   18.1518    0.7282   25.3849 C   0  0  1  0  0  0  0  0  0  0  0  0
   17.3150    0.4186   24.3297 C   0  0  0  0  0  0  0  0  0  0  0  0
   16.5798   -0.5909   24.3847 O   0  0  0  0  0  0  0  0  0  0  0  0
   18.3764    0.1393   26.5762 N   0  0  0  0  0  0  0  0  0  0  0  0
   19.3091    0.8687   27.2137 C   0  0  0  0  0  0  0  0  0  0  0  0
   19.6457    1.9025   26.4348 N   0  0  1  0  0  0  0  0  0  0  0  0
   24.2289   -0.5334   30.8257 O   0  0  0  0  0  0  0  0  0  0  0  0
   24.3261    1.4367   32.4239 O   0  5  0  0  0  0  0  0  0  0  0  0
   22.1047    0.3979   31.8134 O   0  0  0  0  0  0  0  0  0  0  0  0
  1  3  1  6  0  0  0
  1 21  1  0  0  0  0
  1 22  1  0  0  0  0
  1 23  2  0  0  0  0
  2  3  1  0  0  0  0
  4  2  1  1  0  0  0
  4  5  1  0  0  0  0
  4  6  1  0  0  0  0
  6  7  1  6  0  0  0
  6  8  1  0  0  0  0
  8  9  1  0  0  0  0
  9  5  1  1  0  0  0
  9 20  1  0  0  0  0
 10 11  1  0  0  0  0
 10 16  1  0  0  0  0
 11 12  1  6  0  0  0
 11 13  1  0  0  0  0
 14 13  1  1  0  0  0
 14 15  1  0  0  0  0
 14 20  1  0  0  0  0
 15 16  1  6  0  0  0
 15 18  1  0  0  0  0
 16 17  2  0  0  0  0
 18 19  1  0  0  0  0
 20 19  1  6  0  0  0
M  CHG  1  22  -1
M  END
>  <CHROM.1>
54.59472438,179.91906641,174.02144412,-115.38673217,20.72171769,1.63810918
27.54586545,0.44744354,0.80694064,2.58873539

>  <Name>
ligand

>  <RI>
416

>  <Rbt.Current_Directory>
/home/itssahil/PROJECTS/Mol_Feturizer/Test_systems_manuscript/rnas/3slm

>  <Rbt.Executable>
rbdock ($Id: //depot/dev/client3/rdock/2013.1/src/exe/rbdock.cxx#4 $)

>  <Rbt.Library>
libRbt.so (2013.1, Build901 2013/11/27)

>  <Rbt.Parameter_File>
/export/apps/rDock/src/rDock_2013.1_src/data/scripts/dock_solv.prm

>  <Rbt.Receptor>
prm/pocket_docking_2.prm

>  <SCORE>
-19.6818

>  <SCORE.INTER>
-14.3505

>  <SCORE.INTER.CONST>
1

>  <SCORE.INTER.POLAR>
0

>  <SCORE.INTER.ROT>
4

>  <SCORE.INTER.SOLV>
27.0552

>  <SCORE.INTER.VDW>
-24.8521

>  <SCORE.INTER.norm>
-0.623934

>  <SCORE.INTRA>
-5.35249

>  <SCORE.INTRA.DIHEDRAL>
-7.22252

>  <SCORE.INTRA.DIHEDRAL.0>
8.62657

>  <SCORE.INTRA.POLAR>
0

>  <SCORE.INTRA.POLAR.0>
0

>  <SCORE.INTRA.REPUL>
0

>  <SCORE.INTRA.REPUL.0>
0

>  <SCORE.INTRA.SOLV>
-0.339992

>  <SCORE.INTRA.SOLV.lig_0>
-66.3641

>  <SCORE.INTRA.VDW>
-1.57124

>  <SCORE.INTRA.VDW.0>
0.452231

>  <SCORE.INTRA.norm>
-0.232717

>  <SCORE.RESTR>
0.0211953

>  <SCORE.RESTR.CAVITY>
0.0211953

>  <SCORE.RESTR.norm>
0.000921536

>  <SCORE.SYSTEM>
0

>  <SCORE.SYSTEM.CONST>
0

>  <SCORE.SYSTEM.DIHEDRAL>
0

>  <SCORE.SYSTEM.SOLV>
0

>  <SCORE.SYSTEM.norm>
0

>  <SCORE.heavy>
23

>  <SCORE.norm>
-0.85573

>  <RMSD>
1.028

$$$$
ligand
 OpenBabel02271912143D
libRbt.so/2013.1/901 2013/11/27
 23 25  0  0  0  0  0  0  0  0999 V2000
   23.4181    0.6680   31.3182 P   0  0  1  0  0  0  0  0  0  0  0  0
   22.5955    1.3185   28.9192 C   0  0  0  0  0  0  0  0  0  0  0  0
   23.2383    1.7255   30.1192 O   0  0  0  0  0  0  0  0  0  0  0  0
   22.4434    2.5469   28.0506 C   0  0  1  0  0  0  0  0  0  0  0  0
   21.7957    2.2528   26.8134 O   0  0  0  0  0  0  0  0  0  0  0  0
   21.6000    3.5754   28.7851 C   0  0  1  0  0  0  0  0  0  0  0  0
   22.2617    4.8486   28.6880 O   0  0  0  0  0  0  0  0  0  0  0  0
   20.2532    3.5724   28.0728 C   0  0  0  0  0  0  0  0  0  0  0  0
   20.5508    2.9562   26.7085 C   0  0  2  0  0  0  0  0  0  0  0  0
   17.2259    1.2506   23.1633 N   0  0  0  0  0  0  0  0  0  0  0  0
   18.0316    2.3229   23.0936 C   0  0  2  0  0  0  0  0  0  0  0  0
   17.9994    3.0647   21.9621 N   0  0  0  0  0  0  0  0  0  0  0  0
   18.8563    2.6449   24.1192 N   0  0  0  0  0  0  0  0  0  0  0  0
   18.8697    1.8798   25.2301 C   0  0  2  0  0  0  0  0  0  0  0  0
   18.0475    0.7773   25.3182 C   0  0  1  0  0  0  0  0  0  0  0  0
   17.2211    0.4650   24.2555 C   0  0  0  0  0  0  0  0  0  0  0  0
   16.4726   -0.5344   24.3129 O   0  0  0  0  0  0  0  0  0  0  0  0
   18.2487    0.2004   26.5195 N   0  0  0  0  0  0  0  0  0  0  0  0
   19.1818    0.9260   27.1606 C   0  0  0  0  0  0  0  0  0  0  0  0
   19.5419    1.9458   26.3738 N   0  0  1  0  0  0  0  0  0  0  0  0
   24.0552   -0.5658   30.7266 O   0  0  0  0  0  0  0  0  0  0  0  0
   24.2833    1.3972   32.3202 O   0  5  0  0  0  0  0  0  0  0  0  0
   22.0032    0.4496   31.7817 O   0  0  0  0  0  0  0  0  0  0  0  0
  1  3  1  6  0  0  0
  1 21  1  0  0  0  0
  1 22  1  0  0  0  0
  1 23  2  0  0  0  0
  2  3  1  0  0  0  0
  4  2  1  1  0  0  0
  4  5  1  0  0  0  0
  4  6  1  0  0  0  0
  6  7  1  6  0  0  0
  6  8  1  0  0  0  0
  8  9  1  0  0  0  0
  9  5  1  1  0  0  0
  9 20  1  0  0  0  0
 10 11  1  0  0  0  0
 10 16  1  0  0  0  0
 11 12  1  6  0  0  0
 11 13  1  0  0  0  0
 14 13  1  1  0  0  0
 14 15  1  0  0  0  0
 14 20  1  0  0  0  0
 15 16  1  6  0  0  0
 15 18  1  0  0  0  0
 16 17  2  0  0  0  0
 18 19  1  0  0  0  0
 20 19  1  6  0  0  0
M  CHG  1  22  -1
M  END
>  <CHROM.1>
51.53471297,-179.58135504,174.10779168,-113.95740319,20.62816118,1.66014276
27.47465659,0.45929913,0.80419037,2.57869454

>  <Name>
ligand

>  <RI>
416

>  <Rbt.Current_Directory>
/home/itssahil/PROJECTS/Mol_Feturizer/Test_systems_manuscript/rnas/3slm

>  <Rbt.Executable>
rbdock ($Id: //depot/dev/client3/rdock/2013.1/src/exe/rbdock.cxx#4 $)

>  <Rbt.Library>
libRbt.so (2013.1, Build901 2013/11/27)

>  <Rbt.Parameter_File>
/export/apps/rDock/src/rDock_2013.1_src/data/scripts/dock_solv.prm

>  <Rbt.Receptor>
prm/pocket_docking_2.prm

>  <SCORE>
-19.6756

>  <SCORE.INTER>
-14.3818

>  <SCORE.INTER.CONST>
1

>  <SCORE.INTER.POLAR>
0

>  <SCORE.INTER.ROT>
4

>  <SCORE.INTER.SOLV>
26.8556

>  <SCORE.INTER.VDW>
-24.8064

>  <SCORE.INTER.norm>
-0.625296

>  <SCORE.INTRA>
-5.30377

>  <SCORE.INTRA.DIHEDRAL>
-7.16787

>  <SCORE.INTRA.DIHEDRAL.0>
8.62657

>  <SCORE.INTRA.POLAR>
0

>  <SCORE.INTRA.POLAR.0>
0

>  <SCORE.INTRA.REPUL>
0

>  <SCORE.INTRA.REPUL.0>
0

>  <SCORE.INTRA.SOLV>
-0.359128

>  <SCORE.INTRA.SOLV.lig_0>
-66.3641

>  <SCORE.INTRA.VDW>
-1.54027

>  <SCORE.INTRA.VDW.0>
0.452231

>  <SCORE.INTRA.norm>
-0.230599

>  <SCORE.RESTR>
0.00997197

>  <SCORE.RESTR.CAVITY>
0.00997197

>  <SCORE.RESTR.norm>
0.000433564

>  <SCORE.SYSTEM>
0

>  <SCORE.SYSTEM.CONST>
0

>  <SCORE.SYSTEM.DIHEDRAL>
0

>  <SCORE.SYSTEM.SOLV>
0

>  <SCORE.SYSTEM.norm>
0

>  <SCORE.heavy>
23

>  <SCORE.norm>
-0.855461

>  <RMSD>
1.032

$$$$
ligand
 OpenBabel02271912143D
libRbt.so/2013.1/901 2013/11/27
 23 25  0  0  0  0  0  0  0  0999 V2000
   22.8088    0.9721   30.6007 P   0  0  1  0  0  0  0  0  0  0  0  0
   23.1948    2.7899   28.7563 C   0  0  0  0  0  0  0  0  0  0  0  0
   22.2685    2.0790   29.5658 O   0  0  0  0  0  0  0  0  0  0  0  0
   22.4413    3.9246   28.0998 C   0  0  1  0  0  0  0  0  0  0  0  0
   21.7296    3.4960   26.9393 O   0  0  0  0  0  0  0  0  0  0  0  0
   21.4305    4.4876   29.0846 C   0  0  1  0  0  0  0  0  0  0  0  0
   21.5452    5.9211   29.0734 O   0  0  0  0  0  0  0  0  0  0  0  0
   20.0726    4.0161   28.5797 C   0  0  0  0  0  0  0  0  0  0  0  0
   20.3170    3.6675   27.1139 C   0  0  2  0  0  0  0  0  0  0  0  0
   17.7319    0.9238   23.6037 N   0  0  0  0  0  0  0  0  0  0  0  0
   18.1234    2.2062   23.5267 C   0  0  2  0  0  0  0  0  0  0  0  0
   17.8277    2.8902   22.3970 N   0  0  0  0  0  0  0  0  0  0  0  0
   18.8006    2.7922   24.5435 N   0  0  0  0  0  0  0  0  0  0  0  0
   19.0863    2.0797   25.6527 C   0  0  2  0  0  0  0  0  0  0  0  0
   18.6899    0.7633   25.7482 C   0  0  1  0  0  0  0  0  0  0  0  0
   18.0072    0.1859   24.6944 C   0  0  0  0  0  0  0  0  0  0  0  0
   17.6446   -1.0086   24.7585 O   0  0  0  0  0  0  0  0  0  0  0  0
   19.0890    0.2921   26.9461 N   0  0  0  0  0  0  0  0  0  0  0  0
   19.7264    1.2935   27.5779 C   0  0  0  0  0  0  0  0  0  0  0  0
   19.7087    2.3732   26.7888 N   0  0  1  0  0  0  0  0  0  0  0  0
   23.1232   -0.2666   29.7976 O   0  0  0  0  0  0  0  0  0  0  0  0
   24.0142    1.6256   31.2365 O   0  5  0  0  0  0  0  0  0  0  0  0
   21.6448    0.8001   31.5388 O   0  0  0  0  0  0  0  0  0  0  0  0
  1  3  1  6  0  0  0
  1 21  1  0  0  0  0
  1 22  1  0  0  0  0
  1 23  2  0  0  0  0
  2  3  1  0  0  0  0
  4  2  1  1  0  0  0
  4  5  1  0  0  0  0
  4  6  1  0  0  0  0
  6  7  1  6  0  0  0
  6  8  1  0  0  0  0
  8  9  1  0  0  0  0
  9  5  1  1  0  0  0
  9 20  1  0  0  0  0
 10 11  1  0  0  0  0
 10 16  1  0  0  0  0
 11 12  1  6  0  0  0
 11 13  1  0  0  0  0
 14 13  1  1  0  0  0
 14 15  1  0  0  0  0
 14 20  1  0  0  0  0
 15 16  1  6  0  0  0
 15 18  1  0  0  0  0
 16 17  2  0  0  0  0
 18 19  1  0  0  0  0
 20 19  1  6  0  0  0
M  CHG  1  22  -1
M  END
>  <CHROM.1>
-78.07694239,-81.92462994,-169.20806558,-102.62516327,20.60727558,2.03856654
27.52903792,0.12133165,0.91498502,2.89008106

>  <Name>
ligand

>  <RI>
416

>  <Rbt.Current_Directory>
/home/itssahil/PROJECTS/Mol_Feturizer/Test_systems_manuscript/rnas/3slm

>  <Rbt.Executable>
rbdock ($Id: //depot/dev/client3/rdock/2013.1/src/exe/rbdock.cxx#4 $)

>  <Rbt.Library>
libRbt.so (2013.1, Build901 2013/11/27)

>  <Rbt.Parameter_File>
/export/apps/rDock/src/rDock_2013.1_src/data/scripts/dock_solv.prm

>  <Rbt.Receptor>
prm/pocket_docking_2.prm

>  <SCORE>
-18.2745

>  <SCORE.INTER>
-15.0458

>  <SCORE.INTER.CONST>
1

>  <SCORE.INTER.POLAR>
0

>  <SCORE.INTER.ROT>
4

>  <SCORE.INTER.SOLV>
23.1889

>  <SCORE.INTER.VDW>
-24.0269

>  <SCORE.INTER.norm>
-0.654167

>  <SCORE.INTRA>
-3.22864

>  <SCORE.INTRA.DIHEDRAL>
-4.88539

>  <SCORE.INTRA.DIHEDRAL.0>
8.62657

>  <SCORE.INTRA.POLAR>
0

>  <SCORE.INTRA.POLAR.0>
0

>  <SCORE.INTRA.REPUL>
0

>  <SCORE.INTRA.REPUL.0>
0

>  <SCORE.INTRA.SOLV>
0.1433

>  <SCORE.INTRA.SOLV.lig_0>
-66.3641

>  <SCORE.INTRA.VDW>
-0.857589

>  <SCORE.INTRA.VDW.0>
0.452231

>  <SCORE.INTRA.norm>
-0.140375

>  <SCORE.RESTR>
0

>  <SCORE.RESTR.CAVITY>
0

>  <SCORE.RESTR.norm>
0

>  <SCORE.SYSTEM>
0

>  <SCORE.SYSTEM.CONST>
0

>  <SCORE.SYSTEM.DIHEDRAL>
0

>  <SCORE.SYSTEM.SOLV>
0

>  <SCORE.SYSTEM.norm>
0

>  <SCORE.heavy>
23

>  <SCORE.norm>
-0.794543

>  <RMSD>
1.034

$$$$
ligand
 OpenBabel02271912143D
libRbt.so/2013.1/901 2013/11/27
 23 25  0  0  0  0  0  0  0  0999 V2000
   23.5338    0.6834   31.3049 P   0  0  1  0  0  0  0  0  0  0  0  0
   22.5772    1.3509   28.9609 C   0  0  0  0  0  0  0  0  0  0  0  0
   23.2447    1.7613   30.1462 O   0  0  0  0  0  0  0  0  0  0  0  0
   22.4250    2.5729   28.0834 C   0  0  1  0  0  0  0  0  0  0  0  0
   21.7920    2.2667   26.8415 O   0  0  0  0  0  0  0  0  0  0  0  0
   21.5667    3.5996   28.8030 C   0  0  1  0  0  0  0  0  0  0  0  0
   22.2200    4.8770   28.7049 O   0  0  0  0  0  0  0  0  0  0  0  0
   20.2272    3.5824   28.0772 C   0  0  0  0  0  0  0  0  0  0  0  0
   20.5432    2.9602   26.7197 C   0  0  2  0  0  0  0  0  0  0  0  0
   17.2380    1.2323   23.1669 N   0  0  0  0  0  0  0  0  0  0  0  0
   18.0324    2.3132   23.1014 C   0  0  2  0  0  0  0  0  0  0  0  0
   17.9929    3.0586   21.9725 N   0  0  0  0  0  0  0  0  0  0  0  0
   18.8532    2.6403   24.1285 N   0  0  0  0  0  0  0  0  0  0  0  0
   18.8741    1.8714   25.2367 C   0  0  2  0  0  0  0  0  0  0  0  0
   18.0636    0.7600   25.3205 C   0  0  1  0  0  0  0  0  0  0  0  0
   17.2409    0.4428   24.2564 C   0  0  0  0  0  0  0  0  0  0  0  0
   16.5030   -0.5646   24.3099 O   0  0  0  0  0  0  0  0  0  0  0  0
   18.2702    0.1811   26.5199 N   0  0  0  0  0  0  0  0  0  0  0  0
   19.1954    0.9142   27.1640 C   0  0  0  0  0  0  0  0  0  0  0  0
   19.5450    1.9405   26.3809 N   0  0  1  0  0  0  0  0  0  0  0  0
   22.2118    0.0426   31.6513 O   0  0  0  0  0  0  0  0  0  0  0  0
   24.5395   -0.2583   30.6837 O   0  5  0  0  0  0  0  0  0  0  0  0
   24.0983    1.5316   32.4123 O   0  0  0  0  0  0  0  0  0  0  0  0
  1  3  1  6  0  0  0
  1 21  1  0  0  0  0
  1 22  1  0  0  0  0
  1 23  2  0  0  0  0
  2  3  1  0  0  0  0
  4  2  1  1  0  0  0
  4  5  1  0  0  0  0
  4  6  1  0  0  0  0
  6  7  1  6  0  0  0
  6  8  1  0  0  0  0
  8  9  1  0  0  0  0
  9  5  1  1  0  0  0
  9 20  1  0  0  0  0
 10 11  1  0  0  0  0
 10 16  1  0  0  0  0
 11 12  1  6  0  0  0
 11 13  1  0  0  0  0
 14 13  1  1  0  0  0
 14 15  1  0  0  0  0
 14 20  1  0  0  0  0
 15 16  1  6  0  0  0
 15 18  1  0  0  0  0
 16 17  2  0  0  0  0
 18 19  1  0  0  0  0
 20 19  1  6  0  0  0
M  CHG  1  22  -1
M  END
>  <CHROM.1>
-54.25855522,178.52204289,178.84775865,-114.75747223,20.66112000,1.66460458
27.47914181,0.42876228,0.80790549,2.61237305

>  <Name>
ligand

>  <RI>
416

>  <Rbt.Current_Directory>
/home/itssahil/PROJECTS/Mol_Feturizer/Test_systems_manuscript/rnas/3slm

>  <Rbt.Executable>
rbdock ($Id: //depot/dev/client3/rdock/2013.1/src/exe/rbdock.cxx#4 $)

>  <Rbt.Library>
libRbt.so (2013.1, Build901 2013/11/27)

>  <Rbt.Parameter_File>
/export/apps/rDock/src/rDock_2013.1_src/data/scripts/dock_solv.prm

>  <Rbt.Receptor>
prm/pocket_docking_2.prm

>  <SCORE>
-20.3869

>  <SCORE.INTER>
-14.8379

>  <SCORE.INTER.CONST>
1

>  <SCORE.INTER.POLAR>
0

>  <SCORE.INTER.ROT>
4

>  <SCORE.INTER.SOLV>
25.567

>  <SCORE.INTER.VDW>
-24.681

>  <SCORE.INTER.norm>
-0.645127

>  <SCORE.INTRA>
-5.57849

>  <SCORE.INTRA.DIHEDRAL>
-7.35998

>  <SCORE.INTRA.DIHEDRAL.0>
8.62657

>  <SCORE.INTRA.POLAR>
0

>  <SCORE.INTRA.POLAR.0>
0

>  <SCORE.INTRA.REPUL>
0

>  <SCORE.INTRA.REPUL.0>
0

>  <SCORE.INTRA.SOLV>
-0.570532

>  <SCORE.INTRA.SOLV.lig_0>
-66.3641

>  <SCORE.INTRA.VDW>
-1.61323

>  <SCORE.INTRA.VDW.0>
0.452231

>  <SCORE.INTRA.norm>
-0.242543

>  <SCORE.RESTR>
0.0294923

>  <SCORE.RESTR.CAVITY>
0.0294923

>  <SCORE.RESTR.norm>
0.00128227

>  <SCORE.SYSTEM>
0

>  <SCORE.SYSTEM.CONST>
0

>  <SCORE.SYSTEM.DIHEDRAL>
0

>  <SCORE.SYSTEM.SOLV>
0

>  <SCORE.SYSTEM.norm>
0

>  <SCORE.heavy>
23

>  <SCORE.norm>
-0.886388

>  <RMSD>
1.035

$$$$
ligand
 OpenBabel02271912143D
libRbt.so/2013.1/901 2013/11/27
 23 25  0  0  0  0  0  0  0  0999 V2000
   22.7837    0.9860   30.6315 P   0  0  1  0  0  0  0  0  0  0  0  0
   23.1787    2.7633   28.7499 C   0  0  0  0  0  0  0  0  0  0  0  0
   22.2513    2.0916   29.5911 O   0  0  0  0  0  0  0  0  0  0  0  0
   22.4416    3.9061   28.0887 C   0  0  1  0  0  0  0  0  0  0  0  0
   21.7191    3.4820   26.9333 O   0  0  0  0  0  0  0  0  0  0  0  0
   21.4434    4.4916   29.0733 C   0  0  1  0  0  0  0  0  0  0  0  0
   21.5814    5.9229   29.0528 O   0  0  0  0  0  0  0  0  0  0  0  0
   20.0764    4.0392   28.5757 C   0  0  0  0  0  0  0  0  0  0  0  0
   20.3101    3.6776   27.1114 C   0  0  2  0  0  0  0  0  0  0  0  0
   17.6960    0.9446   23.6143 N   0  0  0  0  0  0  0  0  0  0  0  0
   18.1119    2.2186   23.5261 C   0  0  2  0  0  0  0  0  0  0  0  0
   17.8361    2.8956   22.3872 N   0  0  0  0  0  0  0  0  0  0  0  0
   18.7937    2.8028   24.5408 N   0  0  0  0  0  0  0  0  0  0  0  0
   19.0590    2.0972   25.6595 C   0  0  2  0  0  0  0  0  0  0  0  0
   18.6374    0.7896   25.7666 C   0  0  1  0  0  0  0  0  0  0  0  0
   17.9507    0.2136   24.7147 C   0  0  0  0  0  0  0  0  0  0  0  0
   17.5653   -0.9731   24.7894 O   0  0  0  0  0  0  0  0  0  0  0  0
   19.0202    0.3240   26.9720 N   0  0  0  0  0  0  0  0  0  0  0  0
   19.6723    1.3202   27.5971 C   0  0  0  0  0  0  0  0  0  0  0  0
   19.6797    2.3914   26.7963 N   0  0  1  0  0  0  0  0  0  0  0  0
   23.0664   -0.2665   29.8381 O   0  0  0  0  0  0  0  0  0  0  0  0
   24.0079    1.6243   31.2465 O   0  5  0  0  0  0  0  0  0  0  0  0
   21.6277    0.8450   31.5845 O   0  0  0  0  0  0  0  0  0  0  0  0
  1  3  1  6  0  0  0
  1 21  1  0  0  0  0
  1 22  1  0  0  0  0
  1 23  2  0  0  0  0
  2  3  1  0  0  0  0
  4  2  1  1  0  0  0
  4  5  1  0  0  0  0
  4  6  1  0  0  0  0
  6  7  1  6  0  0  0
  6  8  1  0  0  0  0
  8  9  1  0  0  0  0
  9  5  1  1  0  0  0
  9 20  1  0  0  0  0
 10 11  1  0  0  0  0
 10 16  1  0  0  0  0
 11 12  1  6  0  0  0
 11 13  1  0  0  0  0
 14 13  1  1  0  0  0
 14 15  1  0  0  0  0
 14 20  1  0  0  0  0
 15 16  1  6  0  0  0
 15 18  1  0  0  0  0
 16 17  2  0  0  0  0
 18 19  1  0  0  0  0
 20 19  1  6  0  0  0
M  CHG  1  22  -1
M  END
>  <CHROM.1>
-77.16931409,-83.26696549,-169.37525605,-101.99799117,20.58505354,2.05074735
27.53994352,0.14694841,0.91119293,2.86041136

>  <Name>
ligand

>  <RI>
416

>  <Rbt.Current_Directory>
/home/itssahil/PROJECTS/Mol_Feturizer/Test_systems_manuscript/rnas/3slm

>  <Rbt.Executable>
rbdock ($Id: //depot/dev/client3/rdock/2013.1/src/exe/rbdock.cxx#4 $)

>  <Rbt.Library>
libRbt.so (2013.1, Build901 2013/11/27)

>  <Rbt.Parameter_File>
/export/apps/rDock/src/rDock_2013.1_src/data/scripts/dock_solv.prm

>  <Rbt.Receptor>
prm/pocket_docking_2.prm

>  <SCORE>
-18.1806

>  <SCORE.INTER>
-15.1001

>  <SCORE.INTER.CONST>
1

>  <SCORE.INTER.POLAR>
0

>  <SCORE.INTER.ROT>
4

>  <SCORE.INTER.SOLV>
23.2272

>  <SCORE.INTER.VDW>
-24.0758

>  <SCORE.INTER.norm>
-0.656528

>  <SCORE.INTRA>
-3.08669

>  <SCORE.INTRA.DIHEDRAL>
-4.77625

>  <SCORE.INTRA.DIHEDRAL.0>
8.62657

>  <SCORE.INTRA.POLAR>
0

>  <SCORE.INTRA.POLAR.0>
0

>  <SCORE.INTRA.REPUL>
0

>  <SCORE.INTRA.REPUL.0>
0

>  <SCORE.INTRA.SOLV>
0.13595

>  <SCORE.INTRA.SOLV.lig_0>
-66.3641

>  <SCORE.INTRA.VDW>
-0.766538

>  <SCORE.INTRA.VDW.0>
0.452231

>  <SCORE.INTRA.norm>
-0.134204

>  <SCORE.RESTR>
0.0062331

>  <SCORE.RESTR.CAVITY>
0.0062331

>  <SCORE.RESTR.norm>
0.000271004

>  <SCORE.SYSTEM>
0

>  <SCORE.SYSTEM.CONST>
0

>  <SCORE.SYSTEM.DIHEDRAL>
0

>  <SCORE.SYSTEM.SOLV>
0

>  <SCORE.SYSTEM.norm>
0

>  <SCORE.heavy>
23

>  <SCORE.norm>
-0.790461

>  <RMSD>
1.035

$$$$
ligand
 OpenBabel02271912143D
libRbt.so/2013.1/901 2013/11/27
 23 25  0  0  0  0  0  0  0  0999 V2000
   22.4721    1.2347   31.0915 P   0  0  1  0  0  0  0  0  0  0  0  0
   23.2241    2.8682   29.1885 C   0  0  0  0  0  0  0  0  0  0  0  0
   22.1513    2.2537   29.8885 O   0  0  0  0  0  0  0  0  0  0  0  0
   22.6461    4.0232   28.4021 C   0  0  1  0  0  0  0  0  0  0  0  0
   21.9985    3.5883   27.2069 O   0  0  0  0  0  0  0  0  0  0  0  0
   21.6146    4.7411   29.2560 C   0  0  1  0  0  0  0  0  0  0  0  0
   21.8709    6.1538   29.1745 O   0  0  0  0  0  0  0  0  0  0  0  0
   20.2655    4.3666   28.6553 C   0  0  0  0  0  0  0  0  0  0  0  0
   20.6001    3.9020   27.2403 C   0  0  2  0  0  0  0  0  0  0  0  0
   17.8926    1.2718   23.7356 N   0  0  0  0  0  0  0  0  0  0  0  0
   18.3889    2.5156   23.6343 C   0  0  2  0  0  0  0  0  0  0  0  0
   18.1793    3.1871   22.4781 N   0  0  0  0  0  0  0  0  0  0  0  0
   19.0849    3.0752   24.6532 N   0  0  0  0  0  0  0  0  0  0  0  0
   19.2828    2.3755   25.7894 C   0  0  2  0  0  0  0  0  0  0  0  0
   18.7782    1.0987   25.9100 C   0  0  1  0  0  0  0  0  0  0  0  0
   18.0785    0.5470   24.8537 C   0  0  0  0  0  0  0  0  0  0  0  0
   17.6184   -0.6120   24.9405 O   0  0  0  0  0  0  0  0  0  0  0  0
   19.1065    0.6329   27.1313 N   0  0  0  0  0  0  0  0  0  0  0  0
   19.8066    1.5981   27.7529 C   0  0  0  0  0  0  0  0  0  0  0  0
   19.8972    2.6517   26.9341 N   0  0  1  0  0  0  0  0  0  0  0  0
   23.4563    1.9252   32.0040 O   0  0  0  0  0  0  0  0  0  0  0  0
   21.1212    0.9717   31.7160 O   0  5  0  0  0  0  0  0  0  0  0  0
   23.0515    0.0464   30.3727 O   0  0  0  0  0  0  0  0  0  0  0  0
  1  3  1  6  0  0  0
  1 21  1  0  0  0  0
  1 22  1  0  0  0  0
  1 23  2  0  0  0  0
  2  3  1  0  0  0  0
  4  2  1  1  0  0  0
  4  5  1  0  0  0  0
  4  6  1  0  0  0  0
  6  7  1  6  0  0  0
  6  8  1  0  0  0  0
  8  9  1  0  0  0  0
  9  5  1  1  0  0  0
  9 20  1  0  0  0  0
 10 11  1  0  0  0  0
 10 16  1  0  0  0  0
 11 12  1  6  0  0  0
 11 13  1  0  0  0  0
 14 13  1  1  0  0  0
 14 15  1  0  0  0  0
 14 20  1  0  0  0  0
 15 16  1  6  0  0  0
 15 18  1  0  0  0  0
 16 17  2  0  0  0  0
 18 19  1  0  0  0  0
 20 19  1  6  0  0  0
M  CHG  1  22  -1
M  END
>  <CHROM.1>
49.92160119,-78.66008453,-164.86375227,-106.75062806,20.64454617,2.30207259
27.78323441,0.32314888,0.94568200,2.67311523

>  <Name>
ligand

>  <RI>
416

>  <Rbt.Current_Directory>
/home/itssahil/PROJECTS/Mol_Feturizer/Test_systems_manuscript/rnas/3slm

>  <Rbt.Executable>
rbdock ($Id: //depot/dev/client3/rdock/2013.1/src/exe/rbdock.cxx#4 $)

>  <Rbt.Library>
libRbt.so (2013.1, Build901 2013/11/27)

>  <Rbt.Parameter_File>
/export/apps/rDock/src/rDock_2013.1_src/data/scripts/dock_solv.prm

>  <Rbt.Receptor>
prm/pocket_docking_5.prm

>  <SCORE>
-19.5699

>  <SCORE.INTER>
-15.5795

>  <SCORE.INTER.CONST>
1

>  <SCORE.INTER.POLAR>
0

>  <SCORE.INTER.ROT>
4

>  <SCORE.INTER.SOLV>
25.0428

>  <SCORE.INTER.VDW>
-25.0006

>  <SCORE.INTER.norm>
-0.67737

>  <SCORE.INTRA>
-3.99038

>  <SCORE.INTRA.DIHEDRAL>
-5.08125

>  <SCORE.INTRA.DIHEDRAL.0>
8.62657

>  <SCORE.INTRA.POLAR>
0

>  <SCORE.INTRA.POLAR.0>
0

>  <SCORE.INTRA.REPUL>
0

>  <SCORE.INTRA.REPUL.0>
0

>  <SCORE.INTRA.SOLV>
-0.295011

>  <SCORE.INTRA.SOLV.lig_0>
-66.3641

>  <SCORE.INTRA.VDW>
-1.30224

>  <SCORE.INTRA.VDW.0>
0.452231

>  <SCORE.INTRA.norm>
-0.173495

>  <SCORE.RESTR>
0

>  <SCORE.RESTR.CAVITY>
0

>  <SCORE.RESTR.norm>
0

>  <SCORE.SYSTEM>
0

>  <SCORE.SYSTEM.CONST>
0

>  <SCORE.SYSTEM.DIHEDRAL>
0

>  <SCORE.SYSTEM.SOLV>
0

>  <SCORE.SYSTEM.norm>
0

>  <SCORE.heavy>
23

>  <SCORE.norm>
-0.850865

>  <RMSD>
1.040

$$$$
ligand
 OpenBabel02271912143D
libRbt.so/2013.1/901 2013/11/27
 23 25  0  0  0  0  0  0  0  0999 V2000
   22.7385    0.9910   30.6919 P   0  0  1  0  0  0  0  0  0  0  0  0
   23.1695    2.7700   28.8198 C   0  0  0  0  0  0  0  0  0  0  0  0
   22.2253    2.0914   29.6364 O   0  0  0  0  0  0  0  0  0  0  0  0
   22.4418    3.9081   28.1404 C   0  0  1  0  0  0  0  0  0  0  0  0
   21.7480    3.4787   26.9694 O   0  0  0  0  0  0  0  0  0  0  0  0
   21.4186    4.4898   29.1011 C   0  0  1  0  0  0  0  0  0  0  0  0
   21.5498    5.9218   29.0816 O   0  0  0  0  0  0  0  0  0  0  0  0
   20.0655    4.0298   28.5732 C   0  0  0  0  0  0  0  0  0  0  0  0
   20.3343    3.6674   27.1151 C   0  0  2  0  0  0  0  0  0  0  0  0
   17.8537    0.9017   23.5473 N   0  0  0  0  0  0  0  0  0  0  0  0
   18.2706    2.1756   23.4640 C   0  0  2  0  0  0  0  0  0  0  0  0
   18.0356    2.8430   22.3103 N   0  0  0  0  0  0  0  0  0  0  0  0
   18.9140    2.7692   24.4982 N   0  0  0  0  0  0  0  0  0  0  0  0
   19.1394    2.0731   25.6315 C   0  0  2  0  0  0  0  0  0  0  0  0
   18.7161    0.7656   25.7337 C   0  0  1  0  0  0  0  0  0  0  0  0
   18.0691    0.1800   24.6622 C   0  0  0  0  0  0  0  0  0  0  0  0
   17.6830   -1.0068   24.7324 O   0  0  0  0  0  0  0  0  0  0  0  0
   19.0554    0.3105   26.9560 N   0  0  0  0  0  0  0  0  0  0  0  0
   19.6827    1.3129   27.5964 C   0  0  0  0  0  0  0  0  0  0  0  0
   19.7178    2.3776   26.7878 N   0  0  1  0  0  0  0  0  0  0  0  0
   23.0590   -0.2576   29.9069 O   0  0  0  0  0  0  0  0  0  0  0  0
   23.9363    1.6425   31.3438 O   0  5  0  0  0  0  0  0  0  0  0  0
   21.5560    0.8363   31.6097 O   0  0  0  0  0  0  0  0  0  0  0  0
  1  3  1  6  0  0  0
  1 21  1  0  0  0  0
  1 22  1  0  0  0  0
  1 23  2  0  0  0  0
  2  3  1  0  0  0  0
  4  2  1  1  0  0  0
  4  5  1  0  0  0  0
  4  6  1  0  0  0  0
  6  7  1  6  0  0  0
  6  8  1  0  0  0  0
  8  9  1  0  0  0  0
  9  5  1  1  0  0  0
  9 20  1  0  0  0  0
 10 11  1  0  0  0  0
 10 16  1  0  0  0  0
 11 12  1  6  0  0  0
 11 13  1  0  0  0  0
 14 13  1  1  0  0  0
 14 15  1  0  0  0  0
 14 20  1  0  0  0  0
 15 16  1  6  0  0  0
 15 18  1  0  0  0  0
 16 17  2  0  0  0  0
 18 19  1  0  0  0  0
 20 19  1  6  0  0  0
M  CHG  1  22  -1
M  END
>  <CHROM.1>
-76.90284952,-83.03052661,-169.24787714,-101.10184286,20.61562766,2.03866645
27.54800117,0.15043785,0.93897477,2.85432790

>  <Name>
ligand

>  <RI>
416

>  <Rbt.Current_Directory>
/home/itssahil/PROJECTS/Mol_Feturizer/Test_systems_manuscript/rnas/3slm

>  <Rbt.Executable>
rbdock ($Id: //depot/dev/client3/rdock/2013.1/src/exe/rbdock.cxx#4 $)

>  <Rbt.Library>
libRbt.so (2013.1, Build901 2013/11/27)

>  <Rbt.Parameter_File>
/export/apps/rDock/src/rDock_2013.1_src/data/scripts/dock_solv.prm

>  <Rbt.Receptor>
prm/pocket_docking_2.prm

>  <SCORE>
-18.2144

>  <SCORE.INTER>
-15.1168

>  <SCORE.INTER.CONST>
1

>  <SCORE.INTER.POLAR>
0

>  <SCORE.INTER.ROT>
4

>  <SCORE.INTER.SOLV>
23.6932

>  <SCORE.INTER.VDW>
-24.2422

>  <SCORE.INTER.norm>
-0.657251

>  <SCORE.INTRA>
-3.1016

>  <SCORE.INTRA.DIHEDRAL>
-4.80848

>  <SCORE.INTRA.DIHEDRAL.0>
8.62657

>  <SCORE.INTRA.POLAR>
0

>  <SCORE.INTRA.POLAR.0>
0

>  <SCORE.INTRA.REPUL>
0

>  <SCORE.INTRA.REPUL.0>
0

>  <SCORE.INTRA.SOLV>
0.137404

>  <SCORE.INTRA.SOLV.lig_0>
-66.3641

>  <SCORE.INTRA.VDW>
-0.766061

>  <SCORE.INTRA.VDW.0>
0.452231

>  <SCORE.INTRA.norm>
-0.134852

>  <SCORE.RESTR>
0.00397168

>  <SCORE.RESTR.CAVITY>
0.00397168

>  <SCORE.RESTR.norm>
0.000172682

>  <SCORE.SYSTEM>
0

>  <SCORE.SYSTEM.CONST>
0

>  <SCORE.SYSTEM.DIHEDRAL>
0

>  <SCORE.SYSTEM.SOLV>
0

>  <SCORE.SYSTEM.norm>
0

>  <SCORE.heavy>
23

>  <SCORE.norm>
-0.79193

>  <RMSD>
1.050

$$$$
ligand
 OpenBabel02271912143D
libRbt.so/2013.1/901 2013/11/27
 23 25  0  0  0  0  0  0  0  0999 V2000
   22.7933    1.0057   30.6150 P   0  0  1  0  0  0  0  0  0  0  0  0
   23.1536    2.8239   28.7657 C   0  0  0  0  0  0  0  0  0  0  0  0
   22.2409    2.1281   29.6034 O   0  0  0  0  0  0  0  0  0  0  0  0
   22.3943    3.9595   28.1175 C   0  0  1  0  0  0  0  0  0  0  0  0
   21.6827    3.5353   26.9554 O   0  0  0  0  0  0  0  0  0  0  0  0
   21.3827    4.5120   29.1074 C   0  0  1  0  0  0  0  0  0  0  0  0
   21.4913    5.9460   29.1050 O   0  0  0  0  0  0  0  0  0  0  0  0
   20.0260    4.0380   28.6015 C   0  0  0  0  0  0  0  0  0  0  0  0
   20.2697    3.6997   27.1331 C   0  0  2  0  0  0  0  0  0  0  0  0
   17.7267    0.9549   23.5932 N   0  0  0  0  0  0  0  0  0  0  0  0
   18.1177    2.2377   23.5211 C   0  0  2  0  0  0  0  0  0  0  0  0
   17.8340    2.9219   22.3884 N   0  0  0  0  0  0  0  0  0  0  0  0
   18.7830    2.8239   24.5456 N   0  0  0  0  0  0  0  0  0  0  0  0
   19.0570    2.1113   25.6577 C   0  0  2  0  0  0  0  0  0  0  0  0
   18.6608    0.7944   25.7482 C   0  0  1  0  0  0  0  0  0  0  0  0
   17.9905    0.2168   24.6867 C   0  0  0  0  0  0  0  0  0  0  0  0
   17.6284   -0.9780   24.7463 O   0  0  0  0  0  0  0  0  0  0  0  0
   19.0470    0.3231   26.9503 N   0  0  0  0  0  0  0  0  0  0  0  0
   19.6763    1.3249   27.5896 C   0  0  0  0  0  0  0  0  0  0  0  0
   19.6664    2.4049   26.8008 N   0  0  1  0  0  0  0  0  0  0  0  0
   23.1014   -0.2195   29.7890 O   0  0  0  0  0  0  0  0  0  0  0  0
   24.0039    1.6510   31.2491 O   0  5  0  0  0  0  0  0  0  0  0  0
   21.6390    0.8168   31.5617 O   0  0  0  0  0  0  0  0  0  0  0  0
  1  3  1  6  0  0  0
  1 21  1  0  0  0  0
  1 22  1  0  0  0  0
  1 23  2  0  0  0  0
  2  3  1  0  0  0  0
  4  2  1  1  0  0  0
  4  5  1  0  0  0  0
  4  6  1  0  0  0  0
  6  7  1  6  0  0  0
  6  8  1  0  0  0  0
  8  9  1  0  0  0  0
  9  5  1  1  0  0  0
  9 20  1  0  0  0  0
 10 11  1  0  0  0  0
 10 16  1  0  0  0  0
 11 12  1  6  0  0  0
 11 13  1  0  0  0  0
 14 13  1  1  0  0  0
 14 15  1  0  0  0  0
 14 20  1  0  0  0  0
 15 16  1  6  0  0  0
 15 18  1  0  0  0  0
 16 17  2  0  0  0  0
 18 19  1  0  0  0  0
 20 19  1  6  0  0  0
M  CHG  1  22  -1
M  END
>  <CHROM.1>
-76.09820358,-83.64144114,-170.35750811,-101.80405994,20.57943643,2.07039877
27.53870123,0.11439629,0.91868917,2.89971923

>  <Name>
ligand

>  <RI>
416

>  <Rbt.Current_Directory>
/home/itssahil/PROJECTS/Mol_Feturizer/Test_systems_manuscript/rnas/3slm

>  <Rbt.Executable>
rbdock ($Id: //depot/dev/client3/rdock/2013.1/src/exe/rbdock.cxx#4 $)

>  <Rbt.Library>
libRbt.so (2013.1, Build901 2013/11/27)

>  <Rbt.Parameter_File>
/export/apps/rDock/src/rDock_2013.1_src/data/scripts/dock_solv.prm

>  <Rbt.Receptor>
prm/pocket_docking_2.prm

>  <SCORE>
-18.2553

>  <SCORE.INTER>
-15.1188

>  <SCORE.INTER.CONST>
1

>  <SCORE.INTER.POLAR>
0

>  <SCORE.INTER.ROT>
4

>  <SCORE.INTER.SOLV>
23.2403

>  <SCORE.INTER.VDW>
-24.0927

>  <SCORE.INTER.norm>
-0.657341

>  <SCORE.INTRA>
-3.13643

>  <SCORE.INTRA.DIHEDRAL>
-4.87182

>  <SCORE.INTRA.DIHEDRAL.0>
8.62657

>  <SCORE.INTRA.POLAR>
0

>  <SCORE.INTRA.POLAR.0>
0

>  <SCORE.INTRA.REPUL>
0

>  <SCORE.INTRA.REPUL.0>
0

>  <SCORE.INTRA.SOLV>
0.105763

>  <SCORE.INTRA.SOLV.lig_0>
-66.3641

>  <SCORE.INTRA.VDW>
-0.753406

>  <SCORE.INTRA.VDW.0>
0.452231

>  <SCORE.INTRA.norm>
-0.136367

>  <SCORE.RESTR>
0

>  <SCORE.RESTR.CAVITY>
0

>  <SCORE.RESTR.norm>
0

>  <SCORE.SYSTEM>
0

>  <SCORE.SYSTEM.CONST>
0

>  <SCORE.SYSTEM.DIHEDRAL>
0

>  <SCORE.SYSTEM.SOLV>
0

>  <SCORE.SYSTEM.norm>
0

>  <SCORE.heavy>
23

>  <SCORE.norm>
-0.793707

>  <RMSD>
1.052

$$$$
ligand
 OpenBabel02271912143D
libRbt.so/2013.1/901 2013/11/27
 23 25  0  0  0  0  0  0  0  0999 V2000
   22.7118    0.9858   30.6775 P   0  0  1  0  0  0  0  0  0  0  0  0
   23.1465    2.7694   28.8107 C   0  0  0  0  0  0  0  0  0  0  0  0
   22.2024    2.1007   29.6355 O   0  0  0  0  0  0  0  0  0  0  0  0
   22.4243    3.9135   28.1354 C   0  0  1  0  0  0  0  0  0  0  0  0
   21.7294    3.4920   26.9622 O   0  0  0  0  0  0  0  0  0  0  0  0
   21.4029    4.4957   29.0979 C   0  0  1  0  0  0  0  0  0  0  0  0
   21.5403    5.9271   29.0843 O   0  0  0  0  0  0  0  0  0  0  0  0
   20.0482    4.0437   28.5672 C   0  0  0  0  0  0  0  0  0  0  0  0
   20.3165    3.6862   27.1077 C   0  0  2  0  0  0  0  0  0  0  0  0
   17.7128    0.9882   23.5760 N   0  0  0  0  0  0  0  0  0  0  0  0
   18.1192    2.2663   23.5062 C   0  0  2  0  0  0  0  0  0  0  0  0
   17.8354    2.9588   22.3786 N   0  0  0  0  0  0  0  0  0  0  0  0
   18.7994    2.8399   24.5280 N   0  0  0  0  0  0  0  0  0  0  0  0
   19.0730    2.1192   25.6351 C   0  0  2  0  0  0  0  0  0  0  0  0
   18.6611    0.8070   25.7231 C   0  0  1  0  0  0  0  0  0  0  0  0
   17.9757    0.2423   24.6643 C   0  0  0  0  0  0  0  0  0  0  0  0
   17.5992   -0.9483   24.7217 O   0  0  0  0  0  0  0  0  0  0  0  0
   19.0506    0.3258   26.9202 N   0  0  0  0  0  0  0  0  0  0  0  0
   19.6971    1.3170   27.5589 C   0  0  0  0  0  0  0  0  0  0  0  0
   19.6946    2.4004   26.7746 N   0  0  1  0  0  0  0  0  0  0  0  0
   23.0407   -0.2499   29.8758 O   0  0  0  0  0  0  0  0  0  0  0  0
   23.9037    1.6305   31.3469 O   0  5  0  0  0  0  0  0  0  0  0  0
   21.5239    0.8142   31.5852 O   0  0  0  0  0  0  0  0  0  0  0  0
  1  3  1  6  0  0  0
  1 21  1  0  0  0  0
  1 22  1  0  0  0  0
  1 23  2  0  0  0  0
  2  3  1  0  0  0  0
  4  2  1  1  0  0  0
  4  5  1  0  0  0  0
  4  6  1  0  0  0  0
  6  7  1  6  0  0  0
  6  8  1  0  0  0  0
  8  9  1  0  0  0  0
  9  5  1  1  0  0  0
  9 20  1  0  0  0  0
 10 11  1  0  0  0  0
 10 16  1  0  0  0  0
 11 12  1  6  0  0  0
 11 13  1  0  0  0  0
 14 13  1  1  0  0  0
 14 15  1  0  0  0  0
 14 20  1  0  0  0  0
 15 16  1  6  0  0  0
 15 18  1  0  0  0  0
 16 17  2  0  0  0  0
 18 19  1  0  0  0  0
 20 19  1  6  0  0  0
M  CHG  1  22  -1
M  END
>  <CHROM.1>
-75.28163183,-83.67522035,-169.88655527,-103.70592649,20.56701435,2.06417053
27.54544592,0.15414186,0.92511473,2.86147043

>  <Name>
ligand

>  <RI>
416

>  <Rbt.Current_Directory>
/home/itssahil/PROJECTS/Mol_Feturizer/Test_systems_manuscript/rnas/3slm

>  <Rbt.Executable>
rbdock ($Id: //depot/dev/client3/rdock/2013.1/src/exe/rbdock.cxx#4 $)

>  <Rbt.Library>
libRbt.so (2013.1, Build901 2013/11/27)

>  <Rbt.Parameter_File>
/export/apps/rDock/src/rDock_2013.1_src/data/scripts/dock_solv.prm

>  <Rbt.Receptor>
prm/pocket_docking_2.prm

>  <SCORE>
-18.2902

>  <SCORE.INTER>
-15.1096

>  <SCORE.INTER.CONST>
1

>  <SCORE.INTER.POLAR>
0

>  <SCORE.INTER.ROT>
4

>  <SCORE.INTER.SOLV>
23.4218

>  <SCORE.INTER.VDW>
-24.147

>  <SCORE.INTER.norm>
-0.656937

>  <SCORE.INTRA>
-3.18129

>  <SCORE.INTRA.DIHEDRAL>
-4.85625

>  <SCORE.INTRA.DIHEDRAL.0>
8.62657

>  <SCORE.INTRA.POLAR>
0

>  <SCORE.INTRA.POLAR.0>
0

>  <SCORE.INTRA.REPUL>
0

>  <SCORE.INTRA.REPUL.0>
0

>  <SCORE.INTRA.SOLV>
0.109267

>  <SCORE.INTRA.SOLV.lig_0>
-66.3641

>  <SCORE.INTRA.VDW>
-0.807797

>  <SCORE.INTRA.VDW.0>
0.452231

>  <SCORE.INTRA.norm>
-0.138317

>  <SCORE.RESTR>
0.000686456

>  <SCORE.RESTR.CAVITY>
0.000686456

>  <SCORE.RESTR.norm>
2.98459e-05

>  <SCORE.SYSTEM>
0

>  <SCORE.SYSTEM.CONST>
0

>  <SCORE.SYSTEM.DIHEDRAL>
0

>  <SCORE.SYSTEM.SOLV>
0

>  <SCORE.SYSTEM.norm>
0

>  <SCORE.heavy>
23

>  <SCORE.norm>
-0.795224

>  <RMSD>
1.054

$$$$
ligand
 OpenBabel02271912143D
libRbt.so/2013.1/901 2013/11/27
 23 25  0  0  0  0  0  0  0  0999 V2000
   22.7325    1.0002   30.6692 P   0  0  1  0  0  0  0  0  0  0  0  0
   23.1695    2.7826   28.8018 C   0  0  0  0  0  0  0  0  0  0  0  0
   22.2224    2.0994   29.6111 O   0  0  0  0  0  0  0  0  0  0  0  0
   22.4431    3.9213   28.1219 C   0  0  1  0  0  0  0  0  0  0  0  0
   21.7496    3.4924   26.9506 O   0  0  0  0  0  0  0  0  0  0  0  0
   21.4198    4.5038   29.0821 C   0  0  1  0  0  0  0  0  0  0  0  0
   21.5520    5.9357   29.0625 O   0  0  0  0  0  0  0  0  0  0  0  0
   20.0666    4.0448   28.5534 C   0  0  0  0  0  0  0  0  0  0  0  0
   20.3360    3.6821   27.0955 C   0  0  2  0  0  0  0  0  0  0  0  0
   17.7235    0.9667   23.5836 N   0  0  0  0  0  0  0  0  0  0  0  0
   18.1228    2.2468   23.5099 C   0  0  2  0  0  0  0  0  0  0  0  0
   17.8281    2.9365   22.3833 N   0  0  0  0  0  0  0  0  0  0  0  0
   18.8067    2.8250   24.5266 N   0  0  0  0  0  0  0  0  0  0  0  0
   19.0911    2.1070   25.6326 C   0  0  2  0  0  0  0  0  0  0  0  0
   18.6867    0.7928   25.7247 C   0  0  1  0  0  0  0  0  0  0  0  0
   17.9974    0.2233   24.6711 C   0  0  0  0  0  0  0  0  0  0  0  0
   17.6275   -0.9691   24.7322 O   0  0  0  0  0  0  0  0  0  0  0  0
   19.0864    0.3150   26.9199 N   0  0  0  0  0  0  0  0  0  0  0  0
   19.7320    1.3103   27.5532 C   0  0  0  0  0  0  0  0  0  0  0  0
   19.7187    2.3928   26.7678 N   0  0  1  0  0  0  0  0  0  0  0  0
   23.0670   -0.2453   29.8850 O   0  0  0  0  0  0  0  0  0  0  0  0
   23.9209    1.6573   31.3326 O   0  5  0  0  0  0  0  0  0  0  0  0
   21.5430    0.8372   31.5763 O   0  0  0  0  0  0  0  0  0  0  0  0
  1  3  1  6  0  0  0
  1 21  1  0  0  0  0
  1 22  1  0  0  0  0
  1 23  2  0  0  0  0
  2  3  1  0  0  0  0
  4  2  1  1  0  0  0
  4  5  1  0  0  0  0
  4  6  1  0  0  0  0
  6  7  1  6  0  0  0
  6  8  1  0  0  0  0
  8  9  1  0  0  0  0
  9  5  1  1  0  0  0
  9 20  1  0  0  0  0
 10 11  1  0  0  0  0
 10 16  1  0  0  0  0
 11 12  1  6  0  0  0
 11 13  1  0  0  0  0
 14 13  1  1  0  0  0
 14 15  1  0  0  0  0
 14 20  1  0  0  0  0
 15 16  1  6  0  0  0
 15 18  1  0  0  0  0
 16 17  2  0  0  0  0
 18 19  1  0  0  0  0
 20 19  1  6  0  0  0
M  CHG  1  22  -1
M  END
>  <CHROM.1>
-76.76600958,-82.65323525,-169.05781634,-104.12138383,20.58600501,2.06277274
27.53956741,0.14828325,0.92402949,2.86283080

>  <Name>
ligand

>  <RI>
416

>  <Rbt.Current_Directory>
/home/itssahil/PROJECTS/Mol_Feturizer/Test_systems_manuscript/rnas/3slm

>  <Rbt.Executable>
rbdock ($Id: //depot/dev/client3/rdock/2013.1/src/exe/rbdock.cxx#4 $)

>  <Rbt.Library>
libRbt.so (2013.1, Build901 2013/11/27)

>  <Rbt.Parameter_File>
/export/apps/rDock/src/rDock_2013.1_src/data/scripts/dock_solv.prm

>  <Rbt.Receptor>
prm/pocket_docking_2.prm

>  <SCORE>
-18.2829

>  <SCORE.INTER>
-15.0684

>  <SCORE.INTER.CONST>
1

>  <SCORE.INTER.POLAR>
0

>  <SCORE.INTER.ROT>
4

>  <SCORE.INTER.SOLV>
23.3441

>  <SCORE.INTER.VDW>
-24.0936

>  <SCORE.INTER.norm>
-0.655147

>  <SCORE.INTRA>
-3.21455

>  <SCORE.INTRA.DIHEDRAL>
-4.83816

>  <SCORE.INTRA.DIHEDRAL.0>
8.62657

>  <SCORE.INTRA.POLAR>
0

>  <SCORE.INTRA.POLAR.0>
0

>  <SCORE.INTRA.REPUL>
0

>  <SCORE.INTRA.REPUL.0>
0

>  <SCORE.INTRA.SOLV>
0.137728

>  <SCORE.INTRA.SOLV.lig_0>
-66.3641

>  <SCORE.INTRA.VDW>
-0.864334

>  <SCORE.INTRA.VDW.0>
0.452231

>  <SCORE.INTRA.norm>
-0.139763

>  <SCORE.RESTR>
0

>  <SCORE.RESTR.CAVITY>
0

>  <SCORE.RESTR.norm>
0

>  <SCORE.SYSTEM>
0

>  <SCORE.SYSTEM.CONST>
0

>  <SCORE.SYSTEM.DIHEDRAL>
0

>  <SCORE.SYSTEM.SOLV>
0

>  <SCORE.SYSTEM.norm>
0

>  <SCORE.heavy>
23

>  <SCORE.norm>
-0.79491

>  <RMSD>
1.055

$$$$
ligand
 OpenBabel02271912143D
libRbt.so/2013.1/901 2013/11/27
 23 25  0  0  0  0  0  0  0  0999 V2000
   23.2278    1.2010   30.7240 P   0  0  1  0  0  0  0  0  0  0  0  0
   23.3641    3.2303   29.0752 C   0  0  0  0  0  0  0  0  0  0  0  0
   22.5433    2.3084   29.7788 O   0  0  0  0  0  0  0  0  0  0  0  0
   22.4675    4.3394   28.5727 C   0  0  1  0  0  0  0  0  0  0  0  0
   21.7166    3.9444   27.4251 O   0  0  0  0  0  0  0  0  0  0  0  0
   21.4828    4.7184   29.6659 C   0  0  1  0  0  0  0  0  0  0  0  0
   21.4678    6.1521   29.7775 O   0  0  0  0  0  0  0  0  0  0  0  0
   20.1401    4.1640   29.2065 C   0  0  0  0  0  0  0  0  0  0  0  0
   20.3102    3.9652   27.7027 C   0  0  2  0  0  0  0  0  0  0  0  0
   18.1866    1.1815   23.9248 N   0  0  0  0  0  0  0  0  0  0  0  0
   18.5187    2.4827   23.9070 C   0  0  2  0  0  0  0  0  0  0  0  0
   18.2904    3.1774   22.7682 N   0  0  0  0  0  0  0  0  0  0  0  0
   19.0732    3.0771   24.9910 N   0  0  0  0  0  0  0  0  0  0  0  0
   19.2947    2.3539   26.1080 C   0  0  2  0  0  0  0  0  0  0  0  0
   18.9577    1.0181   26.1431 C   0  0  1  0  0  0  0  0  0  0  0  0
   18.4008    0.4329   25.0219 C   0  0  0  0  0  0  0  0  0  0  0  0
   18.0941   -0.7788   25.0311 O   0  0  0  0  0  0  0  0  0  0  0  0
   19.2723    0.5393   27.3630 N   0  0  0  0  0  0  0  0  0  0  0  0
   19.8004    1.5555   28.0678 C   0  0  0  0  0  0  0  0  0  0  0  0
   19.7986    2.6509   27.3005 N   0  0  1  0  0  0  0  0  0  0  0  0
   24.1546    1.9342   31.6629 O   0  0  0  0  0  0  0  0  0  0  0  0
   22.0573    0.5276   31.4027 O   0  5  0  0  0  0  0  0  0  0  0  0
   23.9461    0.3216   29.7364 O   0  0  0  0  0  0  0  0  0  0  0  0
  1  3  1  6  0  0  0
  1 21  1  0  0  0  0
  1 22  1  0  0  0  0
  1 23  2  0  0  0  0
  2  3  1  0  0  0  0
  4  2  1  1  0  0  0
  4  5  1  0  0  0  0
  4  6  1  0  0  0  0
  6  7  1  6  0  0  0
  6  8  1  0  0  0  0
  8  9  1  0  0  0  0
  9  5  1  1  0  0  0
  9 20  1  0  0  0  0
 10 11  1  0  0  0  0
 10 16  1  0  0  0  0
 11 12  1  6  0  0  0
 11 13  1  0  0  0  0
 14 13  1  1  0  0  0
 14 15  1  0  0  0  0
 14 20  1  0  0  0  0
 15 16  1  6  0  0  0
 15 18  1  0  0  0  0
 16 17  2  0  0  0  0
 18 19  1  0  0  0  0
 20 19  1  6  0  0  0
M  CHG  1  22  -1
M  END
>  <CHROM.1>
52.61121028,-77.10084480,-165.82805085,-92.57413688,20.85998623,2.30487211
27.88919974,-0.04565652,0.91465298,3.09158421

>  <Name>
ligand

>  <RI>
0

>  <Rbt.Current_Directory>
/home/itssahil/PROJECTS/Mol_Feturizer/Test_systems_manuscript/rnas/3slm

>  <Rbt.Executable>
rbdock ($Id: //depot/dev/client3/rdock/2013.1/src/exe/rbdock.cxx#4 $)

>  <Rbt.Library>
libRbt.so (2013.1, Build901 2013/11/27)

>  <Rbt.Parameter_File>
/export/apps/rDock/src/rDock_2013.1_src/data/scripts/dock_solv.prm

>  <Rbt.Receptor>
prm/pocket_docking_3.prm

>  <SCORE>
-19.3941

>  <SCORE.INTER>
-15.4702

>  <SCORE.INTER.CONST>
1

>  <SCORE.INTER.POLAR>
0

>  <SCORE.INTER.ROT>
4

>  <SCORE.INTER.SOLV>
22.6765

>  <SCORE.INTER.VDW>
-24.1389

>  <SCORE.INTER.norm>
-0.672616

>  <SCORE.INTRA>
-3.92393

>  <SCORE.INTRA.DIHEDRAL>
-5.47339

>  <SCORE.INTRA.DIHEDRAL.0>
8.62657

>  <SCORE.INTRA.POLAR>
0

>  <SCORE.INTRA.POLAR.0>
0

>  <SCORE.INTRA.REPUL>
0

>  <SCORE.INTRA.REPUL.0>
0

>  <SCORE.INTRA.SOLV>
-0.295693

>  <SCORE.INTRA.SOLV.lig_0>
-66.3641

>  <SCORE.INTRA.VDW>
-1.03939

>  <SCORE.INTRA.VDW.0>
0.452231

>  <SCORE.INTRA.norm>
-0.170606

>  <SCORE.RESTR>
0

>  <SCORE.RESTR.CAVITY>
0

>  <SCORE.RESTR.norm>
0

>  <SCORE.SYSTEM>
0

>  <SCORE.SYSTEM.CONST>
0

>  <SCORE.SYSTEM.DIHEDRAL>
0

>  <SCORE.SYSTEM.SOLV>
0

>  <SCORE.SYSTEM.norm>
0

>  <SCORE.heavy>
23

>  <SCORE.norm>
-0.843222

>  <RMSD>
1.065

$$$$
ligand
 OpenBabel02271912143D
libRbt.so/2013.1/901 2013/11/27
 23 25  0  0  0  0  0  0  0  0999 V2000
   23.4045    0.7035   31.5030 P   0  0  1  0  0  0  0  0  0  0  0  0
   22.5250    1.2907   29.1078 C   0  0  0  0  0  0  0  0  0  0  0  0
   23.2426    1.7115   30.2596 O   0  0  0  0  0  0  0  0  0  0  0  0
   22.4354    2.4769   28.1744 C   0  0  1  0  0  0  0  0  0  0  0  0
   21.8486    2.1303   26.9204 O   0  0  0  0  0  0  0  0  0  0  0  0
   21.5696    3.5497   28.8132 C   0  0  1  0  0  0  0  0  0  0  0  0
   22.2533    4.8088   28.6899 O   0  0  0  0  0  0  0  0  0  0  0  0
   20.2616    3.5275   28.0323 C   0  0  0  0  0  0  0  0  0  0  0  0
   20.6209    2.8420   26.7167 C   0  0  2  0  0  0  0  0  0  0  0  0
   17.2554    1.1724   23.1928 N   0  0  0  0  0  0  0  0  0  0  0  0
   18.0493    2.2539   23.1311 C   0  0  2  0  0  0  0  0  0  0  0  0
   17.9914    3.0172   22.0151 N   0  0  0  0  0  0  0  0  0  0  0  0
   18.8875    2.5642   24.1494 N   0  0  0  0  0  0  0  0  0  0  0  0
   18.9264    1.7777   25.2447 C   0  0  2  0  0  0  0  0  0  0  0  0
   18.1166    0.6655   25.3243 C   0  0  1  0  0  0  0  0  0  0  0  0
   17.2760    0.3657   24.2692 C   0  0  0  0  0  0  0  0  0  0  0  0
   16.5384   -0.6422   24.3191 O   0  0  0  0  0  0  0  0  0  0  0  0
   18.3430    0.0674   26.5107 N   0  0  0  0  0  0  0  0  0  0  0  0
   19.2793    0.7897   27.1509 C   0  0  0  0  0  0  0  0  0  0  0  0
   19.6165    1.8282   26.3785 N   0  0  1  0  0  0  0  0  0  0  0  0
   24.0033   -0.5720   30.9619 O   0  0  0  0  0  0  0  0  0  0  0  0
   24.2975    1.4525   32.4652 O   0  5  0  0  0  0  0  0  0  0  0  0
   21.9883    0.5442   31.9862 O   0  0  0  0  0  0  0  0  0  0  0  0
  1  3  1  6  0  0  0
  1 21  1  0  0  0  0
  1 22  1  0  0  0  0
  1 23  2  0  0  0  0
  2  3  1  0  0  0  0
  4  2  1  1  0  0  0
  4  5  1  0  0  0  0
  4  6  1  0  0  0  0
  6  7  1  6  0  0  0
  6  8  1  0  0  0  0
  8  9  1  0  0  0  0
  9  5  1  1  0  0  0
  9 20  1  0  0  0  0
 10 11  1  0  0  0  0
 10 16  1  0  0  0  0
 11 12  1  6  0  0  0
 11 13  1  0  0  0  0
 14 13  1  1  0  0  0
 14 15  1  0  0  0  0
 14 20  1  0  0  0  0
 15 16  1  6  0  0  0
 15 18  1  0  0  0  0
 16 17  2  0  0  0  0
 18 19  1  0  0  0  0
 20 19  1  6  0  0  0
M  CHG  1  22  -1
M  END
>  <CHROM.1>
54.43500343,174.10126261,175.02155296,-119.63691656,20.64807082,1.60863371
27.54988899,0.46252819,0.82122079,2.56787865

>  <Name>
ligand

>  <RI>
416

>  <Rbt.Current_Directory>
/home/itssahil/PROJECTS/Mol_Feturizer/Test_systems_manuscript/rnas/3slm

>  <Rbt.Executable>
rbdock ($Id: //depot/dev/client3/rdock/2013.1/src/exe/rbdock.cxx#4 $)

>  <Rbt.Library>
libRbt.so (2013.1, Build901 2013/11/27)

>  <Rbt.Parameter_File>
/export/apps/rDock/src/rDock_2013.1_src/data/scripts/dock_solv.prm

>  <Rbt.Receptor>
prm/pocket_docking_2.prm

>  <SCORE>
-19.3893

>  <SCORE.INTER>
-13.9398

>  <SCORE.INTER.CONST>
1

>  <SCORE.INTER.POLAR>
0

>  <SCORE.INTER.ROT>
4

>  <SCORE.INTER.SOLV>
27.0843

>  <SCORE.INTER.VDW>
-24.588

>  <SCORE.INTER.norm>
-0.606079

>  <SCORE.INTRA>
-5.45532

>  <SCORE.INTRA.DIHEDRAL>
-7.13654

>  <SCORE.INTRA.DIHEDRAL.0>
8.62657

>  <SCORE.INTRA.POLAR>
0

>  <SCORE.INTRA.POLAR.0>
0

>  <SCORE.INTRA.REPUL>
0

>  <SCORE.INTRA.REPUL.0>
0

>  <SCORE.INTRA.SOLV>
-0.388588

>  <SCORE.INTRA.SOLV.lig_0>
-66.3641

>  <SCORE.INTRA.VDW>
-1.69275

>  <SCORE.INTRA.VDW.0>
0.452231

>  <SCORE.INTRA.norm>
-0.237188

>  <SCORE.RESTR>
0.00587767

>  <SCORE.RESTR.CAVITY>
0.00587767

>  <SCORE.RESTR.norm>
0.000255551

>  <SCORE.SYSTEM>
0

>  <SCORE.SYSTEM.CONST>
0

>  <SCORE.SYSTEM.DIHEDRAL>
0

>  <SCORE.SYSTEM.SOLV>
0

>  <SCORE.SYSTEM.norm>
0

>  <SCORE.heavy>
23

>  <SCORE.norm>
-0.843011

>  <RMSD>
1.075

$$$$
ligand
 OpenBabel02271912143D
libRbt.so/2013.1/901 2013/11/27
 23 25  0  0  0  0  0  0  0  0999 V2000
   23.5219    0.7597   30.0053 P   0  0  1  0  0  0  0  0  0  0  0  0
   23.2948    2.9900   28.6527 C   0  0  0  0  0  0  0  0  0  0  0  0
   22.6449    1.8746   29.2461 O   0  0  0  0  0  0  0  0  0  0  0  0
   22.2467    4.0575   28.4327 C   0  0  1  0  0  0  0  0  0  0  0  0
   21.3707    3.7353   27.3530 O   0  0  0  0  0  0  0  0  0  0  0  0
   21.4050    4.1965   29.6900 C   0  0  1  0  0  0  0  0  0  0  0  0
   21.2894    5.5963   29.9987 O   0  0  0  0  0  0  0  0  0  0  0  0
   20.0594    3.5718   29.3432 C   0  0  0  0  0  0  0  0  0  0  0  0
   20.0232    3.5801   27.8173 C   0  0  2  0  0  0  0  0  0  0  0  0
   18.0308    1.0157   23.8190 N   0  0  0  0  0  0  0  0  0  0  0  0
   18.3097    2.3267   23.9048 C   0  0  2  0  0  0  0  0  0  0  0  0
   18.0580    3.0982   22.8217 N   0  0  0  0  0  0  0  0  0  0  0  0
   18.8348    2.8567   25.0357 N   0  0  0  0  0  0  0  0  0  0  0  0
   19.0810    2.0583   26.0948 C   0  0  2  0  0  0  0  0  0  0  0  0
   18.7987    0.7113   26.0236 C   0  0  1  0  0  0  0  0  0  0  0  0
   18.2708    0.1932   24.8562 C   0  0  0  0  0  0  0  0  0  0  0  0
   18.0138   -1.0270   24.7690 O   0  0  0  0  0  0  0  0  0  0  0  0
   19.1274    0.1520   27.2049 N   0  0  0  0  0  0  0  0  0  0  0  0
   19.6106    1.1307   27.9904 C   0  0  0  0  0  0  0  0  0  0  0  0
   19.5674    2.2816   27.3105 N   0  0  1  0  0  0  0  0  0  0  0  0
   22.5522   -0.1997   30.6515 O   0  0  0  0  0  0  0  0  0  0  0  0
   24.3646    0.1503   28.9086 O   0  5  0  0  0  0  0  0  0  0  0  0
   24.3090    1.5754   30.9949 O   0  0  0  0  0  0  0  0  0  0  0  0
  1  3  1  6  0  0  0
  1 21  1  0  0  0  0
  1 22  1  0  0  0  0
  1 23  2  0  0  0  0
  2  3  1  0  0  0  0
  4  2  1  1  0  0  0
  4  5  1  0  0  0  0
  4  6  1  0  0  0  0
  6  7  1  6  0  0  0
  6  8  1  0  0  0  0
  8  9  1  0  0  0  0
  9  5  1  6  0  0  0
  9 20  1  0  0  0  0
 10 11  1  0  0  0  0
 10 16  1  0  0  0  0
 11 12  1  6  0  0  0
 11 13  1  0  0  0  0
 14 13  1  1  0  0  0
 14 15  1  0  0  0  0
 14 20  1  0  0  0  0
 15 16  1  6  0  0  0
 15 18  1  0  0  0  0
 16 17  2  0  0  0  0
 18 19  1  0  0  0  0
 20 19  1  6  0  0  0
M  CHG  1  22  -1
M  END
>  <CHROM.1>
173.85723520,-73.29935911,-161.71030332,-83.12077585,20.81160874,1.95711096
27.65610172,-0.19453624,0.81865786,-2.96552227

>  <Name>
ligand

>  <RI>
416

>  <Rbt.Current_Directory>
/home/itssahil/PROJECTS/Mol_Feturizer/Test_systems_manuscript/rnas/3slm

>  <Rbt.Executable>
rbdock ($Id: //depot/dev/client3/rdock/2013.1/src/exe/rbdock.cxx#4 $)

>  <Rbt.Library>
libRbt.so (2013.1, Build901 2013/11/27)

>  <Rbt.Parameter_File>
/export/apps/rDock/src/rDock_2013.1_src/data/scripts/dock_solv.prm

>  <Rbt.Receptor>
prm/pocket_docking_2.prm

>  <SCORE>
-18.6733

>  <SCORE.INTER>
-15.3677

>  <SCORE.INTER.CONST>
1

>  <SCORE.INTER.POLAR>
0

>  <SCORE.INTER.ROT>
4

>  <SCORE.INTER.SOLV>
21.7473

>  <SCORE.INTER.VDW>
-23.7609

>  <SCORE.INTER.norm>
-0.66816

>  <SCORE.INTRA>
-3.30562

>  <SCORE.INTRA.DIHEDRAL>
-5.28895

>  <SCORE.INTRA.DIHEDRAL.0>
8.62657

>  <SCORE.INTRA.POLAR>
0

>  <SCORE.INTRA.POLAR.0>
0

>  <SCORE.INTRA.REPUL>
0

>  <SCORE.INTRA.REPUL.0>
0

>  <SCORE.INTRA.SOLV>
0.636902

>  <SCORE.INTRA.SOLV.lig_0>
-66.3641

>  <SCORE.INTRA.VDW>
-0.979599

>  <SCORE.INTRA.VDW.0>
0.452231

>  <SCORE.INTRA.norm>
-0.143723

>  <SCORE.RESTR>
0

>  <SCORE.RESTR.CAVITY>
0

>  <SCORE.RESTR.norm>
0

>  <SCORE.SYSTEM>
0

>  <SCORE.SYSTEM.CONST>
0

>  <SCORE.SYSTEM.DIHEDRAL>
0

>  <SCORE.SYSTEM.SOLV>
0

>  <SCORE.SYSTEM.norm>
0

>  <SCORE.heavy>
23

>  <SCORE.norm>
-0.811883

>  <RMSD>
1.094

$$$$
ligand
 OpenBabel02271912143D
libRbt.so/2013.1/901 2013/11/27
 23 25  0  0  0  0  0  0  0  0999 V2000
   23.5837    0.7843   31.5474 P   0  0  1  0  0  0  0  0  0  0  0  0
   22.6775    1.3174   29.1495 C   0  0  0  0  0  0  0  0  0  0  0  0
   23.4171    1.7599   30.2791 O   0  0  0  0  0  0  0  0  0  0  0  0
   22.5924    2.4779   28.1838 C   0  0  1  0  0  0  0  0  0  0  0  0
   21.9578    2.1118   26.9590 O   0  0  0  0  0  0  0  0  0  0  0  0
   21.7769    3.5934   28.8157 C   0  0  1  0  0  0  0  0  0  0  0  0
   22.4912    4.8282   28.6341 O   0  0  0  0  0  0  0  0  0  0  0  0
   20.4454    3.5859   28.0753 C   0  0  0  0  0  0  0  0  0  0  0  0
   20.7447    2.8522   26.7707 C   0  0  2  0  0  0  0  0  0  0  0  0
   17.2825    1.1288   23.3685 N   0  0  0  0  0  0  0  0  0  0  0  0
   18.1118    2.1780   23.2453 C   0  0  2  0  0  0  0  0  0  0  0  0
   18.0665    2.8873   22.0936 N   0  0  0  0  0  0  0  0  0  0  0  0
   18.9722    2.5088   24.2384 N   0  0  0  0  0  0  0  0  0  0  0  0
   18.9976    1.7761   25.3707 C   0  0  2  0  0  0  0  0  0  0  0  0
   18.1516    0.6976   25.5136 C   0  0  1  0  0  0  0  0  0  0  0  0
   17.2887    0.3756   24.4833 C   0  0  0  0  0  0  0  0  0  0  0  0
   16.5180   -0.6026   24.5904 O   0  0  0  0  0  0  0  0  0  0  0  0
   18.3718    0.1510   26.7256 N   0  0  0  0  0  0  0  0  0  0  0  0
   19.3397    0.8711   27.3196 C   0  0  0  0  0  0  0  0  0  0  0  0
   19.7026    1.8583   26.4934 N   0  0  1  0  0  0  0  0  0  0  0  0
   22.1949    0.4727   32.0498 O   0  0  0  0  0  0  0  0  0  0  0  0
   24.3288   -0.4085   30.9939 O   0  5  0  0  0  0  0  0  0  0  0  0
   24.3946    1.6183   32.5020 O   0  0  0  0  0  0  0  0  0  0  0  0
  1  3  1  6  0  0  0
  1 21  1  0  0  0  0
  1 22  1  0  0  0  0
  1 23  2  0  0  0  0
  2  3  1  0  0  0  0
  4  2  1  1  0  0  0
  4  5  1  0  0  0  0
  4  6  1  0  0  0  0
  6  7  1  6  0  0  0
  6  8  1  0  0  0  0
  8  9  1  0  0  0  0
  9  5  1  1  0  0  0
  9 20  1  0  0  0  0
 10 11  1  0  0  0  0
 10 16  1  0  0  0  0
 11 12  1  6  0  0  0
 11 13  1  0  0  0  0
 14 13  1  1  0  0  0
 14 15  1  0  0  0  0
 14 20  1  0  0  0  0
 15 16  1  6  0  0  0
 15 18  1  0  0  0  0
 16 17  2  0  0  0  0
 18 19  1  0  0  0  0
 20 19  1  6  0  0  0
M  CHG  1  22  -1
M  END
>  <CHROM.1>
-59.52763946,175.33612886,175.13279941,-118.03335064,20.77105773,1.63476770
27.63543789,0.48357755,0.78307803,2.51242241

>  <Name>
ligand

>  <RI>
416

>  <Rbt.Current_Directory>
/home/itssahil/PROJECTS/Mol_Feturizer/Test_systems_manuscript/rnas/3slm

>  <Rbt.Executable>
rbdock ($Id: //depot/dev/client3/rdock/2013.1/src/exe/rbdock.cxx#4 $)

>  <Rbt.Library>
libRbt.so (2013.1, Build901 2013/11/27)

>  <Rbt.Parameter_File>
/export/apps/rDock/src/rDock_2013.1_src/data/scripts/dock_solv.prm

>  <Rbt.Receptor>
prm/pocket_docking_2.prm

>  <SCORE>
-20.2375

>  <SCORE.INTER>
-14.6605

>  <SCORE.INTER.CONST>
1

>  <SCORE.INTER.POLAR>
0

>  <SCORE.INTER.ROT>
4

>  <SCORE.INTER.SOLV>
26.9638

>  <SCORE.INTER.VDW>
-25.0283

>  <SCORE.INTER.norm>
-0.637414

>  <SCORE.INTRA>
-5.59681

>  <SCORE.INTRA.DIHEDRAL>
-7.23295

>  <SCORE.INTRA.DIHEDRAL.0>
8.62657

>  <SCORE.INTRA.POLAR>
0

>  <SCORE.INTRA.POLAR.0>
0

>  <SCORE.INTRA.REPUL>
0

>  <SCORE.INTRA.REPUL.0>
0

>  <SCORE.INTRA.SOLV>
-0.540055

>  <SCORE.INTRA.SOLV.lig_0>
-66.3641

>  <SCORE.INTRA.VDW>
-1.71031

>  <SCORE.INTRA.VDW.0>
0.452231

>  <SCORE.INTRA.norm>
-0.243339

>  <SCORE.RESTR>
0.0198706

>  <SCORE.RESTR.CAVITY>
0.0198706

>  <SCORE.RESTR.norm>
0.000863938

>  <SCORE.SYSTEM>
0

>  <SCORE.SYSTEM.CONST>
0

>  <SCORE.SYSTEM.DIHEDRAL>
0

>  <SCORE.SYSTEM.SOLV>
0

>  <SCORE.SYSTEM.norm>
0

>  <SCORE.heavy>
23

>  <SCORE.norm>
-0.879889

>  <RMSD>
1.096

$$$$
ligand
 OpenBabel02271912143D
libRbt.so/2013.1/901 2013/11/27
 23 25  0  0  0  0  0  0  0  0999 V2000
   23.5348    0.7897   30.0072 P   0  0  1  0  0  0  0  0  0  0  0  0
   23.2776    3.0020   28.6306 C   0  0  0  0  0  0  0  0  0  0  0  0
   22.6402    1.9013   29.2638 O   0  0  0  0  0  0  0  0  0  0  0  0
   22.2276    4.0691   28.4179 C   0  0  1  0  0  0  0  0  0  0  0  0
   21.3449    3.7473   27.3436 O   0  0  0  0  0  0  0  0  0  0  0  0
   21.3937    4.2068   29.6805 C   0  0  1  0  0  0  0  0  0  0  0  0
   21.2793    5.6063   29.9910 O   0  0  0  0  0  0  0  0  0  0  0  0
   20.0463    3.5816   29.3418 C   0  0  0  0  0  0  0  0  0  0  0  0
   20.0005    3.5911   27.8161 C   0  0  2  0  0  0  0  0  0  0  0  0
   18.0651    1.0112   23.7998 N   0  0  0  0  0  0  0  0  0  0  0  0
   18.3553    2.3201   23.8800 C   0  0  2  0  0  0  0  0  0  0  0  0
   18.1337    3.0844   22.7854 N   0  0  0  0  0  0  0  0  0  0  0  0
   18.8623    2.8549   25.0170 N   0  0  0  0  0  0  0  0  0  0  0  0
   19.0786    2.0634   26.0878 C   0  0  2  0  0  0  0  0  0  0  0  0
   18.7843    0.7187   26.0223 C   0  0  1  0  0  0  0  0  0  0  0  0
   18.2753    0.1956   24.8489 C   0  0  0  0  0  0  0  0  0  0  0  0
   18.0079   -1.0227   24.7669 O   0  0  0  0  0  0  0  0  0  0  0  0
   19.0829    0.1667   27.2150 N   0  0  0  0  0  0  0  0  0  0  0  0
   19.5597    1.1474   28.0018 C   0  0  0  0  0  0  0  0  0  0  0  0
   19.5421    2.2927   27.3112 N   0  0  1  0  0  0  0  0  0  0  0  0
   22.5806   -0.1956   30.6370 O   0  0  0  0  0  0  0  0  0  0  0  0
   24.3892    0.2116   28.9026 O   0  5  0  0  0  0  0  0  0  0  0  0
   24.3068    1.6032   31.0105 O   0  0  0  0  0  0  0  0  0  0  0  0
  1  3  1  6  0  0  0
  1 21  1  0  0  0  0
  1 22  1  0  0  0  0
  1 23  2  0  0  0  0
  2  3  1  0  0  0  0
  4  2  1  1  0  0  0
  4  5  1  0  0  0  0
  4  6  1  0  0  0  0
  6  7  1  6  0  0  0
  6  8  1  0  0  0  0
  8  9  1  0  0  0  0
  9  5  1  6  0  0  0
  9 20  1  0  0  0  0
 10 11  1  0  0  0  0
 10 16  1  0  0  0  0
 11 12  1  6  0  0  0
 11 13  1  0  0  0  0
 14 13  1  1  0  0  0
 14 15  1  0  0  0  0
 14 20  1  0  0  0  0
 15 16  1  6  0  0  0
 15 18  1  0  0  0  0
 16 17  2  0  0  0  0
 18 19  1  0  0  0  0
 20 19  1  6  0  0  0
M  CHG  1  22  -1
M  END
>  <CHROM.1>
176.99755741,-75.01349475,-162.37359912,-81.37965790,20.81187343,1.96999371
27.65040448,-0.19935700,0.82067296,-2.96451530

>  <Name>
ligand

>  <RI>
416

>  <Rbt.Current_Directory>
/home/itssahil/PROJECTS/Mol_Feturizer/Test_systems_manuscript/rnas/3slm

>  <Rbt.Executable>
rbdock ($Id: //depot/dev/client3/rdock/2013.1/src/exe/rbdock.cxx#4 $)

>  <Rbt.Library>
libRbt.so (2013.1, Build901 2013/11/27)

>  <Rbt.Parameter_File>
/export/apps/rDock/src/rDock_2013.1_src/data/scripts/dock_solv.prm

>  <Rbt.Receptor>
prm/pocket_docking_2.prm

>  <SCORE>
-18.7088

>  <SCORE.INTER>
-15.5666

>  <SCORE.INTER.CONST>
1

>  <SCORE.INTER.POLAR>
0

>  <SCORE.INTER.ROT>
4

>  <SCORE.INTER.SOLV>
21.7907

>  <SCORE.INTER.VDW>
-23.9079

>  <SCORE.INTER.norm>
-0.676807

>  <SCORE.INTRA>
-3.14849

>  <SCORE.INTRA.DIHEDRAL>
-5.26982

>  <SCORE.INTRA.DIHEDRAL.0>
8.62657

>  <SCORE.INTRA.POLAR>
0

>  <SCORE.INTRA.POLAR.0>
0

>  <SCORE.INTRA.REPUL>
0

>  <SCORE.INTRA.REPUL.0>
0

>  <SCORE.INTRA.SOLV>
0.639275

>  <SCORE.INTRA.SOLV.lig_0>
-66.3641

>  <SCORE.INTRA.VDW>
-0.833214

>  <SCORE.INTRA.VDW.0>
0.452231

>  <SCORE.INTRA.norm>
-0.136891

>  <SCORE.RESTR>
0.00626839

>  <SCORE.RESTR.CAVITY>
0.00626839

>  <SCORE.RESTR.norm>
0.000272539

>  <SCORE.SYSTEM>
0

>  <SCORE.SYSTEM.CONST>
0

>  <SCORE.SYSTEM.DIHEDRAL>
0

>  <SCORE.SYSTEM.SOLV>
0

>  <SCORE.SYSTEM.norm>
0

>  <SCORE.heavy>
23

>  <SCORE.norm>
-0.813425

>  <RMSD>
1.098

$$$$
ligand
 OpenBabel02271912143D
libRbt.so/2013.1/901 2013/11/27
 23 25  0  0  0  0  0  0  0  0999 V2000
   23.5476    0.7454   30.0131 P   0  0  1  0  0  0  0  0  0  0  0  0
   23.3068    2.9825   28.6743 C   0  0  0  0  0  0  0  0  0  0  0  0
   22.6617    1.8729   29.2837 O   0  0  0  0  0  0  0  0  0  0  0  0
   22.2568    4.0476   28.4515 C   0  0  1  0  0  0  0  0  0  0  0  0
   21.3806    3.7206   27.3734 O   0  0  0  0  0  0  0  0  0  0  0  0
   21.4156    4.1891   29.7088 C   0  0  1  0  0  0  0  0  0  0  0  0
   21.2978    5.5896   30.0133 O   0  0  0  0  0  0  0  0  0  0  0  0
   20.0709    3.5610   29.3648 C   0  0  0  0  0  0  0  0  0  0  0  0
   20.0337    3.5645   27.8389 C   0  0  2  0  0  0  0  0  0  0  0  0
   18.0622    0.9803   23.8430 N   0  0  0  0  0  0  0  0  0  0  0  0
   18.3416    2.2915   23.9234 C   0  0  2  0  0  0  0  0  0  0  0  0
   18.0967    3.0574   22.8348 N   0  0  0  0  0  0  0  0  0  0  0  0
   18.8607    2.8272   25.0545 N   0  0  0  0  0  0  0  0  0  0  0  0
   19.1002    2.0342   26.1192 C   0  0  2  0  0  0  0  0  0  0  0  0
   18.8172    0.6871   26.0536 C   0  0  1  0  0  0  0  0  0  0  0  0
   18.2956    0.1631   24.8860 C   0  0  0  0  0  0  0  0  0  0  0  0
   18.0381   -1.0573   24.8039 O   0  0  0  0  0  0  0  0  0  0  0  0
   19.1387    0.1339   27.2397 N   0  0  0  0  0  0  0  0  0  0  0  0
   19.6182    1.1163   28.0227 C   0  0  0  0  0  0  0  0  0  0  0  0
   19.5797    2.2636   27.3364 N   0  0  1  0  0  0  0  0  0  0  0  0
   22.5863   -0.2556   30.6065 O   0  0  0  0  0  0  0  0  0  0  0  0
   24.4180    0.1943   28.9072 O   0  5  0  0  0  0  0  0  0  0  0  0
   24.3044    1.5361   31.0457 O   0  0  0  0  0  0  0  0  0  0  0  0
  1  3  1  6  0  0  0
  1 21  1  0  0  0  0
  1 22  1  0  0  0  0
  1 23  2  0  0  0  0
  2  3  1  0  0  0  0
  4  2  1  1  0  0  0
  4  5  1  0  0  0  0
  4  6  1  0  0  0  0
  6  7  1  6  0  0  0
  6  8  1  0  0  0  0
  8  9  1  0  0  0  0
  9  5  1  6  0  0  0
  9 20  1  0  0  0  0
 10 11  1  0  0  0  0
 10 16  1  0  0  0  0
 11 12  1  6  0  0  0
 11 13  1  0  0  0  0
 14 13  1  1  0  0  0
 14 15  1  0  0  0  0
 14 20  1  0  0  0  0
 15 16  1  6  0  0  0
 15 18  1  0  0  0  0
 16 17  2  0  0  0  0
 18 19  1  0  0  0  0
 20 19  1  6  0  0  0
M  CHG  1  22  -1
M  END
>  <CHROM.1>
177.58680448,-73.86533492,-163.34467233,-82.71281762,20.83133367,1.93853044
27.67570126,-0.20054936,0.81714168,-2.96164476

>  <Name>
ligand

>  <RI>
416

>  <Rbt.Current_Directory>
/home/itssahil/PROJECTS/Mol_Feturizer/Test_systems_manuscript/rnas/3slm

>  <Rbt.Executable>
rbdock ($Id: //depot/dev/client3/rdock/2013.1/src/exe/rbdock.cxx#4 $)

>  <Rbt.Library>
libRbt.so (2013.1, Build901 2013/11/27)

>  <Rbt.Parameter_File>
/export/apps/rDock/src/rDock_2013.1_src/data/scripts/dock_solv.prm

>  <Rbt.Receptor>
prm/pocket_docking_2.prm

>  <SCORE>
-18.6548

>  <SCORE.INTER>
-15.2435

>  <SCORE.INTER.CONST>
1

>  <SCORE.INTER.POLAR>
0

>  <SCORE.INTER.ROT>
4

>  <SCORE.INTER.SOLV>
21.6646

>  <SCORE.INTER.VDW>
-23.6505

>  <SCORE.INTER.norm>
-0.662759

>  <SCORE.INTRA>
-3.41283

>  <SCORE.INTRA.DIHEDRAL>
-5.52726

>  <SCORE.INTRA.DIHEDRAL.0>
8.62657

>  <SCORE.INTRA.POLAR>
0

>  <SCORE.INTRA.POLAR.0>
0

>  <SCORE.INTRA.REPUL>
0

>  <SCORE.INTRA.REPUL.0>
0

>  <SCORE.INTRA.SOLV>
0.615472

>  <SCORE.INTRA.SOLV.lig_0>
-66.3641

>  <SCORE.INTRA.VDW>
-0.956942

>  <SCORE.INTRA.VDW.0>
0.452231

>  <SCORE.INTRA.norm>
-0.148384

>  <SCORE.RESTR>
0.00149135

>  <SCORE.RESTR.CAVITY>
0.00149135

>  <SCORE.RESTR.norm>
6.48415e-05

>  <SCORE.SYSTEM>
0

>  <SCORE.SYSTEM.CONST>
0

>  <SCORE.SYSTEM.DIHEDRAL>
0

>  <SCORE.SYSTEM.SOLV>
0

>  <SCORE.SYSTEM.norm>
0

>  <SCORE.heavy>
23

>  <SCORE.norm>
-0.811078

>  <RMSD>
1.100

$$$$
ligand
 OpenBabel02271912143D
libRbt.so/2013.1/901 2013/11/27
 23 25  0  0  0  0  0  0  0  0999 V2000
   23.4374    0.3802   31.2391 P   0  0  1  0  0  0  0  0  0  0  0  0
   21.9973    2.2455   30.0979 C   0  0  0  0  0  0  0  0  0  0  0  0
   23.0228    1.2710   29.9652 O   0  0  0  0  0  0  0  0  0  0  0  0
   22.1212    3.1924   28.9255 C   0  0  1  0  0  0  0  0  0  0  0  0
   21.8146    2.5550   27.6859 O   0  0  0  0  0  0  0  0  0  0  0  0
   21.1479    4.3444   29.1101 C   0  0  1  0  0  0  0  0  0  0  0  0
   21.8533    5.5715   28.8557 O   0  0  0  0  0  0  0  0  0  0  0  0
   20.0383    4.0988   28.0954 C   0  0  0  0  0  0  0  0  0  0  0  0
   20.6658    3.1551   27.0731 C   0  0  2  0  0  0  0  0  0  0  0  0
   17.5627    1.0366   23.5497 N   0  0  0  0  0  0  0  0  0  0  0  0
   18.2806    2.1670   23.4469 C   0  0  2  0  0  0  0  0  0  0  0  0
   18.2120    2.8553   22.2837 N   0  0  0  0  0  0  0  0  0  0  0  0
   19.0555    2.5981   24.4714 N   0  0  0  0  0  0  0  0  0  0  0  0
   19.1076    1.8840   25.6147 C   0  0  2  0  0  0  0  0  0  0  0  0
   18.3753    0.7230   25.7368 C   0  0  1  0  0  0  0  0  0  0  0  0
   17.5987    0.3000   24.6749 C   0  0  0  0  0  0  0  0  0  0  0  0
   16.9322   -0.7538   24.7632 O   0  0  0  0  0  0  0  0  0  0  0  0
   18.5976    0.2156   26.9654 N   0  0  0  0  0  0  0  0  0  0  0  0
   19.4559    1.0411   27.5901 C   0  0  0  0  0  0  0  0  0  0  0  0
   19.7487    2.0527   26.7657 N   0  0  1  0  0  0  0  0  0  0  0  0
   22.1813   -0.2959   31.7324 O   0  0  0  0  0  0  0  0  0  0  0  0
   24.4833   -0.5664   30.6968 O   0  5  0  0  0  0  0  0  0  0  0  0
   23.9829    1.4054   32.1961 O   0  0  0  0  0  0  0  0  0  0  0  0
  1  3  1  6  0  0  0
  1 21  1  0  0  0  0
  1 22  1  0  0  0  0
  1 23  2  0  0  0  0
  2  3  1  0  0  0  0
  4  2  1  1  0  0  0
  4  5  1  0  0  0  0
  4  6  1  0  0  0  0
  6  7  1  6  0  0  0
  6  8  1  0  0  0  0
  8  9  1  0  0  0  0
  9  5  1  1  0  0  0
  9 20  1  0  0  0  0
 10 11  1  0  0  0  0
 10 16  1  0  0  0  0
 11 12  1  6  0  0  0
 11 13  1  0  0  0  0
 14 13  1  1  0  0  0
 14 15  1  0  0  0  0
 14 20  1  0  0  0  0
 15 16  1  6  0  0  0
 15 18  1  0  0  0  0
 16 17  2  0  0  0  0
 18 19  1  0  0  0  0
 20 19  1  6  0  0  0
M  CHG  1  22  -1
M  END
>  <CHROM.1>
55.83210369,67.07569964,162.57652224,-133.97553914,20.68416853,1.71406371
27.77910958,0.24050871,0.88918193,2.88317604

>  <Name>
ligand

>  <RI>
416

>  <Rbt.Current_Directory>
/home/itssahil/PROJECTS/Mol_Feturizer/Test_systems_manuscript/rnas/3slm

>  <Rbt.Executable>
rbdock ($Id: //depot/dev/client3/rdock/2013.1/src/exe/rbdock.cxx#4 $)

>  <Rbt.Library>
libRbt.so (2013.1, Build901 2013/11/27)

>  <Rbt.Parameter_File>
/export/apps/rDock/src/rDock_2013.1_src/data/scripts/dock_solv.prm

>  <Rbt.Receptor>
prm/pocket_docking_2.prm

>  <SCORE>
-20.7322

>  <SCORE.INTER>
-15.5979

>  <SCORE.INTER.CONST>
1

>  <SCORE.INTER.POLAR>
0

>  <SCORE.INTER.ROT>
4

>  <SCORE.INTER.SOLV>
24.6231

>  <SCORE.INTER.VDW>
-24.873

>  <SCORE.INTER.norm>
-0.678169

>  <SCORE.INTRA>
-5.13431

>  <SCORE.INTRA.DIHEDRAL>
-5.78486

>  <SCORE.INTRA.DIHEDRAL.0>
8.62657

>  <SCORE.INTRA.POLAR>
0

>  <SCORE.INTRA.POLAR.0>
0

>  <SCORE.INTRA.REPUL>
0

>  <SCORE.INTRA.REPUL.0>
0

>  <SCORE.INTRA.SOLV>
-0.666852

>  <SCORE.INTRA.SOLV.lig_0>
-66.3641

>  <SCORE.INTRA.VDW>
-1.90846

>  <SCORE.INTRA.VDW.0>
0.452231

>  <SCORE.INTRA.norm>
-0.223231

>  <SCORE.RESTR>
0

>  <SCORE.RESTR.CAVITY>
0

>  <SCORE.RESTR.norm>
0

>  <SCORE.SYSTEM>
0

>  <SCORE.SYSTEM.CONST>
0

>  <SCORE.SYSTEM.DIHEDRAL>
0

>  <SCORE.SYSTEM.SOLV>
0

>  <SCORE.SYSTEM.norm>
0

>  <SCORE.heavy>
23

>  <SCORE.norm>
-0.9014

>  <RMSD>
1.100

$$$$
ligand
 OpenBabel02271912143D
libRbt.so/2013.1/901 2013/11/27
 23 25  0  0  0  0  0  0  0  0999 V2000
   23.5490    0.7702   30.0130 P   0  0  1  0  0  0  0  0  0  0  0  0
   23.3027    3.0041   28.6697 C   0  0  0  0  0  0  0  0  0  0  0  0
   22.6625    1.8801   29.2577 O   0  0  0  0  0  0  0  0  0  0  0  0
   22.2428    4.0581   28.4416 C   0  0  1  0  0  0  0  0  0  0  0  0
   21.3731    3.7200   27.3616 O   0  0  0  0  0  0  0  0  0  0  0  0
   21.3965    4.1938   29.6961 C   0  0  1  0  0  0  0  0  0  0  0  0
   21.2637    5.5937   29.9972 O   0  0  0  0  0  0  0  0  0  0  0  0
   20.0591    3.5515   29.3495 C   0  0  0  0  0  0  0  0  0  0  0  0
   20.0264    3.5514   27.8235 C   0  0  2  0  0  0  0  0  0  0  0  0
   18.0896    0.9397   23.8286 N   0  0  0  0  0  0  0  0  0  0  0  0
   18.3551    2.2539   23.9071 C   0  0  2  0  0  0  0  0  0  0  0  0
   18.1042    3.0153   22.8167 N   0  0  0  0  0  0  0  0  0  0  0  0
   18.8664    2.7969   25.0383 N   0  0  0  0  0  0  0  0  0  0  0  0
   19.1122    2.0084   26.1048 C   0  0  2  0  0  0  0  0  0  0  0  0
   18.8434    0.6583   26.0410 C   0  0  1  0  0  0  0  0  0  0  0  0
   18.3295    0.1269   24.8734 C   0  0  0  0  0  0  0  0  0  0  0  0
   18.0849   -1.0963   24.7930 O   0  0  0  0  0  0  0  0  0  0  0  0
   19.1684    0.1105   27.2287 N   0  0  0  0  0  0  0  0  0  0  0  0
   19.6362    1.0994   28.0109 C   0  0  0  0  0  0  0  0  0  0  0  0
   19.5870    2.2450   27.3225 N   0  0  1  0  0  0  0  0  0  0  0  0
   22.5905   -0.2472   30.5825 O   0  0  0  0  0  0  0  0  0  0  0  0
   24.4587    0.2333   28.9322 O   0  5  0  0  0  0  0  0  0  0  0  0
   24.2631    1.5764   31.0640 O   0  0  0  0  0  0  0  0  0  0  0  0
  1  3  1  6  0  0  0
  1 21  1  0  0  0  0
  1 22  1  0  0  0  0
  1 23  2  0  0  0  0
  2  3  1  0  0  0  0
  4  2  1  1  0  0  0
  4  5  1  0  0  0  0
  4  6  1  0  0  0  0
  6  7  1  6  0  0  0
  6  8  1  0  0  0  0
  8  9  1  0  0  0  0
  9  5  1  6  0  0  0
  9 20  1  0  0  0  0
 10 11  1  0  0  0  0
 10 16  1  0  0  0  0
 11 12  1  6  0  0  0
 11 13  1  0  0  0  0
 14 13  1  1  0  0  0
 14 15  1  0  0  0  0
 14 20  1  0  0  0  0
 15 16  1  6  0  0  0
 15 18  1  0  0  0  0
 16 17  2  0  0  0  0
 18 19  1  0  0  0  0
 20 19  1  6  0  0  0
M  CHG  1  22  -1
M  END
>  <CHROM.1>
177.24785874,-72.84162863,-162.21017183,-82.78235140,20.83656699,1.93264084
27.66586250,-0.21467794,0.81913907,-2.95462192

>  <Name>
ligand

>  <RI>
416

>  <Rbt.Current_Directory>
/home/itssahil/PROJECTS/Mol_Feturizer/Test_systems_manuscript/rnas/3slm

>  <Rbt.Executable>
rbdock ($Id: //depot/dev/client3/rdock/2013.1/src/exe/rbdock.cxx#4 $)

>  <Rbt.Library>
libRbt.so (2013.1, Build901 2013/11/27)

>  <Rbt.Parameter_File>
/export/apps/rDock/src/rDock_2013.1_src/data/scripts/dock_solv.prm

>  <Rbt.Receptor>
prm/pocket_docking_2.prm

>  <SCORE>
-18.6441

>  <SCORE.INTER>
-15.2223

>  <SCORE.INTER.CONST>
1

>  <SCORE.INTER.POLAR>
0

>  <SCORE.INTER.ROT>
4

>  <SCORE.INTER.SOLV>
21.5666

>  <SCORE.INTER.VDW>
-23.6038

>  <SCORE.INTER.norm>
-0.66184

>  <SCORE.INTRA>
-3.4218

>  <SCORE.INTRA.DIHEDRAL>
-5.4482

>  <SCORE.INTRA.DIHEDRAL.0>
8.62657

>  <SCORE.INTRA.POLAR>
0

>  <SCORE.INTRA.POLAR.0>
0

>  <SCORE.INTRA.REPUL>
0

>  <SCORE.INTRA.REPUL.0>
0

>  <SCORE.INTRA.SOLV>
0.637745

>  <SCORE.INTRA.SOLV.lig_0>
-66.3641

>  <SCORE.INTRA.VDW>
-1.01657

>  <SCORE.INTRA.VDW.0>
0.452231

>  <SCORE.INTRA.norm>
-0.148774

>  <SCORE.RESTR>
0

>  <SCORE.RESTR.CAVITY>
0

>  <SCORE.RESTR.norm>
0

>  <SCORE.SYSTEM>
0

>  <SCORE.SYSTEM.CONST>
0

>  <SCORE.SYSTEM.DIHEDRAL>
0

>  <SCORE.SYSTEM.SOLV>
0

>  <SCORE.SYSTEM.norm>
0

>  <SCORE.heavy>
23

>  <SCORE.norm>
-0.810614

>  <RMSD>
1.104

$$$$
ligand
 OpenBabel02271912143D
libRbt.so/2013.1/901 2013/11/27
 23 25  0  0  0  0  0  0  0  0999 V2000
   23.4479    0.3997   31.2721 P   0  0  1  0  0  0  0  0  0  0  0  0
   22.0526    2.2604   30.0694 C   0  0  0  0  0  0  0  0  0  0  0  0
   23.0792    1.2823   29.9785 O   0  0  0  0  0  0  0  0  0  0  0  0
   22.2024    3.1826   28.8805 C   0  0  1  0  0  0  0  0  0  0  0  0
   21.8720    2.5341   27.6528 O   0  0  0  0  0  0  0  0  0  0  0  0
   21.2665    4.3678   29.0478 C   0  0  1  0  0  0  0  0  0  0  0  0
   22.0094    5.5675   28.7704 O   0  0  0  0  0  0  0  0  0  0  0  0
   20.1464    4.1400   28.0405 C   0  0  0  0  0  0  0  0  0  0  0  0
   20.7407    3.1595   27.0329 C   0  0  2  0  0  0  0  0  0  0  0  0
   17.5502    1.0882   23.5598 N   0  0  0  0  0  0  0  0  0  0  0  0
   18.3014    2.1946   23.4365 C   0  0  2  0  0  0  0  0  0  0  0  0
   18.2457    2.8685   22.2642 N   0  0  0  0  0  0  0  0  0  0  0  0
   19.0961    2.6160   24.4498 N   0  0  0  0  0  0  0  0  0  0  0  0
   19.1344    1.9166   25.6026 C   0  0  2  0  0  0  0  0  0  0  0  0
   18.3680    0.7802   25.7458 C   0  0  1  0  0  0  0  0  0  0  0  0
   17.5716    0.3664   24.6950 C   0  0  0  0  0  0  0  0  0  0  0  0
   16.8739   -0.6651   24.8024 O   0  0  0  0  0  0  0  0  0  0  0  0
   18.5833    0.2833   26.9800 N   0  0  0  0  0  0  0  0  0  0  0  0
   19.4706    1.0908   27.5874 C   0  0  0  0  0  0  0  0  0  0  0  0
   19.7883    2.0815   26.7469 N   0  0  1  0  0  0  0  0  0  0  0  0
   22.1662   -0.2370   31.7516 O   0  0  0  0  0  0  0  0  0  0  0  0
   24.4786   -0.5809   30.7622 O   0  5  0  0  0  0  0  0  0  0  0  0
   24.0023    1.4244   32.2245 O   0  0  0  0  0  0  0  0  0  0  0  0
  1  3  1  6  0  0  0
  1 21  1  0  0  0  0
  1 22  1  0  0  0  0
  1 23  2  0  0  0  0
  2  3  1  0  0  0  0
  4  2  1  1  0  0  0
  4  5  1  0  0  0  0
  4  6  1  0  0  0  0
  6  7  1  6  0  0  0
  6  8  1  0  0  0  0
  8  9  1  0  0  0  0
  9  5  1  1  0  0  0
  9 20  1  0  0  0  0
 10 11  1  0  0  0  0
 10 16  1  0  0  0  0
 11 12  1  6  0  0  0
 11 13  1  0  0  0  0
 14 13  1  1  0  0  0
 14 15  1  0  0  0  0
 14 20  1  0  0  0  0
 15 16  1  6  0  0  0
 15 18  1  0  0  0  0
 16 17  2  0  0  0  0
 18 19  1  0  0  0  0
 20 19  1  6  0  0  0
M  CHG  1  22  -1
M  END
>  <CHROM.1>
54.18755795,69.30042893,163.65034947,-134.26675740,20.71687852,1.74098101
27.77394391,0.28909132,0.87681026,2.82485883

>  <Name>
ligand

>  <RI>
416

>  <Rbt.Current_Directory>
/home/itssahil/PROJECTS/Mol_Feturizer/Test_systems_manuscript/rnas/3slm

>  <Rbt.Executable>
rbdock ($Id: //depot/dev/client3/rdock/2013.1/src/exe/rbdock.cxx#4 $)

>  <Rbt.Library>
libRbt.so (2013.1, Build901 2013/11/27)

>  <Rbt.Parameter_File>
/export/apps/rDock/src/rDock_2013.1_src/data/scripts/dock_solv.prm

>  <Rbt.Receptor>
prm/pocket_docking_2.prm

>  <SCORE>
-20.8364

>  <SCORE.INTER>
-15.6851

>  <SCORE.INTER.CONST>
1

>  <SCORE.INTER.POLAR>
0

>  <SCORE.INTER.ROT>
4

>  <SCORE.INTER.SOLV>
24.9774

>  <SCORE.INTER.VDW>
-25.0492

>  <SCORE.INTER.norm>
-0.68196

>  <SCORE.INTRA>
-5.1513

>  <SCORE.INTRA.DIHEDRAL>
-5.78875

>  <SCORE.INTRA.DIHEDRAL.0>
8.62657

>  <SCORE.INTRA.POLAR>
0

>  <SCORE.INTRA.POLAR.0>
0

>  <SCORE.INTRA.REPUL>
0

>  <SCORE.INTRA.REPUL.0>
0

>  <SCORE.INTRA.SOLV>
-0.694335

>  <SCORE.INTRA.SOLV.lig_0>
-66.3641

>  <SCORE.INTRA.VDW>
-1.90976

>  <SCORE.INTRA.VDW.0>
0.452231

>  <SCORE.INTRA.norm>
-0.22397

>  <SCORE.RESTR>
0

>  <SCORE.RESTR.CAVITY>
0

>  <SCORE.RESTR.norm>
0

>  <SCORE.SYSTEM>
0

>  <SCORE.SYSTEM.CONST>
0

>  <SCORE.SYSTEM.DIHEDRAL>
0

>  <SCORE.SYSTEM.SOLV>
0

>  <SCORE.SYSTEM.norm>
0

>  <SCORE.heavy>
23

>  <SCORE.norm>
-0.905929

>  <RMSD>
1.107

$$$$
ligand
 OpenBabel02271912143D
libRbt.so/2013.1/901 2013/11/27
 23 25  0  0  0  0  0  0  0  0999 V2000
   23.5211    0.1672   29.8281 P   0  0  1  0  0  0  0  0  0  0  0  0
   22.0108    2.2941   30.0524 C   0  0  0  0  0  0  0  0  0  0  0  0
   23.3033    1.7199   30.1884 O   0  0  0  0  0  0  0  0  0  0  0  0
   22.0710    3.2719   28.9006 C   0  0  1  0  0  0  0  0  0  0  0  0
   21.7671    2.6505   27.6523 O   0  0  0  0  0  0  0  0  0  0  0  0
   21.0537    4.3767   29.1309 C   0  0  1  0  0  0  0  0  0  0  0  0
   21.7013    5.6384   28.8923 O   0  0  0  0  0  0  0  0  0  0  0  0
   19.9354    4.1071   28.1318 C   0  0  0  0  0  0  0  0  0  0  0  0
   20.5820    3.2147   27.0757 C   0  0  2  0  0  0  0  0  0  0  0  0
   17.5853    0.9927   23.5240 N   0  0  0  0  0  0  0  0  0  0  0  0
   18.2644    2.1474   23.4282 C   0  0  2  0  0  0  0  0  0  0  0  0
   18.1821    2.8339   22.2648 N   0  0  0  0  0  0  0  0  0  0  0  0
   19.0148    2.6043   24.4597 N   0  0  0  0  0  0  0  0  0  0  0  0
   19.0817    1.8916   25.6030 C   0  0  2  0  0  0  0  0  0  0  0  0
   18.3892    0.7056   25.7181 C   0  0  1  0  0  0  0  0  0  0  0  0
   17.6371    0.2568   24.6492 C   0  0  0  0  0  0  0  0  0  0  0  0
   17.0068   -0.8195   24.7310 O   0  0  0  0  0  0  0  0  0  0  0  0
   18.6182    0.2053   26.9483 N   0  0  0  0  0  0  0  0  0  0  0  0
   19.4417    1.0596   27.5810 C   0  0  0  0  0  0  0  0  0  0  0  0
   19.7064    2.0815   26.7597 N   0  0  1  0  0  0  0  0  0  0  0  0
   22.9608   -0.0473   28.4431 O   0  0  0  0  0  0  0  0  0  0  0  0
   25.0167   -0.0246   29.9324 O   0  5  0  0  0  0  0  0  0  0  0  0
   22.7414   -0.5352   30.9066 O   0  0  0  0  0  0  0  0  0  0  0  0
  1  3  1  1  0  0  0
  1 21  1  0  0  0  0
  1 22  1  0  0  0  0
  1 23  2  0  0  0  0
  2  3  1  0  0  0  0
  4  2  1  1  0  0  0
  4  5  1  0  0  0  0
  4  6  1  0  0  0  0
  6  7  1  6  0  0  0
  6  8  1  0  0  0  0
  8  9  1  0  0  0  0
  9  5  1  1  0  0  0
  9 20  1  0  0  0  0
 10 11  1  0  0  0  0
 10 16  1  0  0  0  0
 11 12  1  6  0  0  0
 11 13  1  0  0  0  0
 14 13  1  1  0  0  0
 14 15  1  0  0  0  0
 14 20  1  0  0  0  0
 15 16  1  6  0  0  0
 15 18  1  0  0  0  0
 16 17  2  0  0  0  0
 18 19  1  0  0  0  0
 20 19  1  6  0  0  0
M  CHG  1  22  -1
M  END
>  <CHROM.1>
52.07171826,89.31011082,-111.28150555,-131.85598824,20.68705181,1.67154785
27.40178722,0.00014215,0.82521694,-3.10803127

>  <Name>
ligand

>  <RI>
416

>  <Rbt.Current_Directory>
/home/itssahil/PROJECTS/Mol_Feturizer/Test_systems_manuscript/rnas/3slm

>  <Rbt.Executable>
rbdock ($Id: //depot/dev/client3/rdock/2013.1/src/exe/rbdock.cxx#4 $)

>  <Rbt.Library>
libRbt.so (2013.1, Build901 2013/11/27)

>  <Rbt.Parameter_File>
/export/apps/rDock/src/rDock_2013.1_src/data/scripts/dock_solv.prm

>  <Rbt.Receptor>
prm/pocket_docking_2.prm

>  <SCORE>
-16.3249

>  <SCORE.INTER>
-14.7587

>  <SCORE.INTER.CONST>
1

>  <SCORE.INTER.POLAR>
0

>  <SCORE.INTER.ROT>
4

>  <SCORE.INTER.SOLV>
24.1576

>  <SCORE.INTER.VDW>
-24.1583

>  <SCORE.INTER.norm>
-0.641681

>  <SCORE.INTRA>
-1.59291

>  <SCORE.INTRA.DIHEDRAL>
2.0789

>  <SCORE.INTRA.DIHEDRAL.0>
8.62657

>  <SCORE.INTRA.POLAR>
0

>  <SCORE.INTRA.POLAR.0>
0

>  <SCORE.INTRA.REPUL>
0

>  <SCORE.INTRA.REPUL.0>
0

>  <SCORE.INTRA.SOLV>
-0.267728

>  <SCORE.INTRA.SOLV.lig_0>
-66.3641

>  <SCORE.INTRA.VDW>
-2.4985

>  <SCORE.INTRA.VDW.0>
0.452231

>  <SCORE.INTRA.norm>
-0.0692571

>  <SCORE.RESTR>
0.0267115

>  <SCORE.RESTR.CAVITY>
0.0267115

>  <SCORE.RESTR.norm>
0.00116137

>  <SCORE.SYSTEM>
0

>  <SCORE.SYSTEM.CONST>
0

>  <SCORE.SYSTEM.DIHEDRAL>
0

>  <SCORE.SYSTEM.SOLV>
0

>  <SCORE.SYSTEM.norm>
0

>  <SCORE.heavy>
23

>  <SCORE.norm>
-0.709777

>  <RMSD>
1.124

$$$$
ligand
 OpenBabel02271912143D
libRbt.so/2013.1/901 2013/11/27
 23 25  0  0  0  0  0  0  0  0999 V2000
   22.6333    1.1171   30.8582 P   0  0  1  0  0  0  0  0  0  0  0  0
   23.1422    2.8302   28.9447 C   0  0  0  0  0  0  0  0  0  0  0  0
   22.1705    2.2210   29.7833 O   0  0  0  0  0  0  0  0  0  0  0  0
   22.4552    3.9533   28.2010 C   0  0  1  0  0  0  0  0  0  0  0  0
   21.8067    3.4944   27.0153 O   0  0  0  0  0  0  0  0  0  0  0  0
   21.3985    4.5731   29.0997 C   0  0  1  0  0  0  0  0  0  0  0  0
   21.5447    6.0026   29.0425 O   0  0  0  0  0  0  0  0  0  0  0  0
   20.0641    4.1090   28.5293 C   0  0  0  0  0  0  0  0  0  0  0  0
   20.3902    3.6998   27.0955 C   0  0  2  0  0  0  0  0  0  0  0  0
   17.7723    0.9466   23.6172 N   0  0  0  0  0  0  0  0  0  0  0  0
   18.1680    2.2271   23.5306 C   0  0  2  0  0  0  0  0  0  0  0  0
   17.8676    2.9059   22.3990 N   0  0  0  0  0  0  0  0  0  0  0  0
   18.8540    2.8160   24.5397 N   0  0  0  0  0  0  0  0  0  0  0  0
   19.1442    2.1086   25.6511 C   0  0  2  0  0  0  0  0  0  0  0  0
   18.7434    0.7943   25.7564 C   0  0  1  0  0  0  0  0  0  0  0  0
   18.0518    0.2137   24.7102 C   0  0  0  0  0  0  0  0  0  0  0  0
   17.6851   -0.9790   24.7833 O   0  0  0  0  0  0  0  0  0  0  0  0
   19.1485    0.3282   26.9543 N   0  0  0  0  0  0  0  0  0  0  0  0
   19.7937    1.3306   27.5764 C   0  0  0  0  0  0  0  0  0  0  0  0
   19.7750    2.4061   26.7815 N   0  0  1  0  0  0  0  0  0  0  0  0
   23.0131   -0.1212   30.0832 O   0  0  0  0  0  0  0  0  0  0  0  0
   23.7837    1.7756   31.5843 O   0  5  0  0  0  0  0  0  0  0  0  0
   21.4010    0.9418   31.7039 O   0  0  0  0  0  0  0  0  0  0  0  0
  1  3  1  6  0  0  0
  1 21  1  0  0  0  0
  1 22  1  0  0  0  0
  1 23  2  0  0  0  0
  2  3  1  0  0  0  0
  4  2  1  1  0  0  0
  4  5  1  0  0  0  0
  4  6  1  0  0  0  0
  6  7  1  6  0  0  0
  6  8  1  0  0  0  0
  8  9  1  0  0  0  0
  9  5  1  1  0  0  0
  9 20  1  0  0  0  0
 10 11  1  0  0  0  0
 10 16  1  0  0  0  0
 11 12  1  6  0  0  0
 11 13  1  0  0  0  0
 14 13  1  1  0  0  0
 14 15  1  0  0  0  0
 14 20  1  0  0  0  0
 15 16  1  6  0  0  0
 15 18  1  0  0  0  0
 16 17  2  0  0  0  0
 18 19  1  0  0  0  0
 20 19  1  6  0  0  0
M  CHG  1  22  -1
M  END
>  <CHROM.1>
-71.28312306,-85.44056804,-171.68724336,-107.04997822,20.58444611,2.10580974
27.61439536,0.17663935,0.94569265,2.81659877

>  <Name>
ligand

>  <RI>
416

>  <Rbt.Current_Directory>
/home/itssahil/PROJECTS/Mol_Feturizer/Test_systems_manuscript/rnas/3slm

>  <Rbt.Executable>
rbdock ($Id: //depot/dev/client3/rdock/2013.1/src/exe/rbdock.cxx#4 $)

>  <Rbt.Library>
libRbt.so (2013.1, Build901 2013/11/27)

>  <Rbt.Parameter_File>
/export/apps/rDock/src/rDock_2013.1_src/data/scripts/dock_solv.prm

>  <Rbt.Receptor>
prm/pocket_docking_2.prm

>  <SCORE>
-18.0947

>  <SCORE.INTER>
-14.8415

>  <SCORE.INTER.CONST>
1

>  <SCORE.INTER.POLAR>
0

>  <SCORE.INTER.ROT>
4

>  <SCORE.INTER.SOLV>
23.6405

>  <SCORE.INTER.VDW>
-24.0412

>  <SCORE.INTER.norm>
-0.645282

>  <SCORE.INTRA>
-3.2532

>  <SCORE.INTRA.DIHEDRAL>
-4.9272

>  <SCORE.INTRA.DIHEDRAL.0>
8.62657

>  <SCORE.INTRA.POLAR>
0

>  <SCORE.INTRA.POLAR.0>
0

>  <SCORE.INTRA.REPUL>
0

>  <SCORE.INTRA.REPUL.0>
0

>  <SCORE.INTRA.SOLV>
0.040471

>  <SCORE.INTRA.SOLV.lig_0>
-66.3641

>  <SCORE.INTRA.VDW>
-0.809834

>  <SCORE.INTRA.VDW.0>
0.452231

>  <SCORE.INTRA.norm>
-0.141443

>  <SCORE.RESTR>
0

>  <SCORE.RESTR.CAVITY>
0

>  <SCORE.RESTR.norm>
0

>  <SCORE.SYSTEM>
0

>  <SCORE.SYSTEM.CONST>
0

>  <SCORE.SYSTEM.DIHEDRAL>
0

>  <SCORE.SYSTEM.SOLV>
0

>  <SCORE.SYSTEM.norm>
0

>  <SCORE.heavy>
23

>  <SCORE.norm>
-0.786726

>  <RMSD>
1.125

$$$$
ligand
 OpenBabel02271912143D
libRbt.so/2013.1/901 2013/11/27
 23 25  0  0  0  0  0  0  0  0999 V2000
   23.3554    1.7988   31.7953 P   0  0  1  0  0  0  0  0  0  0  0  0
   22.6190    2.2339   29.3207 C   0  0  0  0  0  0  0  0  0  0  0  0
   23.1716    2.7608   30.5190 O   0  0  0  0  0  0  0  0  0  0  0  0
   22.4174    3.3924   28.3701 C   0  0  1  0  0  0  0  0  0  0  0  0
   21.8981    2.9688   27.1100 O   0  0  0  0  0  0  0  0  0  0  0  0
   21.4252    4.3694   28.9781 C   0  0  1  0  0  0  0  0  0  0  0  0
   21.9675    5.6953   28.8509 O   0  0  0  0  0  0  0  0  0  0  0  0
   20.1438    4.1933   28.1730 C   0  0  0  0  0  0  0  0  0  0  0  0
   20.6034    3.5374   26.8736 C   0  0  2  0  0  0  0  0  0  0  0  0
   17.6604    1.3723   23.2428 N   0  0  0  0  0  0  0  0  0  0  0  0
   18.3512    2.5217   23.1707 C   0  0  2  0  0  0  0  0  0  0  0  0
   18.2985    3.2188   22.0119 N   0  0  0  0  0  0  0  0  0  0  0  0
   19.0845    2.9632   24.2212 N   0  0  0  0  0  0  0  0  0  0  0  0
   19.1219    2.2401   25.3594 C   0  0  2  0  0  0  0  0  0  0  0  0
   18.4170    1.0594   25.4500 C   0  0  1  0  0  0  0  0  0  0  0  0
   17.6830    0.6264   24.3622 C   0  0  0  0  0  0  0  0  0  0  0  0
   17.0419   -0.4450   24.4219 O   0  0  0  0  0  0  0  0  0  0  0  0
   18.6167    0.5466   26.6803 N   0  0  0  0  0  0  0  0  0  0  0  0
   19.4345    1.3881   27.3369 C   0  0  0  0  0  0  0  0  0  0  0  0
   19.7247    2.4146   26.5300 N   0  0  1  0  0  0  0  0  0  0  0  0
   23.9778    2.6316   32.8895 O   0  0  0  0  0  0  0  0  0  0  0  0
   21.9534    1.3211   32.0962 O   0  5  0  0  0  0  0  0  0  0  0  0
   24.2650    0.7216   31.2694 O   0  0  0  0  0  0  0  0  0  0  0  0
  1  3  1  6  0  0  0
  1 21  1  0  0  0  0
  1 22  1  0  0  0  0
  1 23  2  0  0  0  0
  2  3  1  0  0  0  0
  4  2  1  1  0  0  0
  4  5  1  0  0  0  0
  4  6  1  0  0  0  0
  6  7  1  6  0  0  0
  6  8  1  0  0  0  0
  8  9  1  0  0  0  0
  9  5  1  1  0  0  0
  9 20  1  0  0  0  0
 10 11  1  0  0  0  0
 10 16  1  0  0  0  0
 11 12  1  6  0  0  0
 11 13  1  0  0  0  0
 14 13  1  1  0  0  0
 14 15  1  0  0  0  0
 14 20  1  0  0  0  0
 15 16  1  6  0  0  0
 15 18  1  0  0  0  0
 16 17  2  0  0  0  0
 18 19  1  0  0  0  0
 20 19  1  6  0  0  0
M  CHG  1  22  -1
M  END
>  <CHROM.1>
179.11131531,178.31483282,173.35397245,-115.96800625,20.74174665,2.30719053
27.72186087,0.37915117,0.91066536,2.59148290

>  <Name>
ligand

>  <RI>
0

>  <Rbt.Current_Directory>
/home/itssahil/PROJECTS/Mol_Feturizer/Test_systems_manuscript/rnas/3slm

>  <Rbt.Executable>
rbdock ($Id: //depot/dev/client3/rdock/2013.1/src/exe/rbdock.cxx#4 $)

>  <Rbt.Library>
libRbt.so (2013.1, Build901 2013/11/27)

>  <Rbt.Parameter_File>
/export/apps/rDock/src/rDock_2013.1_src/data/scripts/dock_solv.prm

>  <Rbt.Receptor>
prm/pocket_docking_3.prm

>  <SCORE>
-23.0105

>  <SCORE.INTER>
-18.0862

>  <SCORE.INTER.CONST>
1

>  <SCORE.INTER.POLAR>
0

>  <SCORE.INTER.ROT>
4

>  <SCORE.INTER.SOLV>
26.0949

>  <SCORE.INTER.VDW>
-27.0224

>  <SCORE.INTER.norm>
-0.786357

>  <SCORE.INTRA>
-4.95586

>  <SCORE.INTRA.DIHEDRAL>
-7.20865

>  <SCORE.INTRA.DIHEDRAL.0>
8.62657

>  <SCORE.INTRA.POLAR>
0

>  <SCORE.INTRA.POLAR.0>
0

>  <SCORE.INTRA.REPUL>
0

>  <SCORE.INTRA.REPUL.0>
0

>  <SCORE.INTRA.SOLV>
0.291155

>  <SCORE.INTRA.SOLV.lig_0>
-66.3641

>  <SCORE.INTRA.VDW>
-1.49711

>  <SCORE.INTRA.VDW.0>
0.452231

>  <SCORE.INTRA.norm>
-0.215472

>  <SCORE.RESTR>
0.031562

>  <SCORE.RESTR.CAVITY>
0.031562

>  <SCORE.RESTR.norm>
0.00137226

>  <SCORE.SYSTEM>
0

>  <SCORE.SYSTEM.CONST>
0

>  <SCORE.SYSTEM.DIHEDRAL>
0

>  <SCORE.SYSTEM.SOLV>
0

>  <SCORE.SYSTEM.norm>
0

>  <SCORE.heavy>
23

>  <SCORE.norm>
-1.00046

>  <RMSD>
1.161

$$$$
ligand
 OpenBabel02271912143D
libRbt.so/2013.1/901 2013/11/27
 23 25  0  0  0  0  0  0  0  0999 V2000
   23.3601    1.7920   31.8214 P   0  0  1  0  0  0  0  0  0  0  0  0
   22.6157    2.2467   29.3527 C   0  0  0  0  0  0  0  0  0  0  0  0
   23.1420    2.7713   30.5637 O   0  0  0  0  0  0  0  0  0  0  0  0
   22.4012    3.4115   28.4127 C   0  0  1  0  0  0  0  0  0  0  0  0
   21.8775    2.9948   27.1522 O   0  0  0  0  0  0  0  0  0  0  0  0
   21.4063    4.3771   29.0342 C   0  0  1  0  0  0  0  0  0  0  0  0
   21.9393    5.7074   28.9148 O   0  0  0  0  0  0  0  0  0  0  0  0
   20.1215    4.1993   28.2350 C   0  0  0  0  0  0  0  0  0  0  0  0
   20.5779    3.5569   26.9278 C   0  0  2  0  0  0  0  0  0  0  0  0
   17.6530    1.3863   23.2855 N   0  0  0  0  0  0  0  0  0  0  0  0
   18.3395    2.5386   23.2172 C   0  0  2  0  0  0  0  0  0  0  0  0
   18.2872    3.2374   22.0594 N   0  0  0  0  0  0  0  0  0  0  0  0
   19.0682    2.9811   24.2703 N   0  0  0  0  0  0  0  0  0  0  0  0
   19.1055    2.2564   25.4074 C   0  0  2  0  0  0  0  0  0  0  0  0
   18.4049    1.0728   25.4943 C   0  0  1  0  0  0  0  0  0  0  0  0
   17.6754    0.6387   24.4038 C   0  0  0  0  0  0  0  0  0  0  0  0
   17.0383   -0.4353   24.4601 O   0  0  0  0  0  0  0  0  0  0  0  0
   18.6033    0.5587   26.7242 N   0  0  0  0  0  0  0  0  0  0  0  0
   19.4161    1.4024   27.3844 C   0  0  0  0  0  0  0  0  0  0  0  0
   19.7044    2.4313   26.5800 N   0  0  1  0  0  0  0  0  0  0  0  0
   23.9919    2.6154   32.9173 O   0  0  0  0  0  0  0  0  0  0  0  0
   21.9697    1.2924   32.1394 O   0  5  0  0  0  0  0  0  0  0  0  0
   24.2732    0.7344   31.2626 O   0  0  0  0  0  0  0  0  0  0  0  0
  1  3  1  6  0  0  0
  1 21  1  0  0  0  0
  1 22  1  0  0  0  0
  1 23  2  0  0  0  0
  2  3  1  0  0  0  0
  4  2  1  1  0  0  0
  4  5  1  0  0  0  0
  4  6  1  0  0  0  0
  6  7  1  6  0  0  0
  6  8  1  0  0  0  0
  8  9  1  0  0  0  0
  9  5  1  1  0  0  0
  9 20  1  0  0  0  0
 10 11  1  0  0  0  0
 10 16  1  0  0  0  0
 11 12  1  6  0  0  0
 11 13  1  0  0  0  0
 14 13  1  1  0  0  0
 14 15  1  0  0  0  0
 14 20  1  0  0  0  0
 15 16  1  6  0  0  0
 15 18  1  0  0  0  0
 16 17  2  0  0  0  0
 18 19  1  0  0  0  0
 20 19  1  6  0  0  0
M  CHG  1  22  -1
M  END
>  <CHROM.1>
177.04005565,179.67440295,174.66808836,-115.34493558,20.73160202,2.31619080
27.76352647,0.36988142,0.91127656,2.60465031

>  <Name>
ligand

>  <RI>
0

>  <Rbt.Current_Directory>
/home/itssahil/PROJECTS/Mol_Feturizer/Test_systems_manuscript/rnas/3slm

>  <Rbt.Executable>
rbdock ($Id: //depot/dev/client3/rdock/2013.1/src/exe/rbdock.cxx#4 $)

>  <Rbt.Library>
libRbt.so (2013.1, Build901 2013/11/27)

>  <Rbt.Parameter_File>
/export/apps/rDock/src/rDock_2013.1_src/data/scripts/dock_solv.prm

>  <Rbt.Receptor>
prm/pocket_docking_3.prm

>  <SCORE>
-22.9943

>  <SCORE.INTER>
-18.0529

>  <SCORE.INTER.CONST>
1

>  <SCORE.INTER.POLAR>
0

>  <SCORE.INTER.ROT>
4

>  <SCORE.INTER.SOLV>
26.0998

>  <SCORE.INTER.VDW>
-27.0019

>  <SCORE.INTER.norm>
-0.78491

>  <SCORE.INTRA>
-4.95674

>  <SCORE.INTRA.DIHEDRAL>
-7.28707

>  <SCORE.INTRA.DIHEDRAL.0>
8.62657

>  <SCORE.INTRA.POLAR>
0

>  <SCORE.INTRA.POLAR.0>
0

>  <SCORE.INTRA.REPUL>
0

>  <SCORE.INTRA.REPUL.0>
0

>  <SCORE.INTRA.SOLV>
0.280168

>  <SCORE.INTRA.SOLV.lig_0>
-66.3641

>  <SCORE.INTRA.VDW>
-1.45329

>  <SCORE.INTRA.VDW.0>
0.452231

>  <SCORE.INTRA.norm>
-0.21551

>  <SCORE.RESTR>
0.0153541

>  <SCORE.RESTR.CAVITY>
0.0153541

>  <SCORE.RESTR.norm>
0.000667572

>  <SCORE.SYSTEM>
0

>  <SCORE.SYSTEM.CONST>
0

>  <SCORE.SYSTEM.DIHEDRAL>
0

>  <SCORE.SYSTEM.SOLV>
0

>  <SCORE.SYSTEM.norm>
0

>  <SCORE.heavy>
23

>  <SCORE.norm>
-0.999753

>  <RMSD>
1.165

$$$$
ligand
 OpenBabel02271912143D
libRbt.so/2013.1/901 2013/11/27
 23 25  0  0  0  0  0  0  0  0999 V2000
   23.4620    1.0344   31.5354 P   0  0  1  0  0  0  0  0  0  0  0  0
   21.9595    2.8053   30.3264 C   0  0  0  0  0  0  0  0  0  0  0  0
   23.0484    1.8965   30.2416 O   0  0  0  0  0  0  0  0  0  0  0  0
   22.0684    3.7500   29.1507 C   0  0  1  0  0  0  0  0  0  0  0  0
   21.7995    3.0969   27.9105 O   0  0  0  0  0  0  0  0  0  0  0  0
   21.0559    4.8706   29.3162 C   0  0  1  0  0  0  0  0  0  0  0  0
   21.7246    6.1187   29.0647 O   0  0  0  0  0  0  0  0  0  0  0  0
   19.9686    4.5842   28.2881 C   0  0  0  0  0  0  0  0  0  0  0  0
   20.6403    3.6563   27.2793 C   0  0  2  0  0  0  0  0  0  0  0  0
   17.7317    1.3705   23.6950 N   0  0  0  0  0  0  0  0  0  0  0  0
   18.4248    2.5161   23.5905 C   0  0  2  0  0  0  0  0  0  0  0  0
   18.3849    3.1730   22.4079 N   0  0  0  0  0  0  0  0  0  0  0  0
   19.1478    2.9927   24.6326 N   0  0  0  0  0  0  0  0  0  0  0  0
   19.1726    2.3092   25.7954 C   0  0  2  0  0  0  0  0  0  0  0  0
   18.4652    1.1331   25.9194 C   0  0  1  0  0  0  0  0  0  0  0  0
   17.7417    0.6636   24.8396 C   0  0  0  0  0  0  0  0  0  0  0  0
   17.0986   -0.4045   24.9295 O   0  0  0  0  0  0  0  0  0  0  0  0
   18.6515    0.6626   27.1685 N   0  0  0  0  0  0  0  0  0  0  0  0
   19.4638    1.5255   27.8041 C   0  0  0  0  0  0  0  0  0  0  0  0
   19.7635    2.5233   26.9655 N   0  0  1  0  0  0  0  0  0  0  0  0
   24.0219    2.0019   32.5497 O   0  0  0  0  0  0  0  0  0  0  0  0
   22.1728    0.3670   31.9557 O   0  5  0  0  0  0  0  0  0  0  0  0
   24.4882    0.0819   30.9840 O   0  0  0  0  0  0  0  0  0  0  0  0
  1  3  1  6  0  0  0
  1 21  1  0  0  0  0
  1 22  1  0  0  0  0
  1 23  2  0  0  0  0
  2  3  1  0  0  0  0
  4  2  1  1  0  0  0
  4  5  1  0  0  0  0
  4  6  1  0  0  0  0
  6  7  1  6  0  0  0
  6  8  1  0  0  0  0
  8  9  1  0  0  0  0
  9  5  1  1  0  0  0
  9 20  1  0  0  0  0
 10 11  1  0  0  0  0
 10 16  1  0  0  0  0
 11 12  1  6  0  0  0
 11 13  1  0  0  0  0
 14 13  1  1  0  0  0
 14 15  1  0  0  0  0
 14 20  1  0  0  0  0
 15 16  1  6  0  0  0
 15 18  1  0  0  0  0
 16 17  2  0  0  0  0
 18 19  1  0  0  0  0
 20 19  1  6  0  0  0
M  CHG  1  22  -1
M  END
>  <CHROM.1>
-68.17426670,69.32695655,163.03378853,-132.05255277,20.71598845,2.21681698
27.99530750,0.19101882,0.91860069,2.90979626

>  <Name>
ligand

>  <RI>
0

>  <Rbt.Current_Directory>
/home/itssahil/PROJECTS/Mol_Feturizer/Test_systems_manuscript/rnas/3slm

>  <Rbt.Executable>
rbdock ($Id: //depot/dev/client3/rdock/2013.1/src/exe/rbdock.cxx#4 $)

>  <Rbt.Library>
libRbt.so (2013.1, Build901 2013/11/27)

>  <Rbt.Parameter_File>
/export/apps/rDock/src/rDock_2013.1_src/data/scripts/dock_solv.prm

>  <Rbt.Receptor>
prm/pocket_docking_3.prm

>  <SCORE>
-21.9899

>  <SCORE.INTER>
-16.904

>  <SCORE.INTER.CONST>
1

>  <SCORE.INTER.POLAR>
0

>  <SCORE.INTER.ROT>
4

>  <SCORE.INTER.SOLV>
24.7402

>  <SCORE.INTER.VDW>
-25.7828

>  <SCORE.INTER.norm>
-0.734958

>  <SCORE.INTRA>
-5.08587

>  <SCORE.INTRA.DIHEDRAL>
-5.65384

>  <SCORE.INTRA.DIHEDRAL.0>
8.62657

>  <SCORE.INTRA.POLAR>
0

>  <SCORE.INTRA.POLAR.0>
0

>  <SCORE.INTRA.REPUL>
0

>  <SCORE.INTRA.REPUL.0>
0

>  <SCORE.INTRA.SOLV>
-0.732534

>  <SCORE.INTRA.SOLV.lig_0>
-66.3641

>  <SCORE.INTRA.VDW>
-1.89269

>  <SCORE.INTRA.VDW.0>
0.452231

>  <SCORE.INTRA.norm>
-0.221125

>  <SCORE.RESTR>
0

>  <SCORE.RESTR.CAVITY>
0

>  <SCORE.RESTR.norm>
0

>  <SCORE.SYSTEM>
0

>  <SCORE.SYSTEM.CONST>
0

>  <SCORE.SYSTEM.DIHEDRAL>
0

>  <SCORE.SYSTEM.SOLV>
0

>  <SCORE.SYSTEM.norm>
0

>  <SCORE.heavy>
23

>  <SCORE.norm>
-0.956083

>  <RMSD>
1.167

$$$$
ligand
 OpenBabel02271912143D
libRbt.so/2013.1/901 2013/11/27
 23 25  0  0  0  0  0  0  0  0999 V2000
   23.3346    1.7883   31.8158 P   0  0  1  0  0  0  0  0  0  0  0  0
   22.7105    2.1987   29.3063 C   0  0  0  0  0  0  0  0  0  0  0  0
   23.2187    2.7348   30.5200 O   0  0  0  0  0  0  0  0  0  0  0  0
   22.5442    3.3499   28.3400 C   0  0  1  0  0  0  0  0  0  0  0  0
   21.9959    2.9281   27.0917 O   0  0  0  0  0  0  0  0  0  0  0  0
   21.5970    4.3737   28.9426 C   0  0  1  0  0  0  0  0  0  0  0  0
   22.1889    5.6754   28.7899 O   0  0  0  0  0  0  0  0  0  0  0  0
   20.3015    4.2357   28.1528 C   0  0  0  0  0  0  0  0  0  0  0  0
   20.7219    3.5431   26.8592 C   0  0  2  0  0  0  0  0  0  0  0  0
   17.6557    1.4434   23.2925 N   0  0  0  0  0  0  0  0  0  0  0  0
   18.3892    2.5643   23.1965 C   0  0  2  0  0  0  0  0  0  0  0  0
   18.3496    3.2470   22.0286 N   0  0  0  0  0  0  0  0  0  0  0  0
   19.1510    2.9915   24.2323 N   0  0  0  0  0  0  0  0  0  0  0  0
   19.1741    2.2832   25.3801 C   0  0  2  0  0  0  0  0  0  0  0  0
   18.4256    1.1319   25.4954 C   0  0  1  0  0  0  0  0  0  0  0  0
   17.6627    0.7126   24.4221 C   0  0  0  0  0  0  0  0  0  0  0  0
   16.9818   -0.3324   24.5041 O   0  0  0  0  0  0  0  0  0  0  0  0
   18.6198    0.6286   26.7304 N   0  0  0  0  0  0  0  0  0  0  0  0
   19.4770    1.4470   27.3658 C   0  0  0  0  0  0  0  0  0  0  0  0
   19.7968    2.4504   26.5414 N   0  0  1  0  0  0  0  0  0  0  0  0
   23.9852    2.6075   32.9038 O   0  0  0  0  0  0  0  0  0  0  0  0
   21.9055    1.3903   32.1049 O   0  5  0  0  0  0  0  0  0  0  0  0
   24.1933    0.6555   31.3222 O   0  0  0  0  0  0  0  0  0  0  0  0
  1  3  1  6  0  0  0
  1 21  1  0  0  0  0
  1 22  1  0  0  0  0
  1 23  2  0  0  0  0
  2  3  1  0  0  0  0
  4  2  1  1  0  0  0
  4  5  1  0  0  0  0
  4  6  1  0  0  0  0
  6  7  1  6  0  0  0
  6  8  1  0  0  0  0
  8  9  1  0  0  0  0
  9  5  1  1  0  0  0
  9 20  1  0  0  0  0
 10 11  1  0  0  0  0
 10 16  1  0  0  0  0
 11 12  1  6  0  0  0
 11 13  1  0  0  0  0
 14 13  1  1  0  0  0
 14 15  1  0  0  0  0
 14 20  1  0  0  0  0
 15 16  1  6  0  0  0
 15 18  1  0  0  0  0
 16 17  2  0  0  0  0
 18 19  1  0  0  0  0
 20 19  1  6  0  0  0
M  CHG  1  22  -1
M  END
>  <CHROM.1>
176.32525275,-178.17696705,172.43898153,-116.08008824,20.78723577,2.32632554
27.73510399,0.44693699,0.88456960,2.51389017

>  <Name>
ligand

>  <RI>
0

>  <Rbt.Current_Directory>
/home/itssahil/PROJECTS/Mol_Feturizer/Test_systems_manuscript/rnas/3slm

>  <Rbt.Executable>
rbdock ($Id: //depot/dev/client3/rdock/2013.1/src/exe/rbdock.cxx#4 $)

>  <Rbt.Library>
libRbt.so (2013.1, Build901 2013/11/27)

>  <Rbt.Parameter_File>
/export/apps/rDock/src/rDock_2013.1_src/data/scripts/dock_solv.prm

>  <Rbt.Receptor>
prm/pocket_docking_3.prm

>  <SCORE>
-22.9824

>  <SCORE.INTER>
-18.1303

>  <SCORE.INTER.CONST>
1

>  <SCORE.INTER.POLAR>
0

>  <SCORE.INTER.ROT>
4

>  <SCORE.INTER.SOLV>
26.3347

>  <SCORE.INTER.VDW>
-27.1318

>  <SCORE.INTER.norm>
-0.788275

>  <SCORE.INTRA>
-4.8596

>  <SCORE.INTRA.DIHEDRAL>
-7.12722

>  <SCORE.INTRA.DIHEDRAL.0>
8.62657

>  <SCORE.INTRA.POLAR>
0

>  <SCORE.INTRA.POLAR.0>
0

>  <SCORE.INTRA.REPUL>
0

>  <SCORE.INTRA.REPUL.0>
0

>  <SCORE.INTRA.SOLV>
0.325818

>  <SCORE.INTRA.SOLV.lig_0>
-66.3641

>  <SCORE.INTRA.VDW>
-1.4589

>  <SCORE.INTRA.VDW.0>
0.452231

>  <SCORE.INTRA.norm>
-0.211287

>  <SCORE.RESTR>
0.0074796

>  <SCORE.RESTR.CAVITY>
0.0074796

>  <SCORE.RESTR.norm>
0.0003252

>  <SCORE.SYSTEM>
0

>  <SCORE.SYSTEM.CONST>
0

>  <SCORE.SYSTEM.DIHEDRAL>
0

>  <SCORE.SYSTEM.SOLV>
0

>  <SCORE.SYSTEM.norm>
0

>  <SCORE.heavy>
23

>  <SCORE.norm>
-0.999236

>  <RMSD>
1.175

$$$$
ligand
 OpenBabel02271912143D
libRbt.so/2013.1/901 2013/11/27
 23 25  0  0  0  0  0  0  0  0999 V2000
   22.5493    1.0697   30.9594 P   0  0  1  0  0  0  0  0  0  0  0  0
   23.2774    2.7241   29.0652 C   0  0  0  0  0  0  0  0  0  0  0  0
   22.2162    2.1539   29.8185 O   0  0  0  0  0  0  0  0  0  0  0  0
   22.7091    3.9018   28.3060 C   0  0  1  0  0  0  0  0  0  0  0  0
   22.0185    3.4965   27.1247 O   0  0  0  0  0  0  0  0  0  0  0  0
   21.7201    4.6373   29.1946 C   0  0  1  0  0  0  0  0  0  0  0  0
   22.0112    6.0436   29.1199 O   0  0  0  0  0  0  0  0  0  0  0  0
   20.3460    4.3044   28.6269 C   0  0  0  0  0  0  0  0  0  0  0  0
   20.6301    3.8460   27.1990 C   0  0  2  0  0  0  0  0  0  0  0  0
   17.8268    1.2916   23.7136 N   0  0  0  0  0  0  0  0  0  0  0  0
   18.3620    2.5187   23.6061 C   0  0  2  0  0  0  0  0  0  0  0  0
   18.1694    3.1927   22.4484 N   0  0  0  0  0  0  0  0  0  0  0  0
   19.0794    3.0593   24.6205 N   0  0  0  0  0  0  0  0  0  0  0  0
   19.2593    2.3574   25.7584 C   0  0  2  0  0  0  0  0  0  0  0  0
   18.7149    1.0978   25.8852 C   0  0  1  0  0  0  0  0  0  0  0  0
   17.9939    0.5651   24.8335 C   0  0  0  0  0  0  0  0  0  0  0  0
   17.4975   -0.5784   24.9261 O   0  0  0  0  0  0  0  0  0  0  0  0
   19.0329    0.6258   27.1069 N   0  0  0  0  0  0  0  0  0  0  0  0
   19.7657    1.5703   27.7226 C   0  0  0  0  0  0  0  0  0  0  0  0
   19.8867    2.6178   26.8998 N   0  0  1  0  0  0  0  0  0  0  0  0
   22.9852   -0.1921   30.2553 O   0  0  0  0  0  0  0  0  0  0  0  0
   23.6308    1.7292   31.7839 O   0  5  0  0  0  0  0  0  0  0  0  0
   21.2348    0.9323   31.6790 O   0  0  0  0  0  0  0  0  0  0  0  0
  1  3  1  6  0  0  0
  1 21  1  0  0  0  0
  1 22  1  0  0  0  0
  1 23  2  0  0  0  0
  2  3  1  0  0  0  0
  4  2  1  1  0  0  0
  4  5  1  0  0  0  0
  4  6  1  0  0  0  0
  6  7  1  6  0  0  0
  6  8  1  0  0  0  0
  8  9  1  0  0  0  0
  9  5  1  1  0  0  0
  9 20  1  0  0  0  0
 10 11  1  0  0  0  0
 10 16  1  0  0  0  0
 11 12  1  6  0  0  0
 11 13  1  0  0  0  0
 14 13  1  1  0  0  0
 14 15  1  0  0  0  0
 14 20  1  0  0  0  0
 15 16  1  6  0  0  0
 15 18  1  0  0  0  0
 16 17  2  0  0  0  0
 18 19  1  0  0  0  0
 20 19  1  6  0  0  0
M  CHG  1  22  -1
M  END
>  <CHROM.1>
-70.97903648,-80.32477506,-167.75081921,-105.18126906,20.66476189,2.23068339
27.71868221,0.34130015,0.91699230,2.66776133

>  <Name>
ligand

>  <RI>
416

>  <Rbt.Current_Directory>
/home/itssahil/PROJECTS/Mol_Feturizer/Test_systems_manuscript/rnas/3slm

>  <Rbt.Executable>
rbdock ($Id: //depot/dev/client3/rdock/2013.1/src/exe/rbdock.cxx#4 $)

>  <Rbt.Library>
libRbt.so (2013.1, Build901 2013/11/27)

>  <Rbt.Parameter_File>
/export/apps/rDock/src/rDock_2013.1_src/data/scripts/dock_solv.prm

>  <Rbt.Receptor>
prm/pocket_docking_4.prm

>  <SCORE>
-19.4979

>  <SCORE.INTER>
-15.8205

>  <SCORE.INTER.CONST>
1

>  <SCORE.INTER.POLAR>
0

>  <SCORE.INTER.ROT>
4

>  <SCORE.INTER.SOLV>
24.655

>  <SCORE.INTER.VDW>
-25.032

>  <SCORE.INTER.norm>
-0.687848

>  <SCORE.INTRA>
-3.67739

>  <SCORE.INTRA.DIHEDRAL>
-5.21808

>  <SCORE.INTRA.DIHEDRAL.0>
8.62657

>  <SCORE.INTRA.POLAR>
0

>  <SCORE.INTRA.POLAR.0>
0

>  <SCORE.INTRA.REPUL>
0

>  <SCORE.INTRA.REPUL.0>
0

>  <SCORE.INTRA.SOLV>
0.116007

>  <SCORE.INTRA.SOLV.lig_0>
-66.3641

>  <SCORE.INTRA.VDW>
-1.12635

>  <SCORE.INTRA.VDW.0>
0.452231

>  <SCORE.INTRA.norm>
-0.159886

>  <SCORE.RESTR>
0

>  <SCORE.RESTR.CAVITY>
0

>  <SCORE.RESTR.norm>
0

>  <SCORE.SYSTEM>
0

>  <SCORE.SYSTEM.CONST>
0

>  <SCORE.SYSTEM.DIHEDRAL>
0

>  <SCORE.SYSTEM.SOLV>
0

>  <SCORE.SYSTEM.norm>
0

>  <SCORE.heavy>
23

>  <SCORE.norm>
-0.847734

>  <RMSD>
1.187

$$$$
ligand
 OpenBabel02271912143D
libRbt.so/2013.1/901 2013/11/27
 23 25  0  0  0  0  0  0  0  0999 V2000
   23.7764    1.2467   29.3021 P   0  0  1  0  0  0  0  0  0  0  0  0
   23.1043    3.5369   28.2258 C   0  0  0  0  0  0  0  0  0  0  0  0
   22.6790    2.2913   28.7610 O   0  0  0  0  0  0  0  0  0  0  0  0
   21.9045    4.4572   28.2183 C   0  0  1  0  0  0  0  0  0  0  0  0
   20.9314    4.0628   27.2516 O   0  0  0  0  0  0  0  0  0  0  0  0
   21.2426    4.4246   29.5855 C   0  0  1  0  0  0  0  0  0  0  0  0
   20.9902    5.7805   29.9930 O   0  0  0  0  0  0  0  0  0  0  0  0
   19.9547    3.6347   29.3892 C   0  0  0  0  0  0  0  0  0  0  0  0
   19.6974    3.7027   27.8863 C   0  0  2  0  0  0  0  0  0  0  0  0
   18.0786    0.9999   23.8112 N   0  0  0  0  0  0  0  0  0  0  0  0
   18.2741    2.3257   23.8997 C   0  0  2  0  0  0  0  0  0  0  0  0
   18.0356    3.0743   22.7977 N   0  0  0  0  0  0  0  0  0  0  0  0
   18.7053    2.8929   25.0521 N   0  0  0  0  0  0  0  0  0  0  0  0
   18.9412    2.1170   26.1301 C   0  0  2  0  0  0  0  0  0  0  0  0
   18.7436    0.7551   26.0563 C   0  0  1  0  0  0  0  0  0  0  0  0
   18.3109    0.1994   24.8673 C   0  0  0  0  0  0  0  0  0  0  0  0
   18.1319   -1.0344   24.7777 O   0  0  0  0  0  0  0  0  0  0  0  0
   19.0410    0.2236   27.2585 N   0  0  0  0  0  0  0  0  0  0  0  0
   19.4223    1.2341   28.0596 C   0  0  0  0  0  0  0  0  0  0  0  0
   19.3474    2.3762   27.3678 N   0  0  1  0  0  0  0  0  0  0  0  0
   24.5239    1.9317   30.4202 O   0  0  0  0  0  0  0  0  0  0  0  0
   22.9587    0.0528   29.7384 O   0  5  0  0  0  0  0  0  0  0  0  0
   24.6208    0.9925   28.0828 O   0  0  0  0  0  0  0  0  0  0  0  0
  1  3  1  6  0  0  0
  1 21  1  0  0  0  0
  1 22  1  0  0  0  0
  1 23  2  0  0  0  0
  2  3  1  0  0  0  0
  4  2  1  1  0  0  0
  4  5  1  0  0  0  0
  4  6  1  0  0  0  0
  6  7  1  6  0  0  0
  6  8  1  0  0  0  0
  8  9  1  0  0  0  0
  9  5  1  6  0  0  0
  9 20  1  0  0  0  0
 10 11  1  0  0  0  0
 10 16  1  0  0  0  0
 11 12  1  6  0  0  0
 11 13  1  0  0  0  0
 14 13  1  1  0  0  0
 14 15  1  0  0  0  0
 14 20  1  0  0  0  0
 15 16  1  6  0  0  0
 15 18  1  0  0  0  0
 16 17  2  0  0  0  0
 18 19  1  0  0  0  0
 20 19  1  6  0  0  0
M  CHG  1  22  -1
M  END
>  <CHROM.1>
60.43385127,-69.94386868,-162.23290801,-70.61394069,20.77425824,2.18103089
27.43954233,-0.38947114,0.69298230,-2.78201960

>  <Name>
ligand

>  <RI>
416

>  <Rbt.Current_Directory>
/home/itssahil/PROJECTS/Mol_Feturizer/Test_systems_manuscript/rnas/3slm

>  <Rbt.Executable>
rbdock ($Id: //depot/dev/client3/rdock/2013.1/src/exe/rbdock.cxx#4 $)

>  <Rbt.Library>
libRbt.so (2013.1, Build901 2013/11/27)

>  <Rbt.Parameter_File>
/export/apps/rDock/src/rDock_2013.1_src/data/scripts/dock_solv.prm

>  <Rbt.Receptor>
prm/pocket_docking_2.prm

>  <SCORE>
-19.9065

>  <SCORE.INTER>
-16.1726

>  <SCORE.INTER.CONST>
1

>  <SCORE.INTER.POLAR>
0

>  <SCORE.INTER.ROT>
4

>  <SCORE.INTER.SOLV>
24.2589

>  <SCORE.INTER.VDW>
-25.1347

>  <SCORE.INTER.norm>
-0.703158

>  <SCORE.INTRA>
-3.94797

>  <SCORE.INTRA.DIHEDRAL>
-5.66041

>  <SCORE.INTRA.DIHEDRAL.0>
8.62657

>  <SCORE.INTRA.POLAR>
0

>  <SCORE.INTRA.POLAR.0>
0

>  <SCORE.INTRA.REPUL>
0

>  <SCORE.INTRA.REPUL.0>
0

>  <SCORE.INTRA.SOLV>
-0.273877

>  <SCORE.INTRA.SOLV.lig_0>
-66.3641

>  <SCORE.INTRA.VDW>
-0.980828

>  <SCORE.INTRA.VDW.0>
0.452231

>  <SCORE.INTRA.norm>
-0.171651

>  <SCORE.RESTR>
0.214133

>  <SCORE.RESTR.CAVITY>
0.214133

>  <SCORE.RESTR.norm>
0.00931015

>  <SCORE.SYSTEM>
0

>  <SCORE.SYSTEM.CONST>
0

>  <SCORE.SYSTEM.DIHEDRAL>
0

>  <SCORE.SYSTEM.SOLV>
0

>  <SCORE.SYSTEM.norm>
0

>  <SCORE.heavy>
23

>  <SCORE.norm>
-0.865499

>  <RMSD>
1.189

$$$$
ligand
 OpenBabel02271912143D
libRbt.so/2013.1/901 2013/11/27
 23 25  0  0  0  0  0  0  0  0999 V2000
   23.3406    1.0402   31.5725 P   0  0  1  0  0  0  0  0  0  0  0  0
   21.8956    2.8644   30.3727 C   0  0  0  0  0  0  0  0  0  0  0  0
   22.9185    1.8838   30.2692 O   0  0  0  0  0  0  0  0  0  0  0  0
   22.0313    3.7845   29.1804 C   0  0  1  0  0  0  0  0  0  0  0  0
   21.7882    3.1063   27.9484 O   0  0  0  0  0  0  0  0  0  0  0  0
   21.0170    4.9094   29.3009 C   0  0  1  0  0  0  0  0  0  0  0  0
   21.6928    6.1514   29.0382 O   0  0  0  0  0  0  0  0  0  0  0  0
   19.9518    4.6030   28.2556 C   0  0  0  0  0  0  0  0  0  0  0  0
   20.6436    3.6538   27.2809 C   0  0  2  0  0  0  0  0  0  0  0  0
   17.7079    1.3651   23.7207 N   0  0  0  0  0  0  0  0  0  0  0  0
   18.3902    2.5169   23.6142 C   0  0  2  0  0  0  0  0  0  0  0  0
   18.3298    3.1803   22.4361 N   0  0  0  0  0  0  0  0  0  0  0  0
   19.1227    2.9933   24.6497 N   0  0  0  0  0  0  0  0  0  0  0  0
   19.1681    2.3033   25.8079 C   0  0  2  0  0  0  0  0  0  0  0  0
   18.4719    1.1207   25.9340 C   0  0  1  0  0  0  0  0  0  0  0  0
   17.7385    0.6516   24.8608 C   0  0  0  0  0  0  0  0  0  0  0  0
   17.1053   -0.4223   24.9527 O   0  0  0  0  0  0  0  0  0  0  0  0
   18.6781    0.6445   27.1778 N   0  0  0  0  0  0  0  0  0  0  0  0
   19.4914    1.5103   27.8081 C   0  0  0  0  0  0  0  0  0  0  0  0
   19.7722    2.5154   26.9716 N   0  0  1  0  0  0  0  0  0  0  0  0
   23.9626    2.0125   32.5450 O   0  0  0  0  0  0  0  0  0  0  0  0
   22.0424    0.4285   32.0465 O   0  5  0  0  0  0  0  0  0  0  0  0
   24.3171    0.0393   31.0167 O   0  0  0  0  0  0  0  0  0  0  0  0
  1  3  1  6  0  0  0
  1 21  1  0  0  0  0
  1 22  1  0  0  0  0
  1 23  2  0  0  0  0
  2  3  1  0  0  0  0
  4  2  1  1  0  0  0
  4  5  1  0  0  0  0
  4  6  1  0  0  0  0
  6  7  1  6  0  0  0
  6  8  1  0  0  0  0
  8  9  1  0  0  0  0
  9  5  1  1  0  0  0
  9 20  1  0  0  0  0
 10 11  1  0  0  0  0
 10 16  1  0  0  0  0
 11 12  1  6  0  0  0
 11 13  1  0  0  0  0
 14 13  1  1  0  0  0
 14 15  1  0  0  0  0
 14 20  1  0  0  0  0
 15 16  1  6  0  0  0
 15 18  1  0  0  0  0
 16 17  2  0  0  0  0
 18 19  1  0  0  0  0
 20 19  1  6  0  0  0
M  CHG  1  22  -1
M  END
>  <CHROM.1>
-66.00781162,64.53089351,161.39312781,-134.60006403,20.67093288,2.22265506
28.01462650,0.20456624,0.92742864,2.89254572

>  <Name>
ligand

>  <RI>
0

>  <Rbt.Current_Directory>
/home/itssahil/PROJECTS/Mol_Feturizer/Test_systems_manuscript/rnas/3slm

>  <Rbt.Executable>
rbdock ($Id: //depot/dev/client3/rdock/2013.1/src/exe/rbdock.cxx#4 $)

>  <Rbt.Library>
libRbt.so (2013.1, Build901 2013/11/27)

>  <Rbt.Parameter_File>
/export/apps/rDock/src/rDock_2013.1_src/data/scripts/dock_solv.prm

>  <Rbt.Receptor>
prm/pocket_docking_3.prm

>  <SCORE>
-21.8253

>  <SCORE.INTER>
-16.6889

>  <SCORE.INTER.CONST>
1

>  <SCORE.INTER.POLAR>
0

>  <SCORE.INTER.ROT>
4

>  <SCORE.INTER.SOLV>
24.8114

>  <SCORE.INTER.VDW>
-25.663

>  <SCORE.INTER.norm>
-0.725604

>  <SCORE.INTRA>
-5.1364

>  <SCORE.INTRA.DIHEDRAL>
-5.68128

>  <SCORE.INTRA.DIHEDRAL.0>
8.62657

>  <SCORE.INTRA.POLAR>
0

>  <SCORE.INTRA.POLAR.0>
0

>  <SCORE.INTRA.REPUL>
0

>  <SCORE.INTRA.REPUL.0>
0

>  <SCORE.INTRA.SOLV>
-0.732877

>  <SCORE.INTRA.SOLV.lig_0>
-66.3641

>  <SCORE.INTRA.VDW>
-1.92933

>  <SCORE.INTRA.VDW.0>
0.452231

>  <SCORE.INTRA.norm>
-0.223322

>  <SCORE.RESTR>
0

>  <SCORE.RESTR.CAVITY>
0

>  <SCORE.RESTR.norm>
0

>  <SCORE.SYSTEM>
0

>  <SCORE.SYSTEM.CONST>
0

>  <SCORE.SYSTEM.DIHEDRAL>
0

>  <SCORE.SYSTEM.SOLV>
0

>  <SCORE.SYSTEM.norm>
0

>  <SCORE.heavy>
23

>  <SCORE.norm>
-0.948926

>  <RMSD>
1.189

$$$$
ligand
 OpenBabel02271912143D
libRbt.so/2013.1/901 2013/11/27
 23 25  0  0  0  0  0  0  0  0999 V2000
   23.7764    1.2277   29.2835 P   0  0  1  0  0  0  0  0  0  0  0  0
   23.1058    3.5287   28.2294 C   0  0  0  0  0  0  0  0  0  0  0  0
   22.6791    2.2831   28.7633 O   0  0  0  0  0  0  0  0  0  0  0  0
   21.9077    4.4512   28.2250 C   0  0  1  0  0  0  0  0  0  0  0  0
   20.9320    4.0594   27.2599 O   0  0  0  0  0  0  0  0  0  0  0  0
   21.2484    4.4186   29.5935 C   0  0  1  0  0  0  0  0  0  0  0  0
   20.9992    5.7745   30.0027 O   0  0  0  0  0  0  0  0  0  0  0  0
   19.9587    3.6311   29.3990 C   0  0  0  0  0  0  0  0  0  0  0  0
   19.6986    3.7010   27.8966 C   0  0  2  0  0  0  0  0  0  0  0  0
   18.0716    1.0040   23.8209 N   0  0  0  0  0  0  0  0  0  0  0  0
   18.2703    2.3293   23.9099 C   0  0  2  0  0  0  0  0  0  0  0  0
   18.0331    3.0790   22.8084 N   0  0  0  0  0  0  0  0  0  0  0  0
   18.7033    2.8949   25.0625 N   0  0  0  0  0  0  0  0  0  0  0  0
   18.9379    2.1179   26.1399 C   0  0  2  0  0  0  0  0  0  0  0  0
   18.7370    0.7566   26.0655 C   0  0  1  0  0  0  0  0  0  0  0  0
   18.3025    0.2024   24.8764 C   0  0  0  0  0  0  0  0  0  0  0  0
   18.1205   -1.0309   24.7863 O   0  0  0  0  0  0  0  0  0  0  0  0
   19.0336    0.2237   27.2673 N   0  0  0  0  0  0  0  0  0  0  0  0
   19.4177    1.2329   28.0688 C   0  0  0  0  0  0  0  0  0  0  0  0
   19.3452    2.3756   27.3776 N   0  0  1  0  0  0  0  0  0  0  0  0
   24.5210    1.8885   30.4179 O   0  0  0  0  0  0  0  0  0  0  0  0
   22.9589    0.0238   29.6915 O   0  5  0  0  0  0  0  0  0  0  0  0
   24.6234    1.0014   28.0605 O   0  0  0  0  0  0  0  0  0  0  0  0
  1  3  1  6  0  0  0
  1 21  1  0  0  0  0
  1 22  1  0  0  0  0
  1 23  2  0  0  0  0
  2  3  1  0  0  0  0
  4  2  1  1  0  0  0
  4  5  1  0  0  0  0
  4  6  1  0  0  0  0
  6  7  1  6  0  0  0
  6  8  1  0  0  0  0
  8  9  1  0  0  0  0
  9  5  1  6  0  0  0
  9 20  1  0  0  0  0
 10 11  1  0  0  0  0
 10 16  1  0  0  0  0
 11 12  1  6  0  0  0
 11 13  1  0  0  0  0
 14 13  1  1  0  0  0
 14 15  1  0  0  0  0
 14 20  1  0  0  0  0
 15 16  1  6  0  0  0
 15 18  1  0  0  0  0
 16 17  2  0  0  0  0
 18 19  1  0  0  0  0
 20 19  1  6  0  0  0
M  CHG  1  22  -1
M  END
>  <CHROM.1>
61.81650564,-69.90142509,-163.03427256,-70.51832592,20.77297174,2.17535924
27.44106144,-0.38834863,0.68998292,-2.77978013

>  <Name>
ligand

>  <RI>
416

>  <Rbt.Current_Directory>
/home/itssahil/PROJECTS/Mol_Feturizer/Test_systems_manuscript/rnas/3slm

>  <Rbt.Executable>
rbdock ($Id: //depot/dev/client3/rdock/2013.1/src/exe/rbdock.cxx#4 $)

>  <Rbt.Library>
libRbt.so (2013.1, Build901 2013/11/27)

>  <Rbt.Parameter_File>
/export/apps/rDock/src/rDock_2013.1_src/data/scripts/dock_solv.prm

>  <Rbt.Receptor>
prm/pocket_docking_2.prm

>  <SCORE>
-19.903

>  <SCORE.INTER>
-16.1131

>  <SCORE.INTER.CONST>
1

>  <SCORE.INTER.POLAR>
0

>  <SCORE.INTER.ROT>
4

>  <SCORE.INTER.SOLV>
24.3806

>  <SCORE.INTER.VDW>
-25.1356

>  <SCORE.INTER.norm>
-0.700568

>  <SCORE.INTRA>
-3.99028

>  <SCORE.INTRA.DIHEDRAL>
-5.77474

>  <SCORE.INTRA.DIHEDRAL.0>
8.62657

>  <SCORE.INTRA.POLAR>
0

>  <SCORE.INTRA.POLAR.0>
0

>  <SCORE.INTRA.REPUL>
0

>  <SCORE.INTRA.REPUL.0>
0

>  <SCORE.INTRA.SOLV>
-0.268518

>  <SCORE.INTRA.SOLV.lig_0>
-66.3641

>  <SCORE.INTRA.VDW>
-0.968648

>  <SCORE.INTRA.VDW.0>
0.452231

>  <SCORE.INTRA.norm>
-0.17349

>  <SCORE.RESTR>
0.200301

>  <SCORE.RESTR.CAVITY>
0.200301

>  <SCORE.RESTR.norm>
0.00870876

>  <SCORE.SYSTEM>
0

>  <SCORE.SYSTEM.CONST>
0

>  <SCORE.SYSTEM.DIHEDRAL>
0

>  <SCORE.SYSTEM.SOLV>
0

>  <SCORE.SYSTEM.norm>
0

>  <SCORE.heavy>
23

>  <SCORE.norm>
-0.865349

>  <RMSD>
1.192

$$$$
ligand
 OpenBabel02271912143D
libRbt.so/2013.1/901 2013/11/27
 23 25  0  0  0  0  0  0  0  0999 V2000
   23.1562    0.4303   31.0598 P   0  0  1  0  0  0  0  0  0  0  0  0
   21.6132    2.4746   30.5165 C   0  0  0  0  0  0  0  0  0  0  0  0
   22.8086    1.9999   31.1202 O   0  0  0  0  0  0  0  0  0  0  0  0
   22.0088    3.2357   29.2712 C   0  0  1  0  0  0  0  0  0  0  0  0
   21.8366    2.4562   28.0881 O   0  0  0  0  0  0  0  0  0  0  0  0
   21.1361    4.4730   29.1448 C   0  0  1  0  0  0  0  0  0  0  0  0
   21.9890    5.5950   28.8587 O   0  0  0  0  0  0  0  0  0  0  0  0
   20.1779    4.1730   27.9989 C   0  0  0  0  0  0  0  0  0  0  0  0
   20.8606    3.0503   27.2222 C   0  0  2  0  0  0  0  0  0  0  0  0
   17.6537    1.0993   23.6950 N   0  0  0  0  0  0  0  0  0  0  0  0
   18.4152    2.2016   23.6008 C   0  0  2  0  0  0  0  0  0  0  0  0
   18.3665    2.9063   22.4464 N   0  0  0  0  0  0  0  0  0  0  0  0
   19.2130    2.5892   24.6251 N   0  0  0  0  0  0  0  0  0  0  0  0
   19.2440    1.8598   25.7594 C   0  0  2  0  0  0  0  0  0  0  0  0
   18.4672    0.7271   25.8726 C   0  0  1  0  0  0  0  0  0  0  0  0
   17.6677    0.3482   24.8110 C   0  0  0  0  0  0  0  0  0  0  0  0
   16.9605   -0.6794   24.8912 O   0  0  0  0  0  0  0  0  0  0  0  0
   18.6770    0.1964   27.0935 N   0  0  0  0  0  0  0  0  0  0  0  0
   19.5712    0.9796   27.7221 C   0  0  0  0  0  0  0  0  0  0  0  0
   19.8986    1.9889   26.9079 N   0  0  1  0  0  0  0  0  0  0  0  0
   22.0570   -0.2938   31.7983 O   0  0  0  0  0  0  0  0  0  0  0  0
   23.2179    0.1276   29.5803 O   0  5  0  0  0  0  0  0  0  0  0  0
   24.4911    0.3603   31.7509 O   0  0  0  0  0  0  0  0  0  0  0  0
  1  3  1  1  0  0  0
  1 21  1  0  0  0  0
  1 22  1  0  0  0  0
  1 23  2  0  0  0  0
  2  3  1  0  0  0  0
  4  2  1  1  0  0  0
  4  5  1  0  0  0  0
  4  6  1  0  0  0  0
  6  7  1  6  0  0  0
  6  8  1  0  0  0  0
  8  9  1  0  0  0  0
  9  5  1  1  0  0  0
  9 20  1  0  0  0  0
 10 11  1  0  0  0  0
 10 16  1  0  0  0  0
 11 12  1  6  0  0  0
 11 13  1  0  0  0  0
 14 13  1  1  0  0  0
 14 15  1  0  0  0  0
 14 20  1  0  0  0  0
 15 16  1  6  0  0  0
 15 18  1  0  0  0  0
 16 17  2  0  0  0  0
 18 19  1  0  0  0  0
 20 19  1  6  0  0  0
M  CHG  1  22  -1
M  END
>  <CHROM.1>
-62.20199247,100.36708604,-108.01886441,-147.04818136,20.65376003,1.75245932
27.86033129,0.26118147,0.90677498,2.83818770

>  <Name>
ligand

>  <RI>
416

>  <Rbt.Current_Directory>
/home/itssahil/PROJECTS/Mol_Feturizer/Test_systems_manuscript/rnas/3slm

>  <Rbt.Executable>
rbdock ($Id: //depot/dev/client3/rdock/2013.1/src/exe/rbdock.cxx#4 $)

>  <Rbt.Library>
libRbt.so (2013.1, Build901 2013/11/27)

>  <Rbt.Parameter_File>
/export/apps/rDock/src/rDock_2013.1_src/data/scripts/dock_solv.prm

>  <Rbt.Receptor>
prm/pocket_docking_2.prm

>  <SCORE>
-15.0535

>  <SCORE.INTER>
-14.9222

>  <SCORE.INTER.CONST>
1

>  <SCORE.INTER.POLAR>
0

>  <SCORE.INTER.ROT>
4

>  <SCORE.INTER.SOLV>
24.6313

>  <SCORE.INTER.VDW>
-24.4252

>  <SCORE.INTER.norm>
-0.648791

>  <SCORE.INTRA>
-0.281097

>  <SCORE.INTRA.DIHEDRAL>
3.15774

>  <SCORE.INTRA.DIHEDRAL.0>
8.62657

>  <SCORE.INTRA.POLAR>
0

>  <SCORE.INTRA.POLAR.0>
0

>  <SCORE.INTRA.REPUL>
0

>  <SCORE.INTRA.REPUL.0>
0

>  <SCORE.INTRA.SOLV>
0.984527

>  <SCORE.INTRA.SOLV.lig_0>
-66.3641

>  <SCORE.INTRA.VDW>
-2.35223

>  <SCORE.INTRA.VDW.0>
0.452231

>  <SCORE.INTRA.norm>
-0.0122216

>  <SCORE.RESTR>
0.149779

>  <SCORE.RESTR.CAVITY>
0.149779

>  <SCORE.RESTR.norm>
0.00651212

>  <SCORE.SYSTEM>
0

>  <SCORE.SYSTEM.CONST>
0

>  <SCORE.SYSTEM.DIHEDRAL>
0

>  <SCORE.SYSTEM.SOLV>
0

>  <SCORE.SYSTEM.norm>
0

>  <SCORE.heavy>
23

>  <SCORE.norm>
-0.6545

>  <RMSD>
1.205

$$$$
ligand
 OpenBabel02271912143D
libRbt.so/2013.1/901 2013/11/27
 23 25  0  0  0  0  0  0  0  0999 V2000
   23.0785    0.5702   31.4913 P   0  0  1  0  0  0  0  0  0  0  0  0
   21.6709    2.3512   30.1867 C   0  0  0  0  0  0  0  0  0  0  0  0
   22.7107    1.3835   30.1528 O   0  0  0  0  0  0  0  0  0  0  0  0
   21.8633    3.2611   28.9944 C   0  0  1  0  0  0  0  0  0  0  0  0
   21.6608    2.5767   27.7585 O   0  0  0  0  0  0  0  0  0  0  0  0
   20.8579    4.3979   29.0675 C   0  0  1  0  0  0  0  0  0  0  0  0
   21.5573    5.6304   28.8229 O   0  0  0  0  0  0  0  0  0  0  0  0
   19.8308    4.0956   27.9836 C   0  0  0  0  0  0  0  0  0  0  0  0
   20.5494    3.1319   27.0430 C   0  0  2  0  0  0  0  0  0  0  0  0
   17.4571    1.0248   23.5033 N   0  0  0  0  0  0  0  0  0  0  0  0
   18.1172    2.1924   23.4351 C   0  0  2  0  0  0  0  0  0  0  0  0
   17.9845    2.9282   22.3070 N   0  0  0  0  0  0  0  0  0  0  0  0
   18.8979    2.6144   24.4590 N   0  0  0  0  0  0  0  0  0  0  0  0
   19.0149    1.8531   25.5664 C   0  0  2  0  0  0  0  0  0  0  0  0
   18.3424    0.6532   25.6528 C   0  0  1  0  0  0  0  0  0  0  0  0
   17.5586    0.2409   24.5920 C   0  0  0  0  0  0  0  0  0  0  0  0
   16.9457   -0.8470   24.6479 O   0  0  0  0  0  0  0  0  0  0  0  0
   18.6217    0.1026   26.8508 N   0  0  0  0  0  0  0  0  0  0  0  0
   19.4561    0.9402   27.4915 C   0  0  0  0  0  0  0  0  0  0  0  0
   19.6779    2.0010   26.7078 N   0  0  1  0  0  0  0  0  0  0  0  0
   21.7803    0.0615   32.0693 O   0  0  0  0  0  0  0  0  0  0  0  0
   24.0155   -0.5146   31.0125 O   0  5  0  0  0  0  0  0  0  0  0  0
   23.7450    1.6175   32.3420 O   0  0  0  0  0  0  0  0  0  0  0  0
  1  3  1  6  0  0  0
  1 21  1  0  0  0  0
  1 22  1  0  0  0  0
  1 23  2  0  0  0  0
  2  3  1  0  0  0  0
  4  2  1  1  0  0  0
  4  5  1  0  0  0  0
  4  6  1  0  0  0  0
  6  7  1  6  0  0  0
  6  8  1  0  0  0  0
  8  9  1  0  0  0  0
  9  5  1  1  0  0  0
  9 20  1  0  0  0  0
 10 11  1  0  0  0  0
 10 16  1  0  0  0  0
 11 12  1  6  0  0  0
 11 13  1  0  0  0  0
 14 13  1  1  0  0  0
 14 15  1  0  0  0  0
 14 20  1  0  0  0  0
 15 16  1  6  0  0  0
 15 18  1  0  0  0  0
 16 17  2  0  0  0  0
 18 19  1  0  0  0  0
 20 19  1  6  0  0  0
M  CHG  1  22  -1
M  END
>  <CHROM.1>
48.40953792,66.30012063,160.72538860,-141.44648486,20.48306968,1.76139443
27.82375392,0.24639594,0.93304738,2.85970013

>  <Name>
ligand

>  <RI>
416

>  <Rbt.Current_Directory>
/home/itssahil/PROJECTS/Mol_Feturizer/Test_systems_manuscript/rnas/3slm

>  <Rbt.Executable>
rbdock ($Id: //depot/dev/client3/rdock/2013.1/src/exe/rbdock.cxx#4 $)

>  <Rbt.Library>
libRbt.so (2013.1, Build901 2013/11/27)

>  <Rbt.Parameter_File>
/export/apps/rDock/src/rDock_2013.1_src/data/scripts/dock_solv.prm

>  <Rbt.Receptor>
prm/pocket_docking_2.prm

>  <SCORE>
-20.6308

>  <SCORE.INTER>
-15.7226

>  <SCORE.INTER.CONST>
1

>  <SCORE.INTER.POLAR>
0

>  <SCORE.INTER.ROT>
4

>  <SCORE.INTER.SOLV>
24.9299

>  <SCORE.INTER.VDW>
-25.0584

>  <SCORE.INTER.norm>
-0.683592

>  <SCORE.INTRA>
-4.90854

>  <SCORE.INTRA.DIHEDRAL>
-5.34927

>  <SCORE.INTRA.DIHEDRAL.0>
8.62657

>  <SCORE.INTRA.POLAR>
0

>  <SCORE.INTRA.POLAR.0>
0

>  <SCORE.INTRA.REPUL>
0

>  <SCORE.INTRA.REPUL.0>
0

>  <SCORE.INTRA.SOLV>
-0.708744

>  <SCORE.INTRA.SOLV.lig_0>
-66.3641

>  <SCORE.INTRA.VDW>
-1.87953

>  <SCORE.INTRA.VDW.0>
0.452231

>  <SCORE.INTRA.norm>
-0.213415

>  <SCORE.RESTR>
0.000373283

>  <SCORE.RESTR.CAVITY>
0.000373283

>  <SCORE.RESTR.norm>
1.62297e-05

>  <SCORE.SYSTEM>
0

>  <SCORE.SYSTEM.CONST>
0

>  <SCORE.SYSTEM.DIHEDRAL>
0

>  <SCORE.SYSTEM.SOLV>
0

>  <SCORE.SYSTEM.norm>
0

>  <SCORE.heavy>
23

>  <SCORE.norm>
-0.896991

>  <RMSD>
1.207

$$$$
ligand
 OpenBabel02271912143D
libRbt.so/2013.1/901 2013/11/27
 23 25  0  0  0  0  0  0  0  0999 V2000
   23.3851    1.4091   31.5500 P   0  0  1  0  0  0  0  0  0  0  0  0
   22.6192    2.0401   29.1271 C   0  0  0  0  0  0  0  0  0  0  0  0
   23.1317    2.4806   30.3770 O   0  0  0  0  0  0  0  0  0  0  0  0
   22.3379    3.2718   28.2963 C   0  0  1  0  0  0  0  0  0  0  0  0
   21.7828    2.9451   27.0227 O   0  0  0  0  0  0  0  0  0  0  0  0
   21.3375    4.1497   29.0290 C   0  0  1  0  0  0  0  0  0  0  0  0
   21.8268    5.5018   29.0052 O   0  0  0  0  0  0  0  0  0  0  0  0
   20.0313    3.9980   28.2597 C   0  0  0  0  0  0  0  0  0  0  0  0
   20.4603    3.4819   26.8888 C   0  0  2  0  0  0  0  0  0  0  0  0
   17.6366    1.4340   23.0986 N   0  0  0  0  0  0  0  0  0  0  0  0
   18.3094    2.5963   23.0934 C   0  0  2  0  0  0  0  0  0  0  0  0
   18.2710    3.3433   21.9656 N   0  0  0  0  0  0  0  0  0  0  0  0
   19.0113    3.0021   24.1790 N   0  0  0  0  0  0  0  0  0  0  0  0
   19.0353    2.2299   25.2848 C   0  0  2  0  0  0  0  0  0  0  0  0
   18.3486    1.0353   25.3069 C   0  0  1  0  0  0  0  0  0  0  0  0
   17.6465    0.6395   24.1843 C   0  0  0  0  0  0  0  0  0  0  0  0
   17.0224   -0.4435   24.1818 O   0  0  0  0  0  0  0  0  0  0  0  0
   18.5291    0.4715   26.5176 N   0  0  0  0  0  0  0  0  0  0  0  0
   19.3177    1.2959   27.2295 C   0  0  0  0  0  0  0  0  0  0  0  0
   19.6085    2.3617   26.4757 N   0  0  1  0  0  0  0  0  0  0  0  0
   22.0325    0.8900   31.9731 O   0  0  0  0  0  0  0  0  0  0  0  0
   24.2786    0.3721   30.9093 O   0  5  0  0  0  0  0  0  0  0  0  0
   24.0700    2.2321   32.6074 O   0  0  0  0  0  0  0  0  0  0  0  0
  1  3  1  6  0  0  0
  1 21  1  0  0  0  0
  1 22  1  0  0  0  0
  1 23  2  0  0  0  0
  2  3  1  0  0  0  0
  4  2  1  1  0  0  0
  4  5  1  0  0  0  0
  4  6  1  0  0  0  0
  6  7  1  6  0  0  0
  6  8  1  0  0  0  0
  8  9  1  0  0  0  0
  9  5  1  1  0  0  0
  9 20  1  0  0  0  0
 10 11  1  0  0  0  0
 10 16  1  0  0  0  0
 11 12  1  6  0  0  0
 11 13  1  0  0  0  0
 14 13  1  1  0  0  0
 14 15  1  0  0  0  0
 14 20  1  0  0  0  0
 15 16  1  6  0  0  0
 15 18  1  0  0  0  0
 16 17  2  0  0  0  0
 18 19  1  0  0  0  0
 20 19  1  6  0  0  0
M  CHG  1  22  -1
M  END
>  <CHROM.1>
-66.87125591,-178.48786682,173.53624475,-111.31663625,20.69593390,2.16430154
27.60501307,0.32950795,0.91147608,2.70053485

>  <Name>
ligand

>  <RI>
0

>  <Rbt.Current_Directory>
/home/itssahil/PROJECTS/Mol_Feturizer/Test_systems_manuscript/rnas/3slm

>  <Rbt.Executable>
rbdock ($Id: //depot/dev/client3/rdock/2013.1/src/exe/rbdock.cxx#4 $)

>  <Rbt.Library>
libRbt.so (2013.1, Build901 2013/11/27)

>  <Rbt.Parameter_File>
/export/apps/rDock/src/rDock_2013.1_src/data/scripts/dock_solv.prm

>  <Rbt.Receptor>
prm/pocket_docking_3.prm

>  <SCORE>
-21.6064

>  <SCORE.INTER>
-16.3194

>  <SCORE.INTER.CONST>
1

>  <SCORE.INTER.POLAR>
0

>  <SCORE.INTER.ROT>
4

>  <SCORE.INTER.SOLV>
27.7173

>  <SCORE.INTER.VDW>
-26.3854

>  <SCORE.INTER.norm>
-0.709539

>  <SCORE.INTRA>
-5.28702

>  <SCORE.INTRA.DIHEDRAL>
-7.16996

>  <SCORE.INTRA.DIHEDRAL.0>
8.62657

>  <SCORE.INTRA.POLAR>
0

>  <SCORE.INTRA.POLAR.0>
0

>  <SCORE.INTRA.REPUL>
0

>  <SCORE.INTRA.REPUL.0>
0

>  <SCORE.INTRA.SOLV>
-0.460272

>  <SCORE.INTRA.SOLV.lig_0>
-66.3641

>  <SCORE.INTRA.VDW>
-1.4719

>  <SCORE.INTRA.VDW.0>
0.452231

>  <SCORE.INTRA.norm>
-0.22987

>  <SCORE.RESTR>
0

>  <SCORE.RESTR.CAVITY>
0

>  <SCORE.RESTR.norm>
0

>  <SCORE.SYSTEM>
0

>  <SCORE.SYSTEM.CONST>
0

>  <SCORE.SYSTEM.DIHEDRAL>
0

>  <SCORE.SYSTEM.SOLV>
0

>  <SCORE.SYSTEM.norm>
0

>  <SCORE.heavy>
23

>  <SCORE.norm>
-0.939409

>  <RMSD>
1.220

$$$$
ligand
 OpenBabel02271912143D
libRbt.so/2013.1/901 2013/11/27
 23 25  0  0  0  0  0  0  0  0999 V2000
   22.5469    1.0961   30.9482 P   0  0  1  0  0  0  0  0  0  0  0  0
   23.2692    2.8750   29.1681 C   0  0  0  0  0  0  0  0  0  0  0  0
   22.2088    2.2411   29.8699 O   0  0  0  0  0  0  0  0  0  0  0  0
   22.6710    4.0274   28.3930 C   0  0  1  0  0  0  0  0  0  0  0  0
   22.0122    3.5906   27.2047 O   0  0  0  0  0  0  0  0  0  0  0  0
   21.6441    4.7332   29.2623 C   0  0  1  0  0  0  0  0  0  0  0  0
   21.8869    6.1484   29.1823 O   0  0  0  0  0  0  0  0  0  0  0  0
   20.2909    4.3488   28.6774 C   0  0  0  0  0  0  0  0  0  0  0  0
   20.6115    3.8918   27.2568 C   0  0  2  0  0  0  0  0  0  0  0  0
   17.9191    1.2329   23.7621 N   0  0  0  0  0  0  0  0  0  0  0  0
   18.4082    2.4792   23.6561 C   0  0  2  0  0  0  0  0  0  0  0  0
   18.1946    3.1453   22.4975 N   0  0  0  0  0  0  0  0  0  0  0  0
   19.1010    3.0466   24.6729 N   0  0  0  0  0  0  0  0  0  0  0  0
   19.3030    2.3523   25.8117 C   0  0  2  0  0  0  0  0  0  0  0  0
   18.8059    1.0731   25.9370 C   0  0  1  0  0  0  0  0  0  0  0  0
   18.1093    0.5134   24.8828 C   0  0  0  0  0  0  0  0  0  0  0  0
   17.6559   -0.6479   24.9740 O   0  0  0  0  0  0  0  0  0  0  0  0
   19.1369    0.6137   27.1600 N   0  0  0  0  0  0  0  0  0  0  0  0
   19.8314    1.5853   27.7780 C   0  0  0  0  0  0  0  0  0  0  0  0
   19.9159    2.6363   26.9553 N   0  0  1  0  0  0  0  0  0  0  0  0
   22.9747   -0.1268   30.1738 O   0  0  0  0  0  0  0  0  0  0  0  0
   23.6357    1.7076   31.7995 O   0  5  0  0  0  0  0  0  0  0  0  0
   21.2370    0.9228   31.6684 O   0  0  0  0  0  0  0  0  0  0  0  0
  1  3  1  6  0  0  0
  1 21  1  0  0  0  0
  1 22  1  0  0  0  0
  1 23  2  0  0  0  0
  2  3  1  0  0  0  0
  4  2  1  1  0  0  0
  4  5  1  0  0  0  0
  4  6  1  0  0  0  0
  6  7  1  6  0  0  0
  6  8  1  0  0  0  0
  8  9  1  0  0  0  0
  9  5  1  1  0  0  0
  9 20  1  0  0  0  0
 10 11  1  0  0  0  0
 10 16  1  0  0  0  0
 11 12  1  6  0  0  0
 11 13  1  0  0  0  0
 14 13  1  1  0  0  0
 14 15  1  0  0  0  0
 14 20  1  0  0  0  0
 15 16  1  6  0  0  0
 15 18  1  0  0  0  0
 16 17  2  0  0  0  0
 18 19  1  0  0  0  0
 20 19  1  6  0  0  0
M  CHG  1  22  -1
M  END
>  <CHROM.1>
-72.72603508,-78.13422887,-171.75455052,-105.90577308,20.68165648,2.25479838
27.75973595,0.28698134,0.93871216,2.71923757

>  <Name>
ligand

>  <RI>
0

>  <Rbt.Current_Directory>
/home/itssahil/PROJECTS/Mol_Feturizer/Test_systems_manuscript/rnas/3slm

>  <Rbt.Executable>
rbdock ($Id: //depot/dev/client3/rdock/2013.1/src/exe/rbdock.cxx#4 $)

>  <Rbt.Library>
libRbt.so (2013.1, Build901 2013/11/27)

>  <Rbt.Parameter_File>
/export/apps/rDock/src/rDock_2013.1_src/data/scripts/dock_solv.prm

>  <Rbt.Receptor>
prm/pocket_docking_3.prm

>  <SCORE>
-19.6187

>  <SCORE.INTER>
-15.4462

>  <SCORE.INTER.CONST>
1

>  <SCORE.INTER.POLAR>
0

>  <SCORE.INTER.ROT>
4

>  <SCORE.INTER.SOLV>
24.6469

>  <SCORE.INTER.VDW>
-24.7798

>  <SCORE.INTER.norm>
-0.671573

>  <SCORE.INTRA>
-4.17248

>  <SCORE.INTRA.DIHEDRAL>
-5.79565

>  <SCORE.INTRA.DIHEDRAL.0>
8.62657

>  <SCORE.INTRA.POLAR>
0

>  <SCORE.INTRA.POLAR.0>
0

>  <SCORE.INTRA.REPUL>
0

>  <SCORE.INTRA.REPUL.0>
0

>  <SCORE.INTRA.SOLV>
0.0217255

>  <SCORE.INTRA.SOLV.lig_0>
-66.3641

>  <SCORE.INTRA.VDW>
-1.28552

>  <SCORE.INTRA.VDW.0>
0.452231

>  <SCORE.INTRA.norm>
-0.181412

>  <SCORE.RESTR>
0

>  <SCORE.RESTR.CAVITY>
0

>  <SCORE.RESTR.norm>
0

>  <SCORE.SYSTEM>
0

>  <SCORE.SYSTEM.CONST>
0

>  <SCORE.SYSTEM.DIHEDRAL>
0

>  <SCORE.SYSTEM.SOLV>
0

>  <SCORE.SYSTEM.norm>
0

>  <SCORE.heavy>
23

>  <SCORE.norm>
-0.852985

>  <RMSD>
1.235

$$$$
ligand
 OpenBabel02271912143D
libRbt.so/2013.1/901 2013/11/27
 23 25  0  0  0  0  0  0  0  0999 V2000
   23.4641    0.6840   31.1416 P   0  0  1  0  0  0  0  0  0  0  0  0
   22.0356    2.6712   30.2112 C   0  0  0  0  0  0  0  0  0  0  0  0
   23.0710    1.7259   29.9805 O   0  0  0  0  0  0  0  0  0  0  0  0
   22.0773    3.6707   29.0773 C   0  0  1  0  0  0  0  0  0  0  0  0
   21.7752    3.0684   27.8192 O   0  0  0  0  0  0  0  0  0  0  0  0
   21.0468    4.7576   29.3327 C   0  0  1  0  0  0  0  0  0  0  0  0
   21.6767    6.0318   29.1143 O   0  0  0  0  0  0  0  0  0  0  0  0
   19.9271    4.4918   28.3343 C   0  0  0  0  0  0  0  0  0  0  0  0
   20.5799    3.6274   27.2588 C   0  0  2  0  0  0  0  0  0  0  0  0
   17.6784    1.3787   23.6454 N   0  0  0  0  0  0  0  0  0  0  0  0
   18.3538    2.5365   23.5616 C   0  0  2  0  0  0  0  0  0  0  0  0
   18.2954    3.2188   22.3942 N   0  0  0  0  0  0  0  0  0  0  0  0
   19.0775    3.0006   24.6088 N   0  0  0  0  0  0  0  0  0  0  0  0
   19.1211    2.2919   25.7558 C   0  0  2  0  0  0  0  0  0  0  0  0
   18.4320    1.1029   25.8587 C   0  0  1  0  0  0  0  0  0  0  0  0
   17.7074    0.6468   24.7739 C   0  0  0  0  0  0  0  0  0  0  0  0
   17.0807   -0.4324   24.8446 O   0  0  0  0  0  0  0  0  0  0  0  0
   18.6345    0.6077   27.0956 N   0  0  0  0  0  0  0  0  0  0  0  0
   19.4388    1.4682   27.7445 C   0  0  0  0  0  0  0  0  0  0  0  0
   19.7176    2.4887   26.9262 N   0  0  1  0  0  0  0  0  0  0  0  0
   22.1797    0.0524   31.6209 O   0  0  0  0  0  0  0  0  0  0  0  0
   24.4155   -0.2749   30.4637 O   0  5  0  0  0  0  0  0  0  0  0  0
   24.1196    1.5660   32.1696 O   0  0  0  0  0  0  0  0  0  0  0  0
  1  3  1  6  0  0  0
  1 21  1  0  0  0  0
  1 22  1  0  0  0  0
  1 23  2  0  0  0  0
  2  3  1  0  0  0  0
  4  2  1  1  0  0  0
  4  5  1  0  0  0  0
  4  6  1  0  0  0  0
  6  7  1  6  0  0  0
  6  8  1  0  0  0  0
  8  9  1  0  0  0  0
  9  5  1  1  0  0  0
  9 20  1  0  0  0  0
 10 11  1  0  0  0  0
 10 16  1  0  0  0  0
 11 12  1  6  0  0  0
 11 13  1  0  0  0  0
 14 13  1  1  0  0  0
 14 15  1  0  0  0  0
 14 20  1  0  0  0  0
 15 16  1  6  0  0  0
 15 18  1  0  0  0  0
 16 17  2  0  0  0  0
 18 19  1  0  0  0  0
 20 19  1  6  0  0  0
M  CHG  1  22  -1
M  END
>  <CHROM.1>
49.84331574,64.43124505,169.04428189,-129.75794678,20.69465022,2.09554737
27.86012648,0.14947349,0.89869514,3.00103007

>  <Name>
ligand

>  <RI>
0

>  <Rbt.Current_Directory>
/home/itssahil/PROJECTS/Mol_Feturizer/Test_systems_manuscript/rnas/3slm

>  <Rbt.Executable>
rbdock ($Id: //depot/dev/client3/rdock/2013.1/src/exe/rbdock.cxx#4 $)

>  <Rbt.Library>
libRbt.so (2013.1, Build901 2013/11/27)

>  <Rbt.Parameter_File>
/export/apps/rDock/src/rDock_2013.1_src/data/scripts/dock_solv.prm

>  <Rbt.Receptor>
prm/pocket_docking_3.prm

>  <SCORE>
-21.4888

>  <SCORE.INTER>
-15.9141

>  <SCORE.INTER.CONST>
1

>  <SCORE.INTER.POLAR>
0

>  <SCORE.INTER.ROT>
4

>  <SCORE.INTER.SOLV>
25.0225

>  <SCORE.INTER.VDW>
-25.2169

>  <SCORE.INTER.norm>
-0.691919

>  <SCORE.INTRA>
-5.57464

>  <SCORE.INTRA.DIHEDRAL>
-6.59709

>  <SCORE.INTRA.DIHEDRAL.0>
8.62657

>  <SCORE.INTRA.POLAR>
0

>  <SCORE.INTRA.POLAR.0>
0

>  <SCORE.INTRA.REPUL>
0

>  <SCORE.INTRA.REPUL.0>
0

>  <SCORE.INTRA.SOLV>
-0.726417

>  <SCORE.INTRA.SOLV.lig_0>
-66.3641

>  <SCORE.INTRA.VDW>
-1.91289

>  <SCORE.INTRA.VDW.0>
0.452231

>  <SCORE.INTRA.norm>
-0.242376

>  <SCORE.RESTR>
0

>  <SCORE.RESTR.CAVITY>
0

>  <SCORE.RESTR.norm>
0

>  <SCORE.SYSTEM>
0

>  <SCORE.SYSTEM.CONST>
0

>  <SCORE.SYSTEM.DIHEDRAL>
0

>  <SCORE.SYSTEM.SOLV>
0

>  <SCORE.SYSTEM.norm>
0

>  <SCORE.heavy>
23

>  <SCORE.norm>
-0.934294

>  <RMSD>
1.241

$$$$
ligand
 OpenBabel02271912143D
libRbt.so/2013.1/901 2013/11/27
 23 25  0  0  0  0  0  0  0  0999 V2000
   23.5046    0.7129   31.1468 P   0  0  1  0  0  0  0  0  0  0  0  0
   22.0752    2.6980   30.2132 C   0  0  0  0  0  0  0  0  0  0  0  0
   23.1037    1.7458   29.9802 O   0  0  0  0  0  0  0  0  0  0  0  0
   22.1144    3.6914   29.0738 C   0  0  1  0  0  0  0  0  0  0  0  0
   21.8141    3.0813   27.8190 O   0  0  0  0  0  0  0  0  0  0  0  0
   21.0811    4.7770   29.3231 C   0  0  1  0  0  0  0  0  0  0  0  0
   21.7077    6.0516   29.0978 O   0  0  0  0  0  0  0  0  0  0  0  0
   19.9623    4.5027   28.3260 C   0  0  0  0  0  0  0  0  0  0  0  0
   20.6174    3.6342   27.2554 C   0  0  2  0  0  0  0  0  0  0  0  0
   17.6903    1.3785   23.6672 N   0  0  0  0  0  0  0  0  0  0  0  0
   18.3581    2.5404   23.5793 C   0  0  2  0  0  0  0  0  0  0  0  0
   18.2834    3.2254   22.4145 N   0  0  0  0  0  0  0  0  0  0  0  0
   19.0904    3.0058   24.6200 N   0  0  0  0  0  0  0  0  0  0  0  0
   19.1503    2.2944   25.7645 C   0  0  2  0  0  0  0  0  0  0  0  0
   18.4691    1.1012   25.8715 C   0  0  1  0  0  0  0  0  0  0  0  0
   17.7355    0.6438   24.7933 C   0  0  0  0  0  0  0  0  0  0  0  0
   17.1158   -0.4392   24.8678 O   0  0  0  0  0  0  0  0  0  0  0  0
   18.6877    0.6039   27.1049 N   0  0  0  0  0  0  0  0  0  0  0  0
   19.4939    1.4673   27.7474 C   0  0  0  0  0  0  0  0  0  0  0  0
   19.7581    2.4915   26.9289 N   0  0  1  0  0  0  0  0  0  0  0  0
   22.2317    0.0358   31.5932 O   0  0  0  0  0  0  0  0  0  0  0  0
   24.5041   -0.2100   30.4884 O   0  5  0  0  0  0  0  0  0  0  0  0
   24.1050    1.6125   32.1931 O   0  0  0  0  0  0  0  0  0  0  0  0
  1  3  1  6  0  0  0
  1 21  1  0  0  0  0
  1 22  1  0  0  0  0
  1 23  2  0  0  0  0
  2  3  1  0  0  0  0
  4  2  1  1  0  0  0
  4  5  1  0  0  0  0
  4  6  1  0  0  0  0
  6  7  1  6  0  0  0
  6  8  1  0  0  0  0
  8  9  1  0  0  0  0
  9  5  1  1  0  0  0
  9 20  1  0  0  0  0
 10 11  1  0  0  0  0
 10 16  1  0  0  0  0
 11 12  1  6  0  0  0
 11 13  1  0  0  0  0
 14 13  1  1  0  0  0
 14 15  1  0  0  0  0
 14 20  1  0  0  0  0
 15 16  1  6  0  0  0
 15 18  1  0  0  0  0
 16 17  2  0  0  0  0
 18 19  1  0  0  0  0
 20 19  1  6  0  0  0
M  CHG  1  22  -1
M  END
>  <CHROM.1>
52.91981255,63.81047029,168.71151919,-130.55577090,20.72780860,2.10860171
27.86581567,0.14798851,0.89578202,2.99871862

>  <Name>
ligand

>  <RI>
0

>  <Rbt.Current_Directory>
/home/itssahil/PROJECTS/Mol_Feturizer/Test_systems_manuscript/rnas/3slm

>  <Rbt.Executable>
rbdock ($Id: //depot/dev/client3/rdock/2013.1/src/exe/rbdock.cxx#4 $)

>  <Rbt.Library>
libRbt.so (2013.1, Build901 2013/11/27)

>  <Rbt.Parameter_File>
/export/apps/rDock/src/rDock_2013.1_src/data/scripts/dock_solv.prm

>  <Rbt.Receptor>
prm/blind_docking_60.prm

>  <SCORE>
-21.4733

>  <SCORE.INTER>
-15.874

>  <SCORE.INTER.CONST>
1

>  <SCORE.INTER.POLAR>
0

>  <SCORE.INTER.ROT>
4

>  <SCORE.INTER.SOLV>
25.0109

>  <SCORE.INTER.VDW>
-25.1863

>  <SCORE.INTER.norm>
-0.690173

>  <SCORE.INTRA>
-5.59928

>  <SCORE.INTRA.DIHEDRAL>
-6.65835

>  <SCORE.INTRA.DIHEDRAL.0>
8.62657

>  <SCORE.INTRA.POLAR>
0

>  <SCORE.INTRA.POLAR.0>
0

>  <SCORE.INTRA.REPUL>
0

>  <SCORE.INTRA.REPUL.0>
0

>  <SCORE.INTRA.SOLV>
-0.699963

>  <SCORE.INTRA.SOLV.lig_0>
-66.3641

>  <SCORE.INTRA.VDW>
-1.92013

>  <SCORE.INTRA.VDW.0>
0.452231

>  <SCORE.INTRA.norm>
-0.243447

>  <SCORE.RESTR>
0

>  <SCORE.RESTR.CAVITY>
0

>  <SCORE.RESTR.norm>
0

>  <SCORE.SYSTEM>
0

>  <SCORE.SYSTEM.CONST>
0

>  <SCORE.SYSTEM.DIHEDRAL>
0

>  <SCORE.SYSTEM.SOLV>
0

>  <SCORE.SYSTEM.norm>
0

>  <SCORE.heavy>
23

>  <SCORE.norm>
-0.93362

>  <RMSD>
1.247

$$$$
ligand
 OpenBabel02271912143D
libRbt.so/2013.1/901 2013/11/27
 23 25  0  0  0  0  0  0  0  0999 V2000
   22.4851    1.1204   30.9972 P   0  0  1  0  0  0  0  0  0  0  0  0
   23.2284    2.8548   29.1821 C   0  0  0  0  0  0  0  0  0  0  0  0
   22.1594    2.2334   29.8821 O   0  0  0  0  0  0  0  0  0  0  0  0
   22.6458    4.0169   28.4096 C   0  0  1  0  0  0  0  0  0  0  0  0
   21.9881    3.5925   27.2162 O   0  0  0  0  0  0  0  0  0  0  0  0
   21.6221    4.7293   29.2775 C   0  0  1  0  0  0  0  0  0  0  0  0
   21.8799    6.1422   29.2052 O   0  0  0  0  0  0  0  0  0  0  0  0
   20.2678    4.3615   28.6845 C   0  0  0  0  0  0  0  0  0  0  0  0
   20.5904    3.9078   27.2633 C   0  0  2  0  0  0  0  0  0  0  0  0
   17.8848    1.2942   23.7446 N   0  0  0  0  0  0  0  0  0  0  0  0
   18.3869    2.5360   23.6469 C   0  0  2  0  0  0  0  0  0  0  0  0
   18.1846    3.2100   22.4909 N   0  0  0  0  0  0  0  0  0  0  0  0
   19.0815    3.0911   24.6693 N   0  0  0  0  0  0  0  0  0  0  0  0
   19.2720    2.3890   25.8052 C   0  0  2  0  0  0  0  0  0  0  0  0
   18.7615    1.1143   25.9221 C   0  0  1  0  0  0  0  0  0  0  0  0
   18.0634    0.5671   24.8624 C   0  0  0  0  0  0  0  0  0  0  0  0
   17.5980   -0.5900   24.9459 O   0  0  0  0  0  0  0  0  0  0  0  0
   19.0831    0.6454   27.1440 N   0  0  0  0  0  0  0  0  0  0  0  0
   19.7850    1.6067   27.7696 C   0  0  0  0  0  0  0  0  0  0  0  0
   19.8833    2.6610   26.9526 N   0  0  1  0  0  0  0  0  0  0  0  0
   21.1980    0.8467   31.7366 O   0  0  0  0  0  0  0  0  0  0  0  0
   23.0076   -0.0522   30.1996 O   0  5  0  0  0  0  0  0  0  0  0  0
   23.5313    1.7953   31.8425 O   0  0  0  0  0  0  0  0  0  0  0  0
  1  3  1  6  0  0  0
  1 21  1  0  0  0  0
  1 22  1  0  0  0  0
  1 23  2  0  0  0  0
  2  3  1  0  0  0  0
  4  2  1  1  0  0  0
  4  5  1  0  0  0  0
  4  6  1  0  0  0  0
  6  7  1  6  0  0  0
  6  8  1  0  0  0  0
  8  9  1  0  0  0  0
  9  5  1  1  0  0  0
  9 20  1  0  0  0  0
 10 11  1  0  0  0  0
 10 16  1  0  0  0  0
 11 12  1  6  0  0  0
 11 13  1  0  0  0  0
 14 13  1  1  0  0  0
 14 15  1  0  0  0  0
 14 20  1  0  0  0  0
 15 16  1  6  0  0  0
 15 18  1  0  0  0  0
 16 17  2  0  0  0  0
 18 19  1  0  0  0  0
 20 19  1  6  0  0  0
M  CHG  1  22  -1
M  END
>  <CHROM.1>
169.37216065,-78.46335072,-169.48087413,-105.96074827,20.64620810,2.27971862
27.76982609,0.31139573,0.93883882,2.69871549

>  <Name>
ligand

>  <RI>
416

>  <Rbt.Current_Directory>
/home/itssahil/PROJECTS/Mol_Feturizer/Test_systems_manuscript/rnas/3slm

>  <Rbt.Executable>
rbdock ($Id: //depot/dev/client3/rdock/2013.1/src/exe/rbdock.cxx#4 $)

>  <Rbt.Library>
libRbt.so (2013.1, Build901 2013/11/27)

>  <Rbt.Parameter_File>
/export/apps/rDock/src/rDock_2013.1_src/data/scripts/dock_solv.prm

>  <Rbt.Receptor>
prm/pocket_docking_4.prm

>  <SCORE>
-19.31

>  <SCORE.INTER>
-15.5923

>  <SCORE.INTER.CONST>
1

>  <SCORE.INTER.POLAR>
0

>  <SCORE.INTER.ROT>
4

>  <SCORE.INTER.SOLV>
24.7664

>  <SCORE.INTER.VDW>
-24.917

>  <SCORE.INTER.norm>
-0.677926

>  <SCORE.INTRA>
-3.71774

>  <SCORE.INTRA.DIHEDRAL>
-5.62887

>  <SCORE.INTRA.DIHEDRAL.0>
8.62657

>  <SCORE.INTRA.POLAR>
0

>  <SCORE.INTRA.POLAR.0>
0

>  <SCORE.INTRA.REPUL>
0

>  <SCORE.INTRA.REPUL.0>
0

>  <SCORE.INTRA.SOLV>
0.451903

>  <SCORE.INTRA.SOLV.lig_0>
-66.3641

>  <SCORE.INTRA.VDW>
-1.12926

>  <SCORE.INTRA.VDW.0>
0.452231

>  <SCORE.INTRA.norm>
-0.161641

>  <SCORE.RESTR>
0

>  <SCORE.RESTR.CAVITY>
0

>  <SCORE.RESTR.norm>
0

>  <SCORE.SYSTEM>
0

>  <SCORE.SYSTEM.CONST>
0

>  <SCORE.SYSTEM.DIHEDRAL>
0

>  <SCORE.SYSTEM.SOLV>
0

>  <SCORE.SYSTEM.norm>
0

>  <SCORE.heavy>
23

>  <SCORE.norm>
-0.839567

>  <RMSD>
1.247

$$$$
ligand
 OpenBabel02271912143D
libRbt.so/2013.1/901 2013/11/27
 23 25  0  0  0  0  0  0  0  0999 V2000
   23.4488    0.7065   31.1841 P   0  0  1  0  0  0  0  0  0  0  0  0
   22.0548    2.7022   30.2202 C   0  0  0  0  0  0  0  0  0  0  0  0
   23.0766    1.7382   30.0071 O   0  0  0  0  0  0  0  0  0  0  0  0
   22.1134    3.6824   29.0703 C   0  0  1  0  0  0  0  0  0  0  0  0
   21.8203    3.0608   27.8195 O   0  0  0  0  0  0  0  0  0  0  0  0
   21.0865    4.7791   29.2973 C   0  0  1  0  0  0  0  0  0  0  0  0
   21.7257    6.0460   29.0640 O   0  0  0  0  0  0  0  0  0  0  0  0
   19.9753    4.5027   28.2923 C   0  0  0  0  0  0  0  0  0  0  0  0
   20.6338    3.6170   27.2380 C   0  0  2  0  0  0  0  0  0  0  0  0
   17.6919    1.3653   23.6593 N   0  0  0  0  0  0  0  0  0  0  0  0
   18.3656    2.5235   23.5672 C   0  0  2  0  0  0  0  0  0  0  0  0
   18.2932    3.2053   22.4004 N   0  0  0  0  0  0  0  0  0  0  0  0
   19.1011    2.9883   24.6058 N   0  0  0  0  0  0  0  0  0  0  0  0
   19.1585    2.2801   25.7525 C   0  0  2  0  0  0  0  0  0  0  0  0
   18.4713    1.0907   25.8637 C   0  0  1  0  0  0  0  0  0  0  0  0
   17.7345    0.6338   24.7876 C   0  0  0  0  0  0  0  0  0  0  0  0
   17.1093   -0.4458   24.8660 O   0  0  0  0  0  0  0  0  0  0  0  0
   18.6886    0.5961   27.0984 N   0  0  0  0  0  0  0  0  0  0  0  0
   19.4998    1.4573   27.7376 C   0  0  0  0  0  0  0  0  0  0  0  0
   19.7684    2.4777   26.9157 N   0  0  1  0  0  0  0  0  0  0  0  0
   22.1559    0.0800   31.6468 O   0  0  0  0  0  0  0  0  0  0  0  0
   24.4111   -0.2590   30.5314 O   0  5  0  0  0  0  0  0  0  0  0  0
   24.0871    1.5974   32.2153 O   0  0  0  0  0  0  0  0  0  0  0  0
  1  3  1  6  0  0  0
  1 21  1  0  0  0  0
  1 22  1  0  0  0  0
  1 23  2  0  0  0  0
  2  3  1  0  0  0  0
  4  2  1  1  0  0  0
  4  5  1  0  0  0  0
  4  6  1  0  0  0  0
  6  7  1  6  0  0  0
  6  8  1  0  0  0  0
  8  9  1  0  0  0  0
  9  5  1  1  0  0  0
  9 20  1  0  0  0  0
 10 11  1  0  0  0  0
 10 16  1  0  0  0  0
 11 12  1  6  0  0  0
 11 13  1  0  0  0  0
 14 13  1  1  0  0  0
 14 15  1  0  0  0  0
 14 20  1  0  0  0  0
 15 16  1  6  0  0  0
 15 18  1  0  0  0  0
 16 17  2  0  0  0  0
 18 19  1  0  0  0  0
 20 19  1  6  0  0  0
M  CHG  1  22  -1
M  END
>  <CHROM.1>
50.99280985,63.73793014,169.24484828,-131.34687003,20.71619056,2.09928519
27.86756905,0.16693391,0.90126512,2.97468949

>  <Name>
ligand

>  <RI>
0

>  <Rbt.Current_Directory>
/home/itssahil/PROJECTS/Mol_Feturizer/Test_systems_manuscript/rnas/3slm

>  <Rbt.Executable>
rbdock ($Id: //depot/dev/client3/rdock/2013.1/src/exe/rbdock.cxx#4 $)

>  <Rbt.Library>
libRbt.so (2013.1, Build901 2013/11/27)

>  <Rbt.Parameter_File>
/export/apps/rDock/src/rDock_2013.1_src/data/scripts/dock_solv.prm

>  <Rbt.Receptor>
prm/pocket_docking_3.prm

>  <SCORE>
-21.4578

>  <SCORE.INTER>
-15.8478

>  <SCORE.INTER.CONST>
1

>  <SCORE.INTER.POLAR>
0

>  <SCORE.INTER.ROT>
4

>  <SCORE.INTER.SOLV>
25.1097

>  <SCORE.INTER.VDW>
-25.2018

>  <SCORE.INTER.norm>
-0.689035

>  <SCORE.INTRA>
-5.61001

>  <SCORE.INTRA.DIHEDRAL>
-6.66683

>  <SCORE.INTRA.DIHEDRAL.0>
8.62657

>  <SCORE.INTRA.POLAR>
0

>  <SCORE.INTRA.POLAR.0>
0

>  <SCORE.INTRA.REPUL>
0

>  <SCORE.INTRA.REPUL.0>
0

>  <SCORE.INTRA.SOLV>
-0.715711

>  <SCORE.INTRA.SOLV.lig_0>
-66.3641

>  <SCORE.INTRA.VDW>
-1.91874

>  <SCORE.INTRA.VDW.0>
0.452231

>  <SCORE.INTRA.norm>
-0.243913

>  <SCORE.RESTR>
0

>  <SCORE.RESTR.CAVITY>
0

>  <SCORE.RESTR.norm>
0

>  <SCORE.SYSTEM>
0

>  <SCORE.SYSTEM.CONST>
0

>  <SCORE.SYSTEM.DIHEDRAL>
0

>  <SCORE.SYSTEM.SOLV>
0

>  <SCORE.SYSTEM.norm>
0

>  <SCORE.heavy>
23

>  <SCORE.norm>
-0.932948

>  <RMSD>
1.249

$$$$
ligand
 OpenBabel02271912143D
libRbt.so/2013.1/901 2013/11/27
 23 25  0  0  0  0  0  0  0  0999 V2000
   24.3829    0.5396   28.8460 P   0  0  1  0  0  0  0  0  0  0  0  0
   22.9648    2.7043   29.2442 C   0  0  0  0  0  0  0  0  0  0  0  0
   23.9097    2.0207   28.4326 O   0  0  0  0  0  0  0  0  0  0  0  0
   22.4596    3.8868   28.4486 C   0  0  1  0  0  0  0  0  0  0  0  0
   21.8043    3.4845   27.2463 O   0  0  0  0  0  0  0  0  0  0  0  0
   21.4578    4.6613   29.2884 C   0  0  1  0  0  0  0  0  0  0  0  0
   21.7909    6.0579   29.2076 O   0  0  0  0  0  0  0  0  0  0  0  0
   20.0980    4.3586   28.6715 C   0  0  0  0  0  0  0  0  0  0  0  0
   20.4244    3.8732   27.2617 C   0  0  2  0  0  0  0  0  0  0  0  0
   17.7347    1.3249   23.6835 N   0  0  0  0  0  0  0  0  0  0  0  0
   18.3146    2.5317   23.5788 C   0  0  2  0  0  0  0  0  0  0  0  0
   18.2076    3.1835   22.3976 N   0  0  0  0  0  0  0  0  0  0  0  0
   18.9925    3.0737   24.6192 N   0  0  0  0  0  0  0  0  0  0  0  0
   19.0870    2.3940   25.7805 C   0  0  2  0  0  0  0  0  0  0  0  0
   18.4959    1.1554   25.9049 C   0  0  1  0  0  0  0  0  0  0  0  0
   17.8166    0.6204   24.8268 C   0  0  0  0  0  0  0  0  0  0  0  0
   17.2790   -0.5044   24.9170 O   0  0  0  0  0  0  0  0  0  0  0  0
   18.7310    0.7030   27.1524 N   0  0  0  0  0  0  0  0  0  0  0  0
   19.4593    1.6387   27.7868 C   0  0  0  0  0  0  0  0  0  0  0  0
   19.6590    2.6619   26.9489 N   0  0  1  0  0  0  0  0  0  0  0  0
   24.6781    0.5677   30.3259 O   0  0  0  0  0  0  0  0  0  0  0  0
   23.2140   -0.3372   28.4598 O   0  5  0  0  0  0  0  0  0  0  0  0
   25.6057    0.3331   27.9936 O   0  0  0  0  0  0  0  0  0  0  0  0
  1  3  1  6  0  0  0
  1 21  1  0  0  0  0
  1 22  1  0  0  0  0
  1 23  2  0  0  0  0
  2  3  1  0  0  0  0
  4  2  1  1  0  0  0
  4  5  1  0  0  0  0
  4  6  1  0  0  0  0
  6  7  1  6  0  0  0
  6  8  1  0  0  0  0
  8  9  1  0  0  0  0
  9  5  1  1  0  0  0
  9 20  1  0  0  0  0
 10 11  1  0  0  0  0
 10 16  1  0  0  0  0
 11 12  1  6  0  0  0
 11 13  1  0  0  0  0
 14 13  1  1  0  0  0
 14 15  1  0  0  0  0
 14 20  1  0  0  0  0
 15 16  1  6  0  0  0
 15 18  1  0  0  0  0
 16 17  2  0  0  0  0
 18 19  1  0  0  0  0
 20 19  1  6  0  0  0
M  CHG  1  22  -1
M  END
>  <CHROM.1>
-45.59718258,61.39168884,-166.10281796,-104.07137051,21.03551261,2.10763426
27.16783893,-0.17727067,0.63565905,-2.81286507

>  <Name>
ligand

>  <RI>
0

>  <Rbt.Current_Directory>
/home/itssahil/PROJECTS/Mol_Feturizer/Test_systems_manuscript/rnas/3slm

>  <Rbt.Executable>
rbdock ($Id: //depot/dev/client3/rdock/2013.1/src/exe/rbdock.cxx#4 $)

>  <Rbt.Library>
libRbt.so (2013.1, Build901 2013/11/27)

>  <Rbt.Parameter_File>
/export/apps/rDock/src/rDock_2013.1_src/data/scripts/dock_solv.prm

>  <Rbt.Receptor>
prm/pocket_docking_3.prm

>  <SCORE>
-20.3932

>  <SCORE.INTER>
-15.3284

>  <SCORE.INTER.CONST>
1

>  <SCORE.INTER.POLAR>
0

>  <SCORE.INTER.ROT>
4

>  <SCORE.INTER.SOLV>
27.0181

>  <SCORE.INTER.VDW>
-25.4916

>  <SCORE.INTER.norm>
-0.666451

>  <SCORE.INTRA>
-5.07053

>  <SCORE.INTRA.DIHEDRAL>
-6.19919

>  <SCORE.INTRA.DIHEDRAL.0>
8.62657

>  <SCORE.INTRA.POLAR>
0

>  <SCORE.INTRA.POLAR.0>
0

>  <SCORE.INTRA.REPUL>
0

>  <SCORE.INTRA.REPUL.0>
0

>  <SCORE.INTRA.SOLV>
-0.582834

>  <SCORE.INTRA.SOLV.lig_0>
-66.3641

>  <SCORE.INTRA.VDW>
-1.67952

>  <SCORE.INTRA.VDW.0>
0.452231

>  <SCORE.INTRA.norm>
-0.220458

>  <SCORE.RESTR>
0.00566103

>  <SCORE.RESTR.CAVITY>
0.00566103

>  <SCORE.RESTR.norm>
0.000246132

>  <SCORE.SYSTEM>
0

>  <SCORE.SYSTEM.CONST>
0

>  <SCORE.SYSTEM.DIHEDRAL>
0

>  <SCORE.SYSTEM.SOLV>
0

>  <SCORE.SYSTEM.norm>
0

>  <SCORE.heavy>
23

>  <SCORE.norm>
-0.886662

>  <RMSD>
1.254

$$$$
ligand
 OpenBabel02271912143D
libRbt.so/2013.1/901 2013/11/27
 23 25  0  0  0  0  0  0  0  0999 V2000
   23.8068    0.6696   29.4054 P   0  0  1  0  0  0  0  0  0  0  0  0
   21.6575    2.0505   29.9792 C   0  0  0  0  0  0  0  0  0  0  0  0
   22.2094    0.8259   29.5158 O   0  0  0  0  0  0  0  0  0  0  0  0
   21.7967    3.0590   28.8612 C   0  0  1  0  0  0  0  0  0  0  0  0
   21.5024    2.4906   27.5856 O   0  0  0  0  0  0  0  0  0  0  0  0
   20.8241    4.2022   29.0973 C   0  0  1  0  0  0  0  0  0  0  0  0
   21.5352    5.4392   28.9174 O   0  0  0  0  0  0  0  0  0  0  0  0
   19.7252    4.0152   28.0586 C   0  0  0  0  0  0  0  0  0  0  0  0
   20.3620    3.1263   26.9936 C   0  0  2  0  0  0  0  0  0  0  0  0
   17.3466    1.1743   23.3019 N   0  0  0  0  0  0  0  0  0  0  0  0
   18.0758    2.3015   23.2643 C   0  0  2  0  0  0  0  0  0  0  0  0
   18.0464    3.0352   22.1274 N   0  0  0  0  0  0  0  0  0  0  0  0
   18.8238    2.6854   24.3268 N   0  0  0  0  0  0  0  0  0  0  0  0
   18.8371    1.9269   25.4422 C   0  0  2  0  0  0  0  0  0  0  0  0
   18.0927    0.7685   25.4975 C   0  0  1  0  0  0  0  0  0  0  0  0
   17.3442    0.3941   24.3979 C   0  0  0  0  0  0  0  0  0  0  0  0
   16.6673   -0.6564   24.4255 O   0  0  0  0  0  0  0  0  0  0  0  0
   18.2752    0.2116   26.7112 N   0  0  0  0  0  0  0  0  0  0  0  0
   19.1213    1.0046   27.3922 C   0  0  0  0  0  0  0  0  0  0  0  0
   19.4457    2.0449   26.6169 N   0  0  1  0  0  0  0  0  0  0  0  0
   24.0873   -0.7784   29.0851 O   0  0  0  0  0  0  0  0  0  0  0  0
   24.1925    1.6367   28.3098 O   0  5  0  0  0  0  0  0  0  0  0  0
   24.2750    1.0834   30.7743 O   0  0  0  0  0  0  0  0  0  0  0  0
  1  3  1  1  0  0  0
  1 21  1  0  0  0  0
  1 22  1  0  0  0  0
  1 23  2  0  0  0  0
  2  3  1  0  0  0  0
  4  2  1  1  0  0  0
  4  5  1  0  0  0  0
  4  6  1  0  0  0  0
  6  7  1  6  0  0  0
  6  8  1  0  0  0  0
  8  9  1  0  0  0  0
  9  5  1  1  0  0  0
  9 20  1  0  0  0  0
 10 11  1  0  0  0  0
 10 16  1  0  0  0  0
 11 12  1  6  0  0  0
 11 13  1  0  0  0  0
 14 13  1  1  0  0  0
 14 15  1  0  0  0  0
 14 20  1  0  0  0  0
 15 16  1  6  0  0  0
 15 18  1  0  0  0  0
 16 17  2  0  0  0  0
 18 19  1  0  0  0  0
 20 19  1  6  0  0  0
M  CHG  1  22  -1
M  END
>  <CHROM.1>
171.94744223,41.06941179,74.37875733,-132.59855278,20.56522326,1.78354605
27.18031549,-0.11461065,0.76745399,-2.98923487

>  <Name>
ligand

>  <RI>
416

>  <Rbt.Current_Directory>
/home/itssahil/PROJECTS/Mol_Feturizer/Test_systems_manuscript/rnas/3slm

>  <Rbt.Executable>
rbdock ($Id: //depot/dev/client3/rdock/2013.1/src/exe/rbdock.cxx#4 $)

>  <Rbt.Library>
libRbt.so (2013.1, Build901 2013/11/27)

>  <Rbt.Parameter_File>
/export/apps/rDock/src/rDock_2013.1_src/data/scripts/dock_solv.prm

>  <Rbt.Receptor>
prm/pocket_docking_2.prm

>  <SCORE>
-19.2438

>  <SCORE.INTER>
-16.1641

>  <SCORE.INTER.CONST>
1

>  <SCORE.INTER.POLAR>
0

>  <SCORE.INTER.ROT>
4

>  <SCORE.INTER.SOLV>
22.3567

>  <SCORE.INTER.VDW>
-24.495

>  <SCORE.INTER.norm>
-0.702788

>  <SCORE.INTRA>
-3.07965

>  <SCORE.INTRA.DIHEDRAL>
-5.13151

>  <SCORE.INTRA.DIHEDRAL.0>
8.62657

>  <SCORE.INTRA.POLAR>
0

>  <SCORE.INTRA.POLAR.0>
0

>  <SCORE.INTRA.REPUL>
0

>  <SCORE.INTRA.REPUL.0>
0

>  <SCORE.INTRA.SOLV>
2.73065

>  <SCORE.INTRA.SOLV.lig_0>
-66.3641

>  <SCORE.INTRA.VDW>
-1.87922

>  <SCORE.INTRA.VDW.0>
0.452231

>  <SCORE.INTRA.norm>
-0.133898

>  <SCORE.RESTR>
0

>  <SCORE.RESTR.CAVITY>
0

>  <SCORE.RESTR.norm>
0

>  <SCORE.SYSTEM>
0

>  <SCORE.SYSTEM.CONST>
0

>  <SCORE.SYSTEM.DIHEDRAL>
0

>  <SCORE.SYSTEM.SOLV>
0

>  <SCORE.SYSTEM.norm>
0

>  <SCORE.heavy>
23

>  <SCORE.norm>
-0.836686

>  <RMSD>
1.255

$$$$
ligand
 OpenBabel02271912143D
libRbt.so/2013.1/901 2013/11/27
 23 25  0  0  0  0  0  0  0  0999 V2000
   23.4983    0.7105   31.1451 P   0  0  1  0  0  0  0  0  0  0  0  0
   22.0753    2.7065   30.2252 C   0  0  0  0  0  0  0  0  0  0  0  0
   23.0969    1.7490   29.9838 O   0  0  0  0  0  0  0  0  0  0  0  0
   22.1132    3.7023   29.0878 C   0  0  1  0  0  0  0  0  0  0  0  0
   21.8055    3.0961   27.8330 O   0  0  0  0  0  0  0  0  0  0  0  0
   21.0847    4.7909   29.3439 C   0  0  1  0  0  0  0  0  0  0  0  0
   21.7148    6.0638   29.1187 O   0  0  0  0  0  0  0  0  0  0  0  0
   19.9608    4.5228   28.3509 C   0  0  0  0  0  0  0  0  0  0  0  0
   20.6084    3.6544   27.2757 C   0  0  2  0  0  0  0  0  0  0  0  0
   17.6946    1.3936   23.6797 N   0  0  0  0  0  0  0  0  0  0  0  0
   18.3713    2.5502   23.5890 C   0  0  2  0  0  0  0  0  0  0  0  0
   18.3107    3.2274   22.4189 N   0  0  0  0  0  0  0  0  0  0  0  0
   19.0983    3.0178   24.6323 N   0  0  0  0  0  0  0  0  0  0  0  0
   19.1440    2.3142   25.7823 C   0  0  2  0  0  0  0  0  0  0  0  0
   18.4536    1.1266   25.8922 C   0  0  1  0  0  0  0  0  0  0  0  0
   17.7255    0.6666   24.8113 C   0  0  0  0  0  0  0  0  0  0  0  0
   17.0976   -0.4114   24.8884 O   0  0  0  0  0  0  0  0  0  0  0  0
   18.6587    0.6365   27.1308 N   0  0  0  0  0  0  0  0  0  0  0  0
   19.4658    1.4988   27.7738 C   0  0  0  0  0  0  0  0  0  0  0  0
   19.7437    2.5154   26.9502 N   0  0  1  0  0  0  0  0  0  0  0  0
   22.2185    0.0729   31.6285 O   0  0  0  0  0  0  0  0  0  0  0  0
   24.4529   -0.2443   30.4659 O   0  5  0  0  0  0  0  0  0  0  0  0
   24.1520    1.5972   32.1703 O   0  0  0  0  0  0  0  0  0  0  0  0
  1  3  1  6  0  0  0
  1 21  1  0  0  0  0
  1 22  1  0  0  0  0
  1 23  2  0  0  0  0
  2  3  1  0  0  0  0
  4  2  1  1  0  0  0
  4  5  1  0  0  0  0
  4  6  1  0  0  0  0
  6  7  1  6  0  0  0
  6  8  1  0  0  0  0
  8  9  1  0  0  0  0
  9  5  1  1  0  0  0
  9 20  1  0  0  0  0
 10 11  1  0  0  0  0
 10 16  1  0  0  0  0
 11 12  1  6  0  0  0
 11 13  1  0  0  0  0
 14 13  1  1  0  0  0
 14 15  1  0  0  0  0
 14 20  1  0  0  0  0
 15 16  1  6  0  0  0
 15 18  1  0  0  0  0
 16 17  2  0  0  0  0
 18 19  1  0  0  0  0
 20 19  1  6  0  0  0
M  CHG  1  22  -1
M  END
>  <CHROM.1>
51.07122867,63.64542223,168.75913293,-129.64880470,20.72306081,2.12081385
27.87803232,0.14970069,0.89499767,2.99855427

>  <Name>
ligand

>  <RI>
0

>  <Rbt.Current_Directory>
/home/itssahil/PROJECTS/Mol_Feturizer/Test_systems_manuscript/rnas/3slm

>  <Rbt.Executable>
rbdock ($Id: //depot/dev/client3/rdock/2013.1/src/exe/rbdock.cxx#4 $)

>  <Rbt.Library>
libRbt.so (2013.1, Build901 2013/11/27)

>  <Rbt.Parameter_File>
/export/apps/rDock/src/rDock_2013.1_src/data/scripts/dock_solv.prm

>  <Rbt.Receptor>
prm/pocket_docking_3.prm

>  <SCORE>
-21.4708

>  <SCORE.INTER>
-15.8859

>  <SCORE.INTER.CONST>
1

>  <SCORE.INTER.POLAR>
0

>  <SCORE.INTER.ROT>
4

>  <SCORE.INTER.SOLV>
25.1563

>  <SCORE.INTER.VDW>
-25.2427

>  <SCORE.INTER.norm>
-0.69069

>  <SCORE.INTRA>
-5.58497

>  <SCORE.INTRA.DIHEDRAL>
-6.62585

>  <SCORE.INTRA.DIHEDRAL.0>
8.62657

>  <SCORE.INTRA.POLAR>
0

>  <SCORE.INTRA.POLAR.0>
0

>  <SCORE.INTRA.REPUL>
0

>  <SCORE.INTRA.REPUL.0>
0

>  <SCORE.INTRA.SOLV>
-0.713103

>  <SCORE.INTRA.SOLV.lig_0>
-66.3641

>  <SCORE.INTRA.VDW>
-1.91549

>  <SCORE.INTRA.VDW.0>
0.452231

>  <SCORE.INTRA.norm>
-0.242825

>  <SCORE.RESTR>
0

>  <SCORE.RESTR.CAVITY>
0

>  <SCORE.RESTR.norm>
0

>  <SCORE.SYSTEM>
0

>  <SCORE.SYSTEM.CONST>
0

>  <SCORE.SYSTEM.DIHEDRAL>
0

>  <SCORE.SYSTEM.SOLV>
0

>  <SCORE.SYSTEM.norm>
0

>  <SCORE.heavy>
23

>  <SCORE.norm>
-0.933515

>  <RMSD>
1.256

$$$$
ligand
 OpenBabel02271912143D
libRbt.so/2013.1/901 2013/11/27
 23 25  0  0  0  0  0  0  0  0999 V2000
   24.2111   -0.3080   28.6875 P   0  0  1  0  0  0  0  0  0  0  0  0
   23.0017    2.0036   28.9089 C   0  0  0  0  0  0  0  0  0  0  0  0
   23.5980    1.0379   28.0542 O   0  0  0  0  0  0  0  0  0  0  0  0
   22.6535    3.2043   28.0582 C   0  0  1  0  0  0  0  0  0  0  0  0
   21.9488    2.8364   26.8730 O   0  0  0  0  0  0  0  0  0  0  0  0
   21.7632    4.1405   28.8579 C   0  0  1  0  0  0  0  0  0  0  0  0
   22.2757    5.4765   28.7148 O   0  0  0  0  0  0  0  0  0  0  0  0
   20.3742    3.9899   28.2502 C   0  0  0  0  0  0  0  0  0  0  0  0
   20.6315    3.4022   26.8653 C   0  0  2  0  0  0  0  0  0  0  0  0
   17.4349    1.2031   23.4774 N   0  0  0  0  0  0  0  0  0  0  0  0
   18.1400    2.3370   23.3336 C   0  0  2  0  0  0  0  0  0  0  0  0
   18.0289    3.0057   22.1622 N   0  0  0  0  0  0  0  0  0  0  0  0
   18.9436    2.7906   24.3257 N   0  0  0  0  0  0  0  0  0  0  0  0
   19.0379    2.0958   25.4781 C   0  0  2  0  0  0  0  0  0  0  0  0
   18.3192    0.9314   25.6423 C   0  0  1  0  0  0  0  0  0  0  0  0
   17.5126    0.4853   24.6127 C   0  0  0  0  0  0  0  0  0  0  0  0
   16.8577   -0.5718   24.7392 O   0  0  0  0  0  0  0  0  0  0  0  0
   18.5846    0.4459   26.8712 N   0  0  0  0  0  0  0  0  0  0  0  0
   19.4556    1.2879   27.4547 C   0  0  0  0  0  0  0  0  0  0  0  0
   19.7139    2.2881   26.6051 N   0  0  1  0  0  0  0  0  0  0  0  0
   23.3767   -0.6453   29.8992 O   0  0  0  0  0  0  0  0  0  0  0  0
   24.1157   -1.3151   27.5646 O   0  5  0  0  0  0  0  0  0  0  0  0
   25.6210    0.0967   29.0231 O   0  0  0  0  0  0  0  0  0  0  0  0
  1  3  1  6  0  0  0
  1 21  1  0  0  0  0
  1 22  1  0  0  0  0
  1 23  2  0  0  0  0
  2  3  1  0  0  0  0
  4  2  1  1  0  0  0
  4  5  1  0  0  0  0
  4  6  1  0  0  0  0
  6  7  1  6  0  0  0
  6  8  1  0  0  0  0
  8  9  1  0  0  0  0
  9  5  1  1  0  0  0
  9 20  1  0  0  0  0
 10 11  1  0  0  0  0
 10 16  1  0  0  0  0
 11 12  1  6  0  0  0
 11 13  1  0  0  0  0
 14 13  1  1  0  0  0
 14 15  1  0  0  0  0
 14 20  1  0  0  0  0
 15 16  1  6  0  0  0
 15 18  1  0  0  0  0
 16 17  2  0  0  0  0
 18 19  1  0  0  0  0
 20 19  1  6  0  0  0
M  CHG  1  22  -1
M  END
>  <CHROM.1>
31.91810387,49.05531699,174.20517078,-109.00645438,20.98638422,1.60843858
26.89106331,0.01920402,0.65458312,-2.98404536

>  <Name>
ligand

>  <RI>
416

>  <Rbt.Current_Directory>
/home/itssahil/PROJECTS/Mol_Feturizer/Test_systems_manuscript/rnas/3slm

>  <Rbt.Executable>
rbdock ($Id: //depot/dev/client3/rdock/2013.1/src/exe/rbdock.cxx#4 $)

>  <Rbt.Library>
libRbt.so (2013.1, Build901 2013/11/27)

>  <Rbt.Parameter_File>
/export/apps/rDock/src/rDock_2013.1_src/data/scripts/dock_solv.prm

>  <Rbt.Receptor>
prm/pocket_docking_4.prm

>  <SCORE>
-21.4389

>  <SCORE.INTER>
-16.6311

>  <SCORE.INTER.CONST>
1

>  <SCORE.INTER.POLAR>
0

>  <SCORE.INTER.ROT>
4

>  <SCORE.INTER.SOLV>
28.2232

>  <SCORE.INTER.VDW>
-26.7618

>  <SCORE.INTER.norm>
-0.723089

>  <SCORE.INTRA>
-4.8079

>  <SCORE.INTRA.DIHEDRAL>
-5.82436

>  <SCORE.INTRA.DIHEDRAL.0>
8.62657

>  <SCORE.INTRA.POLAR>
0

>  <SCORE.INTRA.POLAR.0>
0

>  <SCORE.INTRA.REPUL>
0

>  <SCORE.INTRA.REPUL.0>
0

>  <SCORE.INTRA.SOLV>
-0.804881

>  <SCORE.INTRA.SOLV.lig_0>
-66.3641

>  <SCORE.INTRA.VDW>
-1.49328

>  <SCORE.INTRA.VDW.0>
0.452231

>  <SCORE.INTRA.norm>
-0.209039

>  <SCORE.RESTR>
0

>  <SCORE.RESTR.CAVITY>
0

>  <SCORE.RESTR.norm>
0

>  <SCORE.SYSTEM>
0

>  <SCORE.SYSTEM.CONST>
0

>  <SCORE.SYSTEM.DIHEDRAL>
0

>  <SCORE.SYSTEM.SOLV>
0

>  <SCORE.SYSTEM.norm>
0

>  <SCORE.heavy>
23

>  <SCORE.norm>
-0.932128

>  <RMSD>
1.278

$$$$
ligand
 OpenBabel02271912143D
libRbt.so/2013.1/901 2013/11/27
 23 25  0  0  0  0  0  0  0  0999 V2000
   23.9988    0.7936   29.1879 P   0  0  1  0  0  0  0  0  0  0  0  0
   22.0481    2.2840   30.0981 C   0  0  0  0  0  0  0  0  0  0  0  0
   23.3250    1.7055   30.3293 O   0  0  0  0  0  0  0  0  0  0  0  0
   22.1858    3.2244   28.9220 C   0  0  1  0  0  0  0  0  0  0  0  0
   21.8841    2.5828   27.6834 O   0  0  0  0  0  0  0  0  0  0  0  0
   21.2181    4.3831   29.0942 C   0  0  1  0  0  0  0  0  0  0  0  0
   21.9326    5.6047   28.8387 O   0  0  0  0  0  0  0  0  0  0  0  0
   20.1141    4.1391   28.0729 C   0  0  0  0  0  0  0  0  0  0  0  0
   20.7432    3.1867   27.0596 C   0  0  2  0  0  0  0  0  0  0  0  0
   17.6115    1.0983   23.5435 N   0  0  0  0  0  0  0  0  0  0  0  0
   18.3310    2.2279   23.4434 C   0  0  2  0  0  0  0  0  0  0  0  0
   18.2558    2.9242   22.2853 N   0  0  0  0  0  0  0  0  0  0  0  0
   19.1138    2.6505   24.4654 N   0  0  0  0  0  0  0  0  0  0  0  0
   19.1723    1.9287   25.6035 C   0  0  2  0  0  0  0  0  0  0  0  0
   18.4385    0.7683   25.7229 C   0  0  1  0  0  0  0  0  0  0  0  0
   17.6537    0.3540   24.6635 C   0  0  0  0  0  0  0  0  0  0  0  0
   16.9856   -0.6989   24.7493 O   0  0  0  0  0  0  0  0  0  0  0  0
   18.6682    0.2522   26.9465 N   0  0  0  0  0  0  0  0  0  0  0  0
   19.5324    1.0717   27.5707 C   0  0  0  0  0  0  0  0  0  0  0  0
   19.8217    2.0883   26.7511 N   0  0  1  0  0  0  0  0  0  0  0  0
   24.5852    1.7326   28.1620 O   0  0  0  0  0  0  0  0  0  0  0  0
   25.0216   -0.0299   29.9363 O   0  5  0  0  0  0  0  0  0  0  0  0
   22.8331   -0.0065   28.6728 O   0  0  0  0  0  0  0  0  0  0  0  0
  1  3  1  1  0  0  0
  1 21  1  0  0  0  0
  1 22  1  0  0  0  0
  1 23  2  0  0  0  0
  2  3  1  0  0  0  0
  4  2  1  1  0  0  0
  4  5  1  0  0  0  0
  4  6  1  0  0  0  0
  6  7  1  6  0  0  0
  6  8  1  0  0  0  0
  8  9  1  0  0  0  0
  9  5  1  1  0  0  0
  9 20  1  0  0  0  0
 10 11  1  0  0  0  0
 10 16  1  0  0  0  0
 11 12  1  6  0  0  0
 11 13  1  0  0  0  0
 14 13  1  1  0  0  0
 14 15  1  0  0  0  0
 14 20  1  0  0  0  0
 15 16  1  6  0  0  0
 15 18  1  0  0  0  0
 16 17  2  0  0  0  0
 18 19  1  0  0  0  0
 20 19  1  6  0  0  0
M  CHG  1  22  -1
M  END
>  <CHROM.1>
79.02602871,92.33634058,-62.48687579,-135.03648076,20.87974061,1.85780291
27.23239411,-0.13011364,0.73998802,-3.02076631

>  <Name>
ligand

>  <RI>
416

>  <Rbt.Current_Directory>
/home/itssahil/PROJECTS/Mol_Feturizer/Test_systems_manuscript/rnas/3slm

>  <Rbt.Executable>
rbdock ($Id: //depot/dev/client3/rdock/2013.1/src/exe/rbdock.cxx#4 $)

>  <Rbt.Library>
libRbt.so (2013.1, Build901 2013/11/27)

>  <Rbt.Parameter_File>
/export/apps/rDock/src/rDock_2013.1_src/data/scripts/dock_solv.prm

>  <Rbt.Receptor>
prm/pocket_docking_2.prm

>  <SCORE>
-17.7187

>  <SCORE.INTER>
-14.9017

>  <SCORE.INTER.CONST>
1

>  <SCORE.INTER.POLAR>
0

>  <SCORE.INTER.ROT>
4

>  <SCORE.INTER.SOLV>
23.6607

>  <SCORE.INTER.VDW>
-24.0881

>  <SCORE.INTER.norm>
-0.647902

>  <SCORE.INTRA>
-2.83352

>  <SCORE.INTRA.DIHEDRAL>
-3.8107

>  <SCORE.INTRA.DIHEDRAL.0>
8.62657

>  <SCORE.INTRA.POLAR>
0

>  <SCORE.INTRA.POLAR.0>
0

>  <SCORE.INTRA.REPUL>
0

>  <SCORE.INTRA.REPUL.0>
0

>  <SCORE.INTRA.SOLV>
2.10741

>  <SCORE.INTRA.SOLV.lig_0>
-66.3641

>  <SCORE.INTRA.VDW>
-1.98188

>  <SCORE.INTRA.VDW.0>
0.452231

>  <SCORE.INTRA.norm>
-0.123196

>  <SCORE.RESTR>
0.0165348

>  <SCORE.RESTR.CAVITY>
0.0165348

>  <SCORE.RESTR.norm>
0.000718904

>  <SCORE.SYSTEM>
0

>  <SCORE.SYSTEM.CONST>
0

>  <SCORE.SYSTEM.DIHEDRAL>
0

>  <SCORE.SYSTEM.SOLV>
0

>  <SCORE.SYSTEM.norm>
0

>  <SCORE.heavy>
23

>  <SCORE.norm>
-0.770379

>  <RMSD>
1.283

$$$$
ligand
 OpenBabel02271912143D
libRbt.so/2013.1/901 2013/11/27
 23 25  0  0  0  0  0  0  0  0999 V2000
   24.1709   -0.1860   28.8406 P   0  0  1  0  0  0  0  0  0  0  0  0
   23.1651    2.2256   29.0063 C   0  0  0  0  0  0  0  0  0  0  0  0
   23.6918    1.1991   28.1771 O   0  0  0  0  0  0  0  0  0  0  0  0
   22.8391    3.4024   28.1144 C   0  0  1  0  0  0  0  0  0  0  0  0
   22.1391    3.0051   26.9359 O   0  0  0  0  0  0  0  0  0  0  0  0
   21.9546    4.3751   28.8760 C   0  0  1  0  0  0  0  0  0  0  0  0
   22.4852    5.6993   28.6939 O   0  0  0  0  0  0  0  0  0  0  0  0
   20.5686    4.2224   28.2620 C   0  0  0  0  0  0  0  0  0  0  0  0
   20.8293    3.5868   26.8990 C   0  0  2  0  0  0  0  0  0  0  0  0
   17.5550    1.3758   23.5941 N   0  0  0  0  0  0  0  0  0  0  0  0
   18.2648    2.5034   23.4255 C   0  0  2  0  0  0  0  0  0  0  0  0
   18.1362    3.1610   22.2497 N   0  0  0  0  0  0  0  0  0  0  0  0
   19.0899    2.9614   24.3977 N   0  0  0  0  0  0  0  0  0  0  0  0
   19.2012    2.2775   25.5552 C   0  0  2  0  0  0  0  0  0  0  0  0
   18.4780    1.1198   25.7446 C   0  0  1  0  0  0  0  0  0  0  0  0
   17.6492    0.6689   24.7349 C   0  0  0  0  0  0  0  0  0  0  0  0
   16.9898   -0.3824   24.8843 O   0  0  0  0  0  0  0  0  0  0  0  0
   18.7631    0.6448   26.9732 N   0  0  0  0  0  0  0  0  0  0  0  0
   19.6506    1.4867   27.5317 C   0  0  0  0  0  0  0  0  0  0  0  0
   19.8995    2.4765   26.6674 N   0  0  1  0  0  0  0  0  0  0  0  0
   23.2227   -0.4822   29.9769 O   0  0  0  0  0  0  0  0  0  0  0  0
   24.1075   -1.1768   27.7011 O   0  5  0  0  0  0  0  0  0  0  0  0
   25.5705    0.1309   29.2936 O   0  0  0  0  0  0  0  0  0  0  0  0
  1  3  1  6  0  0  0
  1 21  1  0  0  0  0
  1 22  1  0  0  0  0
  1 23  2  0  0  0  0
  2  3  1  0  0  0  0
  4  2  1  1  0  0  0
  4  5  1  0  0  0  0
  4  6  1  0  0  0  0
  6  7  1  6  0  0  0
  6  8  1  0  0  0  0
  8  9  1  0  0  0  0
  9  5  1  1  0  0  0
  9 20  1  0  0  0  0
 10 11  1  0  0  0  0
 10 16  1  0  0  0  0
 11 12  1  6  0  0  0
 11 13  1  0  0  0  0
 14 13  1  1  0  0  0
 14 15  1  0  0  0  0
 14 20  1  0  0  0  0
 15 16  1  6  0  0  0
 15 18  1  0  0  0  0
 16 17  2  0  0  0  0
 18 19  1  0  0  0  0
 20 19  1  6  0  0  0
M  CHG  1  22  -1
M  END
>  <CHROM.1>
35.93443603,46.09866663,178.59762674,-111.03511983,21.09676584,1.78155090
26.98578644,0.06177104,0.66800468,-3.05047630

>  <Name>
ligand

>  <RI>
0

>  <Rbt.Current_Directory>
/home/itssahil/PROJECTS/Mol_Feturizer/Test_systems_manuscript/rnas/3slm

>  <Rbt.Executable>
rbdock ($Id: //depot/dev/client3/rdock/2013.1/src/exe/rbdock.cxx#4 $)

>  <Rbt.Library>
libRbt.so (2013.1, Build901 2013/11/27)

>  <Rbt.Parameter_File>
/export/apps/rDock/src/rDock_2013.1_src/data/scripts/dock_solv.prm

>  <Rbt.Receptor>
prm/pocket_docking_8.prm

>  <SCORE>
-21.5232

>  <SCORE.INTER>
-16.5543

>  <SCORE.INTER.CONST>
1

>  <SCORE.INTER.POLAR>
0

>  <SCORE.INTER.ROT>
4

>  <SCORE.INTER.SOLV>
28.1086

>  <SCORE.INTER.VDW>
-26.6724

>  <SCORE.INTER.norm>
-0.71975

>  <SCORE.INTRA>
-4.96891

>  <SCORE.INTRA.DIHEDRAL>
-5.97179

>  <SCORE.INTRA.DIHEDRAL.0>
8.62657

>  <SCORE.INTRA.POLAR>
0

>  <SCORE.INTRA.POLAR.0>
0

>  <SCORE.INTRA.REPUL>
0

>  <SCORE.INTRA.REPUL.0>
0

>  <SCORE.INTRA.SOLV>
-0.778494

>  <SCORE.INTRA.SOLV.lig_0>
-66.3641

>  <SCORE.INTRA.VDW>
-1.59377

>  <SCORE.INTRA.VDW.0>
0.452231

>  <SCORE.INTRA.norm>
-0.216039

>  <SCORE.RESTR>
0

>  <SCORE.RESTR.CAVITY>
0

>  <SCORE.RESTR.norm>
0

>  <SCORE.SYSTEM>
0

>  <SCORE.SYSTEM.CONST>
0

>  <SCORE.SYSTEM.DIHEDRAL>
0

>  <SCORE.SYSTEM.SOLV>
0

>  <SCORE.SYSTEM.norm>
0

>  <SCORE.heavy>
23

>  <SCORE.norm>
-0.93579

>  <RMSD>
1.288

$$$$
ligand
 OpenBabel02271912143D
libRbt.so/2013.1/901 2013/11/27
 23 25  0  0  0  0  0  0  0  0999 V2000
   23.2121    0.7586   31.3974 P   0  0  1  0  0  0  0  0  0  0  0  0
   21.9483    2.7632   30.2841 C   0  0  0  0  0  0  0  0  0  0  0  0
   22.9348    1.7482   30.1597 O   0  0  0  0  0  0  0  0  0  0  0  0
   22.0956    3.6831   29.0930 C   0  0  1  0  0  0  0  0  0  0  0  0
   21.8632    3.0049   27.8589 O   0  0  0  0  0  0  0  0  0  0  0  0
   21.0812    4.8088   29.2041 C   0  0  1  0  0  0  0  0  0  0  0  0
   21.7604    6.0502   28.9475 O   0  0  0  0  0  0  0  0  0  0  0  0
   20.0253    4.5031   28.1492 C   0  0  0  0  0  0  0  0  0  0  0  0
   20.7253    3.5533   27.1809 C   0  0  2  0  0  0  0  0  0  0  0  0
   17.7043    1.3416   23.6434 N   0  0  0  0  0  0  0  0  0  0  0  0
   18.3720    2.5032   23.5513 C   0  0  2  0  0  0  0  0  0  0  0  0
   18.2692    3.2010   22.3962 N   0  0  0  0  0  0  0  0  0  0  0  0
   19.1311    2.9561   24.5781 N   0  0  0  0  0  0  0  0  0  0  0  0
   19.2184    2.2322   25.7131 C   0  0  2  0  0  0  0  0  0  0  0  0
   18.5378    1.0390   25.8242 C   0  0  1  0  0  0  0  0  0  0  0  0
   17.7765    0.5946   24.7600 C   0  0  0  0  0  0  0  0  0  0  0  0
   17.1567   -0.4881   24.8384 O   0  0  0  0  0  0  0  0  0  0  0  0
   18.7865    0.5280   27.0463 N   0  0  0  0  0  0  0  0  0  0  0  0
   19.6103    1.3830   27.6776 C   0  0  0  0  0  0  0  0  0  0  0  0
   19.8558    2.4156   26.8638 N   0  0  1  0  0  0  0  0  0  0  0  0
   21.8674    0.2887   31.8965 O   0  0  0  0  0  0  0  0  0  0  0  0
   24.0736   -0.3329   30.8050 O   0  5  0  0  0  0  0  0  0  0  0  0
   23.9387    1.6445   32.3729 O   0  0  0  0  0  0  0  0  0  0  0  0
  1  3  1  6  0  0  0
  1 21  1  0  0  0  0
  1 22  1  0  0  0  0
  1 23  2  0  0  0  0
  2  3  1  0  0  0  0
  4  2  1  1  0  0  0
  4  5  1  0  0  0  0
  4  6  1  0  0  0  0
  6  7  1  6  0  0  0
  6  8  1  0  0  0  0
  8  9  1  0  0  0  0
  9  5  1  1  0  0  0
  9 20  1  0  0  0  0
 10 11  1  0  0  0  0
 10 16  1  0  0  0  0
 11 12  1  6  0  0  0
 11 13  1  0  0  0  0
 14 13  1  1  0  0  0
 14 15  1  0  0  0  0
 14 20  1  0  0  0  0
 15 16  1  6  0  0  0
 15 18  1  0  0  0  0
 16 17  2  0  0  0  0
 18 19  1  0  0  0  0
 20 19  1  6  0  0  0
M  CHG  1  22  -1
M  END
>  <CHROM.1>
46.90699716,62.07487496,169.35812508,-137.51836270,20.67617113,2.09381285
27.90041696,0.23592139,0.92902717,2.88483323

>  <Name>
ligand

>  <RI>
416

>  <Rbt.Current_Directory>
/home/itssahil/PROJECTS/Mol_Feturizer/Test_systems_manuscript/rnas/3slm

>  <Rbt.Executable>
rbdock ($Id: //depot/dev/client3/rdock/2013.1/src/exe/rbdock.cxx#4 $)

>  <Rbt.Library>
libRbt.so (2013.1, Build901 2013/11/27)

>  <Rbt.Parameter_File>
/export/apps/rDock/src/rDock_2013.1_src/data/scripts/dock_solv.prm

>  <Rbt.Receptor>
prm/pocket_docking_4.prm

>  <SCORE>
-21.4065

>  <SCORE.INTER>
-15.824

>  <SCORE.INTER.CONST>
1

>  <SCORE.INTER.POLAR>
0

>  <SCORE.INTER.ROT>
4

>  <SCORE.INTER.SOLV>
25.6809

>  <SCORE.INTER.VDW>
-25.3763

>  <SCORE.INTER.norm>
-0.688001

>  <SCORE.INTRA>
-5.58252

>  <SCORE.INTRA.DIHEDRAL>
-6.56622

>  <SCORE.INTRA.DIHEDRAL.0>
8.62657

>  <SCORE.INTRA.POLAR>
0

>  <SCORE.INTRA.POLAR.0>
0

>  <SCORE.INTRA.REPUL>
0

>  <SCORE.INTRA.REPUL.0>
0

>  <SCORE.INTRA.SOLV>
-0.739068

>  <SCORE.INTRA.SOLV.lig_0>
-66.3641

>  <SCORE.INTRA.VDW>
-1.92987

>  <SCORE.INTRA.VDW.0>
0.452231

>  <SCORE.INTRA.norm>
-0.242718

>  <SCORE.RESTR>
0

>  <SCORE.RESTR.CAVITY>
0

>  <SCORE.RESTR.norm>
0

>  <SCORE.SYSTEM>
0

>  <SCORE.SYSTEM.CONST>
0

>  <SCORE.SYSTEM.DIHEDRAL>
0

>  <SCORE.SYSTEM.SOLV>
0

>  <SCORE.SYSTEM.norm>
0

>  <SCORE.heavy>
23

>  <SCORE.norm>
-0.930719

>  <RMSD>
1.296

$$$$
ligand
 OpenBabel02271912143D
libRbt.so/2013.1/901 2013/11/27
 23 25  0  0  0  0  0  0  0  0999 V2000
   23.5479    0.9668   31.2092 P   0  0  1  0  0  0  0  0  0  0  0  0
   21.4758    2.4013   30.4995 C   0  0  0  0  0  0  0  0  0  0  0  0
   22.0066    1.1117   30.7714 O   0  0  0  0  0  0  0  0  0  0  0  0
   22.1196    2.8936   29.2229 C   0  0  1  0  0  0  0  0  0  0  0  0
   21.8993    2.0007   28.1315 O   0  0  0  0  0  0  0  0  0  0  0  0
   21.5228    4.2403   28.8507 C   0  0  1  0  0  0  0  0  0  0  0  0
   22.6020    5.1342   28.5274 O   0  0  0  0  0  0  0  0  0  0  0  0
   20.6266    3.9641   27.6500 C   0  0  0  0  0  0  0  0  0  0  0  0
   21.1382    2.6368   27.0965 C   0  0  2  0  0  0  0  0  0  0  0  0
   17.5461    1.2500   23.6752 N   0  0  0  0  0  0  0  0  0  0  0  0
   18.4611    2.2267   23.5638 C   0  0  2  0  0  0  0  0  0  0  0  0
   18.4769    2.9500   22.4200 N   0  0  0  0  0  0  0  0  0  0  0  0
   19.3454    2.4726   24.5604 N   0  0  0  0  0  0  0  0  0  0  0  0
   19.3078    1.7277   25.6845 C   0  0  2  0  0  0  0  0  0  0  0  0
   18.3736    0.7230   25.8153 C   0  0  1  0  0  0  0  0  0  0  0  0
   17.4876    0.4865   24.7814 C   0  0  0  0  0  0  0  0  0  0  0  0
   16.6370   -0.4242   24.8777 O   0  0  0  0  0  0  0  0  0  0  0  0
   18.5458    0.1463   27.0211 N   0  0  0  0  0  0  0  0  0  0  0  0
   19.5705    0.7755   27.6231 C   0  0  0  0  0  0  0  0  0  0  0  0
   20.0162    1.7376   26.8080 N   0  0  1  0  0  0  0  0  0  0  0  0
   24.3771    1.0978   29.9548 O   0  0  0  0  0  0  0  0  0  0  0  0
   23.7490    2.0823   32.2089 O   0  5  0  0  0  0  0  0  0  0  0  0
   23.5913   -0.4092   31.8166 O   0  0  0  0  0  0  0  0  0  0  0  0
  1  3  1  6  0  0  0
  1 21  1  0  0  0  0
  1 22  1  0  0  0  0
  1 23  2  0  0  0  0
  2  3  1  0  0  0  0
  4  2  1  1  0  0  0
  4  5  1  0  0  0  0
  4  6  1  0  0  0  0
  6  7  1  6  0  0  0
  6  8  1  0  0  0  0
  8  9  1  0  0  0  0
  9  5  1  1  0  0  0
  9 20  1  0  0  0  0
 10 11  1  0  0  0  0
 10 16  1  0  0  0  0
 11 12  1  6  0  0  0
 11 13  1  0  0  0  0
 14 13  1  1  0  0  0
 14 15  1  0  0  0  0
 14 20  1  0  0  0  0
 15 16  1  6  0  0  0
 15 18  1  0  0  0  0
 16 17  2  0  0  0  0
 18 19  1  0  0  0  0
 20 19  1  6  0  0  0
M  CHG  1  22  -1
M  END
>  <CHROM.1>
-77.77277388,57.44962700,69.18007367,-158.81209532,20.80174538,1.78473032
27.82819379,0.41366356,0.82607081,2.57862316

>  <Name>
ligand

>  <RI>
416

>  <Rbt.Current_Directory>
/home/itssahil/PROJECTS/Mol_Feturizer/Test_systems_manuscript/rnas/3slm

>  <Rbt.Executable>
rbdock ($Id: //depot/dev/client3/rdock/2013.1/src/exe/rbdock.cxx#4 $)

>  <Rbt.Library>
libRbt.so (2013.1, Build901 2013/11/27)

>  <Rbt.Parameter_File>
/export/apps/rDock/src/rDock_2013.1_src/data/scripts/dock_solv.prm

>  <Rbt.Receptor>
prm/pocket_docking_2.prm

>  <SCORE>
-19.6475

>  <SCORE.INTER>
-15.0454

>  <SCORE.INTER.CONST>
1

>  <SCORE.INTER.POLAR>
0

>  <SCORE.INTER.ROT>
4

>  <SCORE.INTER.SOLV>
25.5032

>  <SCORE.INTER.VDW>
-24.798

>  <SCORE.INTER.norm>
-0.654146

>  <SCORE.INTRA>
-4.6339

>  <SCORE.INTRA.DIHEDRAL>
-6.48665

>  <SCORE.INTRA.DIHEDRAL.0>
8.62657

>  <SCORE.INTRA.POLAR>
0

>  <SCORE.INTRA.POLAR.0>
0

>  <SCORE.INTRA.REPUL>
0

>  <SCORE.INTRA.REPUL.0>
0

>  <SCORE.INTRA.SOLV>
0.715524

>  <SCORE.INTRA.SOLV.lig_0>
-66.3641

>  <SCORE.INTRA.VDW>
-1.74833

>  <SCORE.INTRA.VDW.0>
0.452231

>  <SCORE.INTRA.norm>
-0.201474

>  <SCORE.RESTR>
0.031729

>  <SCORE.RESTR.CAVITY>
0.031729

>  <SCORE.RESTR.norm>
0.00137952

>  <SCORE.SYSTEM>
0

>  <SCORE.SYSTEM.CONST>
0

>  <SCORE.SYSTEM.DIHEDRAL>
0

>  <SCORE.SYSTEM.SOLV>
0

>  <SCORE.SYSTEM.norm>
0

>  <SCORE.heavy>
23

>  <SCORE.norm>
-0.854241

>  <RMSD>
1.301

$$$$
ligand
 OpenBabel02271912143D
libRbt.so/2013.1/901 2013/11/27
 23 25  0  0  0  0  0  0  0  0999 V2000
   23.3715    1.3439   30.7506 P   0  0  1  0  0  0  0  0  0  0  0  0
   23.2864    3.5102   29.2825 C   0  0  0  0  0  0  0  0  0  0  0  0
   22.5732    2.4366   29.8805 O   0  0  0  0  0  0  0  0  0  0  0  0
   22.2702    4.5502   28.8674 C   0  0  1  0  0  0  0  0  0  0  0  0
   21.5211    4.1422   27.7231 O   0  0  0  0  0  0  0  0  0  0  0  0
   21.2924    4.7751   30.0083 C   0  0  1  0  0  0  0  0  0  0  0  0
   21.1434    6.1929   30.1972 O   0  0  0  0  0  0  0  0  0  0  0  0
   19.9941    4.1158   29.5600 C   0  0  0  0  0  0  0  0  0  0  0  0
   20.1299    4.0111   28.0433 C   0  0  2  0  0  0  0  0  0  0  0  0
   18.2462    1.2122   24.1511 N   0  0  0  0  0  0  0  0  0  0  0  0
   18.4639    2.5369   24.1876 C   0  0  2  0  0  0  0  0  0  0  0  0
   18.1731    3.2557   23.0784 N   0  0  0  0  0  0  0  0  0  0  0  0
   18.9675    3.1318   25.2959 N   0  0  0  0  0  0  0  0  0  0  0  0
   19.2540    2.3850   26.3822 C   0  0  2  0  0  0  0  0  0  0  0  0
   19.0345    1.0247   26.3615 C   0  0  1  0  0  0  0  0  0  0  0  0
   18.5276    0.4402   25.2164 C   0  0  0  0  0  0  0  0  0  0  0  0
   18.3274   -0.7929   25.1750 O   0  0  0  0  0  0  0  0  0  0  0  0
   19.3927    0.5249   27.5607 N   0  0  0  0  0  0  0  0  0  0  0  0
   19.8324    1.5531   28.3076 C   0  0  0  0  0  0  0  0  0  0  0  0
   19.7334    2.6751   27.5864 N   0  0  1  0  0  0  0  0  0  0  0  0
   24.0589    2.0877   31.8698 O   0  0  0  0  0  0  0  0  0  0  0  0
   22.2958    0.3854   31.2072 O   0  5  0  0  0  0  0  0  0  0  0  0
   24.3252    0.7544   29.7469 O   0  0  0  0  0  0  0  0  0  0  0  0
  1  3  1  6  0  0  0
  1 21  1  0  0  0  0
  1 22  1  0  0  0  0
  1 23  2  0  0  0  0
  2  3  1  0  0  0  0
  4  2  1  1  0  0  0
  4  5  1  0  0  0  0
  4  6  1  0  0  0  0
  6  7  1  6  0  0  0
  6  8  1  0  0  0  0
  8  9  1  0  0  0  0
  9  5  1  1  0  0  0
  9 20  1  0  0  0  0
 10 11  1  0  0  0  0
 10 16  1  0  0  0  0
 11 12  1  6  0  0  0
 11 13  1  0  0  0  0
 14 13  1  1  0  0  0
 14 15  1  0  0  0  0
 14 20  1  0  0  0  0
 15 16  1  6  0  0  0
 15 18  1  0  0  0  0
 16 17  2  0  0  0  0
 18 19  1  0  0  0  0
 20 19  1  6  0  0  0
M  CHG  1  22  -1
M  END
>  <CHROM.1>
58.70009562,-73.30378589,-164.91090174,-90.57387098,20.85506474,2.38747662
28.09571151,-0.20767855,0.88653607,-3.01144552

>  <Name>
ligand

>  <RI>
0

>  <Rbt.Current_Directory>
/home/itssahil/PROJECTS/Mol_Feturizer/Test_systems_manuscript/rnas/3slm

>  <Rbt.Executable>
rbdock ($Id: //depot/dev/client3/rdock/2013.1/src/exe/rbdock.cxx#4 $)

>  <Rbt.Library>
libRbt.so (2013.1, Build901 2013/11/27)

>  <Rbt.Parameter_File>
/export/apps/rDock/src/rDock_2013.1_src/data/scripts/dock_solv.prm

>  <Rbt.Receptor>
prm/pocket_docking_8.prm

>  <SCORE>
-19.6875

>  <SCORE.INTER>
-15.3992

>  <SCORE.INTER.CONST>
1

>  <SCORE.INTER.POLAR>
0

>  <SCORE.INTER.ROT>
4

>  <SCORE.INTER.SOLV>
22.2166

>  <SCORE.INTER.VDW>
-23.9384

>  <SCORE.INTER.norm>
-0.669532

>  <SCORE.INTRA>
-4.28823

>  <SCORE.INTRA.DIHEDRAL>
-5.80371

>  <SCORE.INTRA.DIHEDRAL.0>
8.62657

>  <SCORE.INTRA.POLAR>
0

>  <SCORE.INTRA.POLAR.0>
0

>  <SCORE.INTRA.REPUL>
0

>  <SCORE.INTRA.REPUL.0>
0

>  <SCORE.INTRA.SOLV>
-0.262068

>  <SCORE.INTRA.SOLV.lig_0>
-66.3641

>  <SCORE.INTRA.VDW>
-1.25534

>  <SCORE.INTRA.VDW.0>
0.452231

>  <SCORE.INTRA.norm>
-0.186445

>  <SCORE.RESTR>
0

>  <SCORE.RESTR.CAVITY>
0

>  <SCORE.RESTR.norm>
0

>  <SCORE.SYSTEM>
0

>  <SCORE.SYSTEM.CONST>
0

>  <SCORE.SYSTEM.DIHEDRAL>
0

>  <SCORE.SYSTEM.SOLV>
0

>  <SCORE.SYSTEM.norm>
0

>  <SCORE.heavy>
23

>  <SCORE.norm>
-0.855977

>  <RMSD>
1.306

$$$$
ligand
 OpenBabel02271912143D
libRbt.so/2013.1/901 2013/11/27
 23 25  0  0  0  0  0  0  0  0999 V2000
   24.4269    1.3347   29.0720 P   0  0  1  0  0  0  0  0  0  0  0  0
   22.0327    2.1093   29.7954 C   0  0  0  0  0  0  0  0  0  0  0  0
   22.8693    1.0485   29.3554 O   0  0  0  0  0  0  0  0  0  0  0  0
   22.0321    3.1623   28.7103 C   0  0  1  0  0  0  0  0  0  0  0  0
   21.6549    2.6265   27.4424 O   0  0  0  0  0  0  0  0  0  0  0  0
   21.0346    4.2500   29.0717 C   0  0  1  0  0  0  0  0  0  0  0  0
   21.6735    5.5243   28.8818 O   0  0  0  0  0  0  0  0  0  0  0  0
   19.8602    4.0492   28.1221 C   0  0  0  0  0  0  0  0  0  0  0  0
   20.4416    3.2293   26.9734 C   0  0  2  0  0  0  0  0  0  0  0  0
   17.3989    1.1483   23.3757 N   0  0  0  0  0  0  0  0  0  0  0  0
   18.0998    2.2918   23.3057 C   0  0  2  0  0  0  0  0  0  0  0  0
   18.0292    3.0067   22.1588 N   0  0  0  0  0  0  0  0  0  0  0  0
   18.8600    2.7101   24.3464 N   0  0  0  0  0  0  0  0  0  0  0  0
   18.9146    1.9697   25.4726 C   0  0  2  0  0  0  0  0  0  0  0  0
   18.1998    0.7948   25.5611 C   0  0  1  0  0  0  0  0  0  0  0  0
   17.4380    0.3854   24.4832 C   0  0  0  0  0  0  0  0  0  0  0  0
   16.7874   -0.6803   24.5409 O   0  0  0  0  0  0  0  0  0  0  0  0
   18.4206    0.2615   26.7790 N   0  0  0  0  0  0  0  0  0  0  0  0
   19.2611    1.0850   27.4300 C   0  0  0  0  0  0  0  0  0  0  0  0
   19.5442    2.1205   26.6324 N   0  0  1  0  0  0  0  0  0  0  0  0
   24.8206    2.5163   29.9245 O   0  0  0  0  0  0  0  0  0  0  0  0
   25.1094    0.0396   29.4477 O   0  5  0  0  0  0  0  0  0  0  0  0
   24.4464    1.6262   27.5958 O   0  0  0  0  0  0  0  0  0  0  0  0
  1  3  1  1  0  0  0
  1 21  1  0  0  0  0
  1 22  1  0  0  0  0
  1 23  2  0  0  0  0
  2  3  1  0  0  0  0
  4  2  1  1  0  0  0
  4  5  1  0  0  0  0
  4  6  1  0  0  0  0
  6  7  1  6  0  0  0
  6  8  1  0  0  0  0
  8  9  1  0  0  0  0
  9  5  1  1  0  0  0
  9 20  1  0  0  0  0
 10 11  1  0  0  0  0
 10 16  1  0  0  0  0
 11 12  1  6  0  0  0
 11 13  1  0  0  0  0
 14 13  1  1  0  0  0
 14 15  1  0  0  0  0
 14 20  1  0  0  0  0
 15 16  1  6  0  0  0
 15 18  1  0  0  0  0
 16 17  2  0  0  0  0
 18 19  1  0  0  0  0
 20 19  1  6  0  0  0
M  CHG  1  22  -1
M  END
>  <CHROM.1>
25.81248982,54.63524191,61.51470321,-127.69540901,20.82747230,1.99133126
27.08812619,-0.22759923,0.66585498,-2.90574682

>  <Name>
ligand

>  <RI>
0

>  <Rbt.Current_Directory>
/home/itssahil/PROJECTS/Mol_Feturizer/Test_systems_manuscript/rnas/3slm

>  <Rbt.Executable>
rbdock ($Id: //depot/dev/client3/rdock/2013.1/src/exe/rbdock.cxx#4 $)

>  <Rbt.Library>
libRbt.so (2013.1, Build901 2013/11/27)

>  <Rbt.Parameter_File>
/export/apps/rDock/src/rDock_2013.1_src/data/scripts/dock_solv.prm

>  <Rbt.Receptor>
prm/pocket_docking_3.prm

>  <SCORE>
-21.0487

>  <SCORE.INTER>
-17.2329

>  <SCORE.INTER.CONST>
1

>  <SCORE.INTER.POLAR>
0

>  <SCORE.INTER.ROT>
4

>  <SCORE.INTER.SOLV>
23.3346

>  <SCORE.INTER.VDW>
-25.5335

>  <SCORE.INTER.norm>
-0.749258

>  <SCORE.INTRA>
-3.8158

>  <SCORE.INTRA.DIHEDRAL>
-5.85812

>  <SCORE.INTRA.DIHEDRAL.0>
8.62657

>  <SCORE.INTRA.POLAR>
0

>  <SCORE.INTRA.POLAR.0>
0

>  <SCORE.INTRA.REPUL>
0

>  <SCORE.INTRA.REPUL.0>
0

>  <SCORE.INTRA.SOLV>
1.60303

>  <SCORE.INTRA.SOLV.lig_0>
-66.3641

>  <SCORE.INTRA.VDW>
-1.68826

>  <SCORE.INTRA.VDW.0>
0.452231

>  <SCORE.INTRA.norm>
-0.165904

>  <SCORE.RESTR>
0

>  <SCORE.RESTR.CAVITY>
0

>  <SCORE.RESTR.norm>
0

>  <SCORE.SYSTEM>
0

>  <SCORE.SYSTEM.CONST>
0

>  <SCORE.SYSTEM.DIHEDRAL>
0

>  <SCORE.SYSTEM.SOLV>
0

>  <SCORE.SYSTEM.norm>
0

>  <SCORE.heavy>
23

>  <SCORE.norm>
-0.915162

>  <RMSD>
1.309

$$$$
ligand
 OpenBabel02271912143D
libRbt.so/2013.1/901 2013/11/27
 23 25  0  0  0  0  0  0  0  0999 V2000
   23.0807    1.6236   31.8352 P   0  0  1  0  0  0  0  0  0  0  0  0
   22.5914    2.0163   29.2932 C   0  0  0  0  0  0  0  0  0  0  0  0
   23.0042    2.5687   30.5355 O   0  0  0  0  0  0  0  0  0  0  0  0
   22.4600    3.1601   28.3129 C   0  0  1  0  0  0  0  0  0  0  0  0
   21.9055    2.7387   27.0672 O   0  0  0  0  0  0  0  0  0  0  0  0
   21.5384    4.2161   28.8996 C   0  0  1  0  0  0  0  0  0  0  0  0
   22.1659    5.4995   28.7343 O   0  0  0  0  0  0  0  0  0  0  0  0
   20.2428    4.1038   28.1059 C   0  0  0  0  0  0  0  0  0  0  0  0
   20.6495    3.3850   26.8222 C   0  0  2  0  0  0  0  0  0  0  0  0
   17.4935    1.3638   23.2886 N   0  0  0  0  0  0  0  0  0  0  0  0
   18.2505    2.4684   23.1863 C   0  0  2  0  0  0  0  0  0  0  0  0
   18.2117    3.1551   22.0207 N   0  0  0  0  0  0  0  0  0  0  0  0
   19.0344    2.8757   24.2136 N   0  0  0  0  0  0  0  0  0  0  0  0
   19.0559    2.1639   25.3593 C   0  0  2  0  0  0  0  0  0  0  0  0
   18.2835    1.0291   25.4809 C   0  0  1  0  0  0  0  0  0  0  0  0
   17.4983    0.6298   24.4161 C   0  0  0  0  0  0  0  0  0  0  0  0
   16.7954   -0.4000   24.5040 O   0  0  0  0  0  0  0  0  0  0  0  0
   18.4817    0.5182   26.7122 N   0  0  0  0  0  0  0  0  0  0  0  0
   19.3647    1.3156   27.3390 C   0  0  0  0  0  0  0  0  0  0  0  0
   19.6965    2.3140   26.5132 N   0  0  1  0  0  0  0  0  0  0  0  0
   24.2090    0.6478   31.6053 O   0  0  0  0  0  0  0  0  0  0  0  0
   23.3135    2.5891   32.9743 O   0  5  0  0  0  0  0  0  0  0  0  0
   21.7221    0.9769   31.8543 O   0  0  0  0  0  0  0  0  0  0  0  0
  1  3  1  6  0  0  0
  1 21  1  0  0  0  0
  1 22  1  0  0  0  0
  1 23  2  0  0  0  0
  2  3  1  0  0  0  0
  4  2  1  1  0  0  0
  4  5  1  0  0  0  0
  4  6  1  0  0  0  0
  6  7  1  6  0  0  0
  6  8  1  0  0  0  0
  8  9  1  0  0  0  0
  9  5  1  1  0  0  0
  9 20  1  0  0  0  0
 10 11  1  0  0  0  0
 10 16  1  0  0  0  0
 11 12  1  6  0  0  0
 11 13  1  0  0  0  0
 14 13  1  1  0  0  0
 14 15  1  0  0  0  0
 14 20  1  0  0  0  0
 15 16  1  6  0  0  0
 15 18  1  0  0  0  0
 16 17  2  0  0  0  0
 18 19  1  0  0  0  0
 20 19  1  6  0  0  0
M  CHG  1  22  -1
M  END
>  <CHROM.1>
68.06832582,-173.48305210,173.41151028,-117.35963890,20.63406038,2.18939890
27.72615445,0.49981542,0.87284480,2.45879571

>  <Name>
ligand

>  <RI>
0

>  <Rbt.Current_Directory>
/home/itssahil/PROJECTS/Mol_Feturizer/Test_systems_manuscript/rnas/3slm

>  <Rbt.Executable>
rbdock ($Id: //depot/dev/client3/rdock/2013.1/src/exe/rbdock.cxx#4 $)

>  <Rbt.Library>
libRbt.so (2013.1, Build901 2013/11/27)

>  <Rbt.Parameter_File>
/export/apps/rDock/src/rDock_2013.1_src/data/scripts/dock_solv.prm

>  <Rbt.Receptor>
prm/pocket_docking_3.prm

>  <SCORE>
-21.2405

>  <SCORE.INTER>
-16.2942

>  <SCORE.INTER.CONST>
1

>  <SCORE.INTER.POLAR>
0

>  <SCORE.INTER.ROT>
4

>  <SCORE.INTER.SOLV>
29.5336

>  <SCORE.INTER.VDW>
-26.974

>  <SCORE.INTER.norm>
-0.708444

>  <SCORE.INTRA>
-4.94631

>  <SCORE.INTRA.DIHEDRAL>
-6.94538

>  <SCORE.INTRA.DIHEDRAL.0>
8.62657

>  <SCORE.INTRA.POLAR>
0

>  <SCORE.INTRA.POLAR.0>
0

>  <SCORE.INTRA.REPUL>
0

>  <SCORE.INTRA.REPUL.0>
0

>  <SCORE.INTRA.SOLV>
-0.222028

>  <SCORE.INTRA.SOLV.lig_0>
-66.3641

>  <SCORE.INTRA.VDW>
-1.36261

>  <SCORE.INTRA.VDW.0>
0.452231

>  <SCORE.INTRA.norm>
-0.215057

>  <SCORE.RESTR>
0

>  <SCORE.RESTR.CAVITY>
0

>  <SCORE.RESTR.norm>
0

>  <SCORE.SYSTEM>
0

>  <SCORE.SYSTEM.CONST>
0

>  <SCORE.SYSTEM.DIHEDRAL>
0

>  <SCORE.SYSTEM.SOLV>
0

>  <SCORE.SYSTEM.norm>
0

>  <SCORE.heavy>
23

>  <SCORE.norm>
-0.923501

>  <RMSD>
1.314

$$$$
ligand
 OpenBabel02271912143D
libRbt.so/2013.1/901 2013/11/27
 23 25  0  0  0  0  0  0  0  0999 V2000
   23.1814    2.0617   31.9565 P   0  0  1  0  0  0  0  0  0  0  0  0
   22.7558    2.3679   29.3913 C   0  0  0  0  0  0  0  0  0  0  0  0
   23.1439    2.9607   30.6228 O   0  0  0  0  0  0  0  0  0  0  0  0
   22.5758    3.4864   28.3898 C   0  0  1  0  0  0  0  0  0  0  0  0
   22.0287    3.0202   27.1568 O   0  0  0  0  0  0  0  0  0  0  0  0
   21.6201    4.5194   28.9625 C   0  0  1  0  0  0  0  0  0  0  0  0
   22.1988    5.8214   28.7674 O   0  0  0  0  0  0  0  0  0  0  0  0
   20.3241    4.3439   28.1810 C   0  0  0  0  0  0  0  0  0  0  0  0
   20.7481    3.6151   26.9087 C   0  0  2  0  0  0  0  0  0  0  0  0
   17.6725    1.3899   23.4272 N   0  0  0  0  0  0  0  0  0  0  0  0
   18.3916    2.5165   23.2955 C   0  0  2  0  0  0  0  0  0  0  0  0
   18.3326    3.1688   22.1112 N   0  0  0  0  0  0  0  0  0  0  0  0
   19.1584    2.9787   24.3124 N   0  0  0  0  0  0  0  0  0  0  0  0
   19.2011    2.3001   25.4775 C   0  0  2  0  0  0  0  0  0  0  0  0
   18.4675    1.1434   25.6294 C   0  0  1  0  0  0  0  0  0  0  0  0
   17.6992    0.6881   24.5747 C   0  0  0  0  0  0  0  0  0  0  0  0
   17.0316   -0.3623   24.6899 O   0  0  0  0  0  0  0  0  0  0  0  0
   18.6797    0.6740   26.8747 N   0  0  0  0  0  0  0  0  0  0  0  0
   19.5332    1.5182   27.4806 C   0  0  0  0  0  0  0  0  0  0  0  0
   19.8330    2.5040   26.6279 N   0  0  1  0  0  0  0  0  0  0  0  0
   23.5007    2.9883   33.1044 O   0  0  0  0  0  0  0  0  0  0  0  0
   21.8034    1.4441   32.0183 O   0  5  0  0  0  0  0  0  0  0  0  0
   24.2774    1.0744   31.6591 O   0  0  0  0  0  0  0  0  0  0  0  0
  1  3  1  6  0  0  0
  1 21  1  0  0  0  0
  1 22  1  0  0  0  0
  1 23  2  0  0  0  0
  2  3  1  0  0  0  0
  4  2  1  1  0  0  0
  4  5  1  0  0  0  0
  4  6  1  0  0  0  0
  6  7  1  6  0  0  0
  6  8  1  0  0  0  0
  8  9  1  0  0  0  0
  9  5  1  1  0  0  0
  9 20  1  0  0  0  0
 10 11  1  0  0  0  0
 10 16  1  0  0  0  0
 11 12  1  6  0  0  0
 11 13  1  0  0  0  0
 14 13  1  1  0  0  0
 14 15  1  0  0  0  0
 14 20  1  0  0  0  0
 15 16  1  6  0  0  0
 15 18  1  0  0  0  0
 16 17  2  0  0  0  0
 18 19  1  0  0  0  0
 20 19  1  6  0  0  0
M  CHG  1  22  -1
M  END
>  <CHROM.1>
-174.86871183,-172.92719187,170.03585142,-116.63470985,20.76642677,2.43587596
27.83677703,0.47146184,0.89234690,2.44941169

>  <Name>
ligand

>  <RI>
416

>  <Rbt.Current_Directory>
/home/itssahil/PROJECTS/Mol_Feturizer/Test_systems_manuscript/rnas/3slm

>  <Rbt.Executable>
rbdock ($Id: //depot/dev/client3/rdock/2013.1/src/exe/rbdock.cxx#4 $)

>  <Rbt.Library>
libRbt.so (2013.1, Build901 2013/11/27)

>  <Rbt.Parameter_File>
/export/apps/rDock/src/rDock_2013.1_src/data/scripts/dock_solv.prm

>  <Rbt.Receptor>
prm/pocket_docking_6.prm

>  <SCORE>
-24.0315

>  <SCORE.INTER>
-19.511

>  <SCORE.INTER.CONST>
1

>  <SCORE.INTER.POLAR>
0

>  <SCORE.INTER.ROT>
4

>  <SCORE.INTER.SOLV>
27.2742

>  <SCORE.INTER.VDW>
-28.3654

>  <SCORE.INTER.norm>
-0.848306

>  <SCORE.INTRA>
-4.52539

>  <SCORE.INTRA.DIHEDRAL>
-6.7211

>  <SCORE.INTRA.DIHEDRAL.0>
8.62657

>  <SCORE.INTRA.POLAR>
0

>  <SCORE.INTRA.POLAR.0>
0

>  <SCORE.INTRA.REPUL>
0

>  <SCORE.INTRA.REPUL.0>
0

>  <SCORE.INTRA.SOLV>
0.36138

>  <SCORE.INTRA.SOLV.lig_0>
-66.3641

>  <SCORE.INTRA.VDW>
-1.34553

>  <SCORE.INTRA.VDW.0>
0.452231

>  <SCORE.INTRA.norm>
-0.196756

>  <SCORE.RESTR>
0.00493792

>  <SCORE.RESTR.CAVITY>
0.00493792

>  <SCORE.RESTR.norm>
0.000214692

>  <SCORE.SYSTEM>
0

>  <SCORE.SYSTEM.CONST>
0

>  <SCORE.SYSTEM.DIHEDRAL>
0

>  <SCORE.SYSTEM.SOLV>
0

>  <SCORE.SYSTEM.norm>
0

>  <SCORE.heavy>
23

>  <SCORE.norm>
-1.04485

>  <RMSD>
1.323

$$$$
ligand
 OpenBabel02271912143D
libRbt.so/2013.1/901 2013/11/27
 23 25  0  0  0  0  0  0  0  0999 V2000
   23.1902    2.0489   31.9728 P   0  0  1  0  0  0  0  0  0  0  0  0
   22.7093    2.3823   29.4208 C   0  0  0  0  0  0  0  0  0  0  0  0
   23.1694    2.9492   30.6397 O   0  0  0  0  0  0  0  0  0  0  0  0
   22.5121    3.5177   28.4419 C   0  0  1  0  0  0  0  0  0  0  0  0
   21.9887    3.0656   27.1935 O   0  0  0  0  0  0  0  0  0  0  0  0
   21.5259    4.5146   29.0268 C   0  0  1  0  0  0  0  0  0  0  0  0
   22.0746    5.8341   28.8659 O   0  0  0  0  0  0  0  0  0  0  0  0
   20.2424    4.3251   28.2282 C   0  0  0  0  0  0  0  0  0  0  0  0
   20.6966    3.6347   26.9449 C   0  0  2  0  0  0  0  0  0  0  0  0
   17.6965    1.4221   23.3902 N   0  0  0  0  0  0  0  0  0  0  0  0
   18.3872    2.5696   23.2915 C   0  0  2  0  0  0  0  0  0  0  0  0
   18.3175    3.2504   22.1239 N   0  0  0  0  0  0  0  0  0  0  0  0
   19.1368    3.0249   24.3243 N   0  0  0  0  0  0  0  0  0  0  0  0
   19.1910    2.3180   25.4718 C   0  0  2  0  0  0  0  0  0  0  0  0
   18.4864    1.1395   25.5899 C   0  0  1  0  0  0  0  0  0  0  0  0
   17.7354    0.6920   24.5196 C   0  0  0  0  0  0  0  0  0  0  0  0
   17.0943   -0.3777   24.6042 O   0  0  0  0  0  0  0  0  0  0  0  0
   18.7043    0.6438   26.8240 N   0  0  0  0  0  0  0  0  0  0  0  0
   19.5329    1.4936   27.4561 C   0  0  0  0  0  0  0  0  0  0  0  0
   19.8116    2.5082   26.6306 N   0  0  1  0  0  0  0  0  0  0  0  0
   23.5008    2.9734   33.1248 O   0  0  0  0  0  0  0  0  0  0  0  0
   21.8096    1.4359   32.0199 O   0  5  0  0  0  0  0  0  0  0  0  0
   24.2859    1.0582   31.6858 O   0  0  0  0  0  0  0  0  0  0  0  0
  1  3  1  6  0  0  0
  1 21  1  0  0  0  0
  1 22  1  0  0  0  0
  1 23  2  0  0  0  0
  2  3  1  0  0  0  0
  4  2  1  1  0  0  0
  4  5  1  0  0  0  0
  4  6  1  0  0  0  0
  6  7  1  6  0  0  0
  6  8  1  0  0  0  0
  8  9  1  0  0  0  0
  9  5  1  1  0  0  0
  9 20  1  0  0  0  0
 10 11  1  0  0  0  0
 10 16  1  0  0  0  0
 11 12  1  6  0  0  0
 11 13  1  0  0  0  0
 14 13  1  1  0  0  0
 14 15  1  0  0  0  0
 14 20  1  0  0  0  0
 15 16  1  6  0  0  0
 15 18  1  0  0  0  0
 16 17  2  0  0  0  0
 18 19  1  0  0  0  0
 20 19  1  6  0  0  0
M  CHG  1  22  -1
M  END
>  <CHROM.1>
-170.80809611,-177.29277923,167.61653578,-116.99661596,20.75208837,2.44306068
27.84564522,0.43370870,0.91264514,2.50505453

>  <Name>
ligand

>  <RI>
416

>  <Rbt.Current_Directory>
/home/itssahil/PROJECTS/Mol_Feturizer/Test_systems_manuscript/rnas/3slm

>  <Rbt.Executable>
rbdock ($Id: //depot/dev/client3/rdock/2013.1/src/exe/rbdock.cxx#4 $)

>  <Rbt.Library>
libRbt.so (2013.1, Build901 2013/11/27)

>  <Rbt.Parameter_File>
/export/apps/rDock/src/rDock_2013.1_src/data/scripts/dock_solv.prm

>  <Rbt.Receptor>
prm/pocket_docking_4.prm

>  <SCORE>
-23.9269

>  <SCORE.INTER>
-19.4309

>  <SCORE.INTER.CONST>
1

>  <SCORE.INTER.POLAR>
0

>  <SCORE.INTER.ROT>
4

>  <SCORE.INTER.SOLV>
27.1799

>  <SCORE.INTER.VDW>
-28.2806

>  <SCORE.INTER.norm>
-0.844823

>  <SCORE.INTRA>
-4.52132

>  <SCORE.INTRA.DIHEDRAL>
-6.52181

>  <SCORE.INTRA.DIHEDRAL.0>
8.62657

>  <SCORE.INTRA.POLAR>
0

>  <SCORE.INTRA.POLAR.0>
0

>  <SCORE.INTRA.REPUL>
0

>  <SCORE.INTRA.REPUL.0>
0

>  <SCORE.INTRA.SOLV>
0.373877

>  <SCORE.INTRA.SOLV.lig_0>
-66.3641

>  <SCORE.INTRA.VDW>
-1.44735

>  <SCORE.INTRA.VDW.0>
0.452231

>  <SCORE.INTRA.norm>
-0.196579

>  <SCORE.RESTR>
0.0253971

>  <SCORE.RESTR.CAVITY>
0.0253971

>  <SCORE.RESTR.norm>
0.00110422

>  <SCORE.SYSTEM>
0

>  <SCORE.SYSTEM.CONST>
0

>  <SCORE.SYSTEM.DIHEDRAL>
0

>  <SCORE.SYSTEM.SOLV>
0

>  <SCORE.SYSTEM.norm>
0

>  <SCORE.heavy>
23

>  <SCORE.norm>
-1.0403

>  <RMSD>
1.327

$$$$
ligand
 OpenBabel02271912143D
libRbt.so/2013.1/901 2013/11/27
 23 25  0  0  0  0  0  0  0  0999 V2000
   23.0300    1.6190   31.8318 P   0  0  1  0  0  0  0  0  0  0  0  0
   22.5560    2.0749   29.2974 C   0  0  0  0  0  0  0  0  0  0  0  0
   22.9258    2.6033   30.5635 O   0  0  0  0  0  0  0  0  0  0  0  0
   22.4034    3.2426   28.3490 C   0  0  1  0  0  0  0  0  0  0  0  0
   21.8802    2.8414   27.0832 O   0  0  0  0  0  0  0  0  0  0  0  0
   21.4411    4.2521   28.9519 C   0  0  1  0  0  0  0  0  0  0  0  0
   22.0307    5.5584   28.8337 O   0  0  0  0  0  0  0  0  0  0  0  0
   20.1612    4.1237   28.1355 C   0  0  0  0  0  0  0  0  0  0  0  0
   20.6084    3.4559   26.8379 C   0  0  2  0  0  0  0  0  0  0  0  0
   17.5942    1.4262   23.1873 N   0  0  0  0  0  0  0  0  0  0  0  0
   18.3216    2.5536   23.1269 C   0  0  2  0  0  0  0  0  0  0  0  0
   18.2905    3.2645   21.9757 N   0  0  0  0  0  0  0  0  0  0  0  0
   19.0696    2.9597   24.1811 N   0  0  0  0  0  0  0  0  0  0  0  0
   19.0847    2.2235   25.3114 C   0  0  2  0  0  0  0  0  0  0  0  0
   18.3422    1.0652   25.3902 C   0  0  1  0  0  0  0  0  0  0  0  0
   17.5936    0.6679   24.2986 C   0  0  0  0  0  0  0  0  0  0  0  0
   16.9184   -0.3829   24.3475 O   0  0  0  0  0  0  0  0  0  0  0  0
   18.5262    0.5329   26.6145 N   0  0  0  0  0  0  0  0  0  0  0  0
   19.3713    1.3405   27.2792 C   0  0  0  0  0  0  0  0  0  0  0  0
   19.6937    2.3658   26.4832 N   0  0  1  0  0  0  0  0  0  0  0  0
   24.2342    0.7370   31.6080 O   0  0  0  0  0  0  0  0  0  0  0  0
   23.1540    2.5563   33.0109 O   0  5  0  0  0  0  0  0  0  0  0  0
   21.7230    0.8750   31.7813 O   0  0  0  0  0  0  0  0  0  0  0  0
  1  3  1  6  0  0  0
  1 21  1  0  0  0  0
  1 22  1  0  0  0  0
  1 23  2  0  0  0  0
  2  3  1  0  0  0  0
  4  2  1  1  0  0  0
  4  5  1  0  0  0  0
  4  6  1  0  0  0  0
  6  7  1  6  0  0  0
  6  8  1  0  0  0  0
  8  9  1  0  0  0  0
  9  5  1  1  0  0  0
  9 20  1  0  0  0  0
 10 11  1  0  0  0  0
 10 16  1  0  0  0  0
 11 12  1  6  0  0  0
 11 13  1  0  0  0  0
 14 13  1  1  0  0  0
 14 15  1  0  0  0  0
 14 20  1  0  0  0  0
 15 16  1  6  0  0  0
 15 18  1  0  0  0  0
 16 17  2  0  0  0  0
 18 19  1  0  0  0  0
 20 19  1  6  0  0  0
M  CHG  1  22  -1
M  END
>  <CHROM.1>
69.94322216,-173.14377589,174.23344805,-116.68554806,20.62516903,2.22924436
27.70314415,0.47681976,0.90495489,2.50462362

>  <Name>
ligand

>  <RI>
0

>  <Rbt.Current_Directory>
/home/itssahil/PROJECTS/Mol_Feturizer/Test_systems_manuscript/rnas/3slm

>  <Rbt.Executable>
rbdock ($Id: //depot/dev/client3/rdock/2013.1/src/exe/rbdock.cxx#4 $)

>  <Rbt.Library>
libRbt.so (2013.1, Build901 2013/11/27)

>  <Rbt.Parameter_File>
/export/apps/rDock/src/rDock_2013.1_src/data/scripts/dock_solv.prm

>  <Rbt.Receptor>
prm/pocket_docking_3.prm

>  <SCORE>
-21.2757

>  <SCORE.INTER>
-16.3867

>  <SCORE.INTER.CONST>
1

>  <SCORE.INTER.POLAR>
0

>  <SCORE.INTER.ROT>
4

>  <SCORE.INTER.SOLV>
29.4926

>  <SCORE.INTER.VDW>
-27.022

>  <SCORE.INTER.norm>
-0.712463

>  <SCORE.INTRA>
-4.88908

>  <SCORE.INTRA.DIHEDRAL>
-6.92418

>  <SCORE.INTRA.DIHEDRAL.0>
8.62657

>  <SCORE.INTRA.POLAR>
0

>  <SCORE.INTRA.POLAR.0>
0

>  <SCORE.INTRA.REPUL>
0

>  <SCORE.INTRA.REPUL.0>
0

>  <SCORE.INTRA.SOLV>
-0.224856

>  <SCORE.INTRA.SOLV.lig_0>
-66.3641

>  <SCORE.INTRA.VDW>
-1.31456

>  <SCORE.INTRA.VDW.0>
0.452231

>  <SCORE.INTRA.norm>
-0.212569

>  <SCORE.RESTR>
0

>  <SCORE.RESTR.CAVITY>
0

>  <SCORE.RESTR.norm>
0

>  <SCORE.SYSTEM>
0

>  <SCORE.SYSTEM.CONST>
0

>  <SCORE.SYSTEM.DIHEDRAL>
0

>  <SCORE.SYSTEM.SOLV>
0

>  <SCORE.SYSTEM.norm>
0

>  <SCORE.heavy>
23

>  <SCORE.norm>
-0.925032

>  <RMSD>
1.332

$$$$
ligand
 OpenBabel02271912143D
libRbt.so/2013.1/901 2013/11/27
 23 25  0  0  0  0  0  0  0  0999 V2000
   23.2371    2.0378   31.9681 P   0  0  1  0  0  0  0  0  0  0  0  0
   22.8137    2.3499   29.4032 C   0  0  0  0  0  0  0  0  0  0  0  0
   23.2776    2.9163   30.6209 O   0  0  0  0  0  0  0  0  0  0  0  0
   22.6286    3.4840   28.4204 C   0  0  1  0  0  0  0  0  0  0  0  0
   22.0767    3.0371   27.1825 O   0  0  0  0  0  0  0  0  0  0  0  0
   21.6744    4.5069   29.0135 C   0  0  1  0  0  0  0  0  0  0  0  0
   22.2512    5.8123   28.8368 O   0  0  0  0  0  0  0  0  0  0  0  0
   20.3753    4.3428   28.2347 C   0  0  0  0  0  0  0  0  0  0  0  0
   20.7946    3.6347   26.9492 C   0  0  2  0  0  0  0  0  0  0  0  0
   17.7088    1.4608   23.4444 N   0  0  0  0  0  0  0  0  0  0  0  0
   18.4268    2.5897   23.3275 C   0  0  2  0  0  0  0  0  0  0  0  0
   18.3635    3.2600   22.1535 N   0  0  0  0  0  0  0  0  0  0  0  0
   19.1967    3.0369   24.3488 N   0  0  0  0  0  0  0  0  0  0  0  0
   19.2437    2.3407   25.5033 C   0  0  2  0  0  0  0  0  0  0  0  0
   18.5112    1.1814   25.6399 C   0  0  1  0  0  0  0  0  0  0  0  0
   17.7398    0.7417   24.5810 C   0  0  0  0  0  0  0  0  0  0  0  0
   17.0732   -0.3108   24.6824 O   0  0  0  0  0  0  0  0  0  0  0  0
   18.7279    0.6931   26.8773 N   0  0  0  0  0  0  0  0  0  0  0  0
   19.5829    1.5285   27.4931 C   0  0  0  0  0  0  0  0  0  0  0  0
   19.8793    2.5274   26.6545 N   0  0  1  0  0  0  0  0  0  0  0  0
   23.4967    2.9808   33.1177 O   0  0  0  0  0  0  0  0  0  0  0  0
   21.8548    1.4266   31.9629 O   0  5  0  0  0  0  0  0  0  0  0  0
   24.3432    1.0418   31.7469 O   0  0  0  0  0  0  0  0  0  0  0  0
  1  3  1  6  0  0  0
  1 21  1  0  0  0  0
  1 22  1  0  0  0  0
  1 23  2  0  0  0  0
  2  3  1  0  0  0  0
  4  2  1  1  0  0  0
  4  5  1  0  0  0  0
  4  6  1  0  0  0  0
  6  7  1  6  0  0  0
  6  8  1  0  0  0  0
  8  9  1  0  0  0  0
  9  5  1  1  0  0  0
  9 20  1  0  0  0  0
 10 11  1  0  0  0  0
 10 16  1  0  0  0  0
 11 12  1  6  0  0  0
 11 13  1  0  0  0  0
 14 13  1  1  0  0  0
 14 15  1  0  0  0  0
 14 20  1  0  0  0  0
 15 16  1  6  0  0  0
 15 18  1  0  0  0  0
 16 17  2  0  0  0  0
 18 19  1  0  0  0  0
 20 19  1  6  0  0  0
M  CHG  1  22  -1
M  END
>  <CHROM.1>
-167.90382070,-176.08230956,165.36259145,-116.57103689,20.81587840,2.44952250
27.85962402,0.46816624,0.89039879,2.46327564

>  <Name>
ligand

>  <RI>
416

>  <Rbt.Current_Directory>
/home/itssahil/PROJECTS/Mol_Feturizer/Test_systems_manuscript/rnas/3slm

>  <Rbt.Executable>
rbdock ($Id: //depot/dev/client3/rdock/2013.1/src/exe/rbdock.cxx#4 $)

>  <Rbt.Library>
libRbt.so (2013.1, Build901 2013/11/27)

>  <Rbt.Parameter_File>
/export/apps/rDock/src/rDock_2013.1_src/data/scripts/dock_solv.prm

>  <Rbt.Receptor>
prm/pocket_docking_4.prm

>  <SCORE>
-23.9507

>  <SCORE.INTER>
-19.7198

>  <SCORE.INTER.CONST>
1

>  <SCORE.INTER.POLAR>
0

>  <SCORE.INTER.ROT>
4

>  <SCORE.INTER.SOLV>
27.3852

>  <SCORE.INTER.VDW>
-28.5416

>  <SCORE.INTER.norm>
-0.857381

>  <SCORE.INTRA>
-4.25064

>  <SCORE.INTRA.DIHEDRAL>
-6.11745

>  <SCORE.INTRA.DIHEDRAL.0>
8.62657

>  <SCORE.INTRA.POLAR>
0

>  <SCORE.INTRA.POLAR.0>
0

>  <SCORE.INTRA.REPUL>
0

>  <SCORE.INTRA.REPUL.0>
0

>  <SCORE.INTRA.SOLV>
0.404744

>  <SCORE.INTRA.SOLV.lig_0>
-66.3641

>  <SCORE.INTRA.VDW>
-1.39428

>  <SCORE.INTRA.VDW.0>
0.452231

>  <SCORE.INTRA.norm>
-0.18481

>  <SCORE.RESTR>
0.0196619

>  <SCORE.RESTR.CAVITY>
0.0196619

>  <SCORE.RESTR.norm>
0.000854865

>  <SCORE.SYSTEM>
0

>  <SCORE.SYSTEM.CONST>
0

>  <SCORE.SYSTEM.DIHEDRAL>
0

>  <SCORE.SYSTEM.SOLV>
0

>  <SCORE.SYSTEM.norm>
0

>  <SCORE.heavy>
23

>  <SCORE.norm>
-1.04134

>  <RMSD>
1.333

$$$$
ligand
 OpenBabel02271912143D
libRbt.so/2013.1/901 2013/11/27
 23 25  0  0  0  0  0  0  0  0999 V2000
   23.0673    1.6594   31.7932 P   0  0  1  0  0  0  0  0  0  0  0  0
   22.5502    2.1492   29.2737 C   0  0  0  0  0  0  0  0  0  0  0  0
   22.9229    2.6636   30.5446 O   0  0  0  0  0  0  0  0  0  0  0  0
   22.3446    3.3304   28.3522 C   0  0  1  0  0  0  0  0  0  0  0  0
   21.8354    2.9356   27.0788 O   0  0  0  0  0  0  0  0  0  0  0  0
   21.3416    4.2836   28.9798 C   0  0  1  0  0  0  0  0  0  0  0  0
   21.8741    5.6165   28.8901 O   0  0  0  0  0  0  0  0  0  0  0  0
   20.0660    4.1186   28.1633 C   0  0  0  0  0  0  0  0  0  0  0  0
   20.5376    3.5002   26.8500 C   0  0  2  0  0  0  0  0  0  0  0  0
   17.6431    1.3998   23.1430 N   0  0  0  0  0  0  0  0  0  0  0  0
   18.3270    2.5550   23.1037 C   0  0  2  0  0  0  0  0  0  0  0  0
   18.2805    3.2781   21.9606 N   0  0  0  0  0  0  0  0  0  0  0  0
   19.0474    2.9770   24.1708 N   0  0  0  0  0  0  0  0  0  0  0  0
   19.0790    2.2284   25.2926 C   0  0  2  0  0  0  0  0  0  0  0  0
   18.3811    1.0414   25.3496 C   0  0  1  0  0  0  0  0  0  0  0  0
   17.6601    0.6287   24.2453 C   0  0  0  0  0  0  0  0  0  0  0  0
   17.0256   -0.4479   24.2744 O   0  0  0  0  0  0  0  0  0  0  0  0
   18.5726    0.5019   26.5697 N   0  0  0  0  0  0  0  0  0  0  0  0
   19.3787    1.3334   27.2530 C   0  0  0  0  0  0  0  0  0  0  0  0
   19.6696    2.3799   26.4726 N   0  0  1  0  0  0  0  0  0  0  0  0
   24.2381    0.7538   31.4978 O   0  0  0  0  0  0  0  0  0  0  0  0
   23.2716    2.5768   32.9768 O   0  5  0  0  0  0  0  0  0  0  0  0
   21.7426    0.9456   31.7986 O   0  0  0  0  0  0  0  0  0  0  0  0
  1  3  1  6  0  0  0
  1 21  1  0  0  0  0
  1 22  1  0  0  0  0
  1 23  2  0  0  0  0
  2  3  1  0  0  0  0
  4  2  1  1  0  0  0
  4  5  1  0  0  0  0
  4  6  1  0  0  0  0
  6  7  1  6  0  0  0
  6  8  1  0  0  0  0
  8  9  1  0  0  0  0
  9  5  1  1  0  0  0
  9 20  1  0  0  0  0
 10 11  1  0  0  0  0
 10 16  1  0  0  0  0
 11 12  1  6  0  0  0
 11 13  1  0  0  0  0
 14 13  1  1  0  0  0
 14 15  1  0  0  0  0
 14 20  1  0  0  0  0
 15 16  1  6  0  0  0
 15 18  1  0  0  0  0
 16 17  2  0  0  0  0
 18 19  1  0  0  0  0
 20 19  1  6  0  0  0
M  CHG  1  22  -1
M  END
>  <CHROM.1>
66.45969242,-174.11234893,173.72874829,-115.67069116,20.62328609,2.25129204
27.68273571,0.41687959,0.92960144,2.57231408

>  <Name>
ligand

>  <RI>
0

>  <Rbt.Current_Directory>
/home/itssahil/PROJECTS/Mol_Feturizer/Test_systems_manuscript/rnas/3slm

>  <Rbt.Executable>
rbdock ($Id: //depot/dev/client3/rdock/2013.1/src/exe/rbdock.cxx#4 $)

>  <Rbt.Library>
libRbt.so (2013.1, Build901 2013/11/27)

>  <Rbt.Parameter_File>
/export/apps/rDock/src/rDock_2013.1_src/data/scripts/dock_solv.prm

>  <Rbt.Receptor>
prm/pocket_docking_3.prm

>  <SCORE>
-21.445

>  <SCORE.INTER>
-16.4272

>  <SCORE.INTER.CONST>
1

>  <SCORE.INTER.POLAR>
0

>  <SCORE.INTER.ROT>
4

>  <SCORE.INTER.SOLV>
29.4779

>  <SCORE.INTER.VDW>
-27.0441

>  <SCORE.INTER.norm>
-0.714226

>  <SCORE.INTRA>
-5.01776

>  <SCORE.INTRA.DIHEDRAL>
-7.0382

>  <SCORE.INTRA.DIHEDRAL.0>
8.62657

>  <SCORE.INTRA.POLAR>
0

>  <SCORE.INTRA.POLAR.0>
0

>  <SCORE.INTRA.REPUL>
0

>  <SCORE.INTRA.REPUL.0>
0

>  <SCORE.INTRA.SOLV>
-0.239112

>  <SCORE.INTRA.SOLV.lig_0>
-66.3641

>  <SCORE.INTRA.VDW>
-1.37911

>  <SCORE.INTRA.VDW.0>
0.452231

>  <SCORE.INTRA.norm>
-0.218164

>  <SCORE.RESTR>
0

>  <SCORE.RESTR.CAVITY>
0

>  <SCORE.RESTR.norm>
0

>  <SCORE.SYSTEM>
0

>  <SCORE.SYSTEM.CONST>
0

>  <SCORE.SYSTEM.DIHEDRAL>
0

>  <SCORE.SYSTEM.SOLV>
0

>  <SCORE.SYSTEM.norm>
0

>  <SCORE.heavy>
23

>  <SCORE.norm>
-0.93239

>  <RMSD>
1.336

$$$$
ligand
 OpenBabel02271912143D
libRbt.so/2013.1/901 2013/11/27
 23 25  0  0  0  0  0  0  0  0999 V2000
   23.1792    2.0532   31.9607 P   0  0  1  0  0  0  0  0  0  0  0  0
   22.7401    2.3709   29.3992 C   0  0  0  0  0  0  0  0  0  0  0  0
   23.1432    2.9560   30.6296 O   0  0  0  0  0  0  0  0  0  0  0  0
   22.5824    3.4924   28.3973 C   0  0  1  0  0  0  0  0  0  0  0  0
   22.0510    3.0320   27.1553 O   0  0  0  0  0  0  0  0  0  0  0  0
   21.6247    4.5304   28.9575 C   0  0  1  0  0  0  0  0  0  0  0  0
   22.2145    5.8290   28.7737 O   0  0  0  0  0  0  0  0  0  0  0  0
   20.3396    4.3647   28.1561 C   0  0  0  0  0  0  0  0  0  0  0  0
   20.7782    3.6355   26.8889 C   0  0  2  0  0  0  0  0  0  0  0  0
   17.6916    1.4723   23.3782 N   0  0  0  0  0  0  0  0  0  0  0  0
   18.4126    2.5995   23.2632 C   0  0  2  0  0  0  0  0  0  0  0  0
   18.3525    3.2708   22.0897 N   0  0  0  0  0  0  0  0  0  0  0  0
   19.1822    3.0439   24.2860 N   0  0  0  0  0  0  0  0  0  0  0  0
   19.2259    2.3466   25.4399 C   0  0  2  0  0  0  0  0  0  0  0  0
   18.4904    1.1890   25.5746 C   0  0  1  0  0  0  0  0  0  0  0  0
   17.7192    0.7522   24.5143 C   0  0  0  0  0  0  0  0  0  0  0  0
   17.0498   -0.2987   24.6140 O   0  0  0  0  0  0  0  0  0  0  0  0
   18.7041    0.6992   26.8118 N   0  0  0  0  0  0  0  0  0  0  0  0
   19.5604    1.5320   27.4295 C   0  0  0  0  0  0  0  0  0  0  0  0
   19.8604    2.5308   26.5922 N   0  0  1  0  0  0  0  0  0  0  0  0
   23.5028    2.9755   33.1108 O   0  0  0  0  0  0  0  0  0  0  0  0
   21.7992    1.4400   32.0223 O   0  5  0  0  0  0  0  0  0  0  0  0
   24.2717    1.0631   31.6594 O   0  0  0  0  0  0  0  0  0  0  0  0
  1  3  1  6  0  0  0
  1 21  1  0  0  0  0
  1 22  1  0  0  0  0
  1 23  2  0  0  0  0
  2  3  1  0  0  0  0
  4  2  1  1  0  0  0
  4  5  1  0  0  0  0
  4  6  1  0  0  0  0
  6  7  1  6  0  0  0
  6  8  1  0  0  0  0
  8  9  1  0  0  0  0
  9  5  1  1  0  0  0
  9 20  1  0  0  0  0
 10 11  1  0  0  0  0
 10 16  1  0  0  0  0
 11 12  1  6  0  0  0
 11 13  1  0  0  0  0
 14 13  1  1  0  0  0
 14 15  1  0  0  0  0
 14 20  1  0  0  0  0
 15 16  1  6  0  0  0
 15 18  1  0  0  0  0
 16 17  2  0  0  0  0
 18 19  1  0  0  0  0
 20 19  1  6  0  0  0
M  CHG  1  22  -1
M  END
>  <CHROM.1>
-174.29612567,-174.24433160,170.69784956,-117.93185834,20.77885694,2.46121420
27.81689898,0.47818975,0.89546960,2.45442117

>  <Name>
ligand

>  <RI>
416

>  <Rbt.Current_Directory>
/home/itssahil/PROJECTS/Mol_Feturizer/Test_systems_manuscript/rnas/3slm

>  <Rbt.Executable>
rbdock ($Id: //depot/dev/client3/rdock/2013.1/src/exe/rbdock.cxx#4 $)

>  <Rbt.Library>
libRbt.so (2013.1, Build901 2013/11/27)

>  <Rbt.Parameter_File>
/export/apps/rDock/src/rDock_2013.1_src/data/scripts/dock_solv.prm

>  <Rbt.Receptor>
prm/pocket_docking_6.prm

>  <SCORE>
-24.0684

>  <SCORE.INTER>
-19.4479

>  <SCORE.INTER.CONST>
1

>  <SCORE.INTER.POLAR>
0

>  <SCORE.INTER.ROT>
4

>  <SCORE.INTER.SOLV>
27.3868

>  <SCORE.INTER.VDW>
-28.3609

>  <SCORE.INTER.norm>
-0.84556

>  <SCORE.INTRA>
-4.63367

>  <SCORE.INTRA.DIHEDRAL>
-6.82664

>  <SCORE.INTRA.DIHEDRAL.0>
8.62657

>  <SCORE.INTRA.POLAR>
0

>  <SCORE.INTRA.POLAR.0>
0

>  <SCORE.INTRA.REPUL>
0

>  <SCORE.INTRA.REPUL.0>
0

>  <SCORE.INTRA.SOLV>
0.344791

>  <SCORE.INTRA.SOLV.lig_0>
-66.3641

>  <SCORE.INTRA.VDW>
-1.39274

>  <SCORE.INTRA.VDW.0>
0.452231

>  <SCORE.INTRA.norm>
-0.201464

>  <SCORE.RESTR>
0.013123

>  <SCORE.RESTR.CAVITY>
0.013123

>  <SCORE.RESTR.norm>
0.000570563

>  <SCORE.SYSTEM>
0

>  <SCORE.SYSTEM.CONST>
0

>  <SCORE.SYSTEM.DIHEDRAL>
0

>  <SCORE.SYSTEM.SOLV>
0

>  <SCORE.SYSTEM.norm>
0

>  <SCORE.heavy>
23

>  <SCORE.norm>
-1.04645

>  <RMSD>
1.338

$$$$
ligand
 OpenBabel02271912143D
libRbt.so/2013.1/901 2013/11/27
 23 25  0  0  0  0  0  0  0  0999 V2000
   23.1815    2.0710   31.9653 P   0  0  1  0  0  0  0  0  0  0  0  0
   22.7305    2.4089   29.4084 C   0  0  0  0  0  0  0  0  0  0  0  0
   23.1604    2.9785   30.6370 O   0  0  0  0  0  0  0  0  0  0  0  0
   22.5302    3.5449   28.4308 C   0  0  1  0  0  0  0  0  0  0  0  0
   22.0021    3.0935   27.1841 O   0  0  0  0  0  0  0  0  0  0  0  0
   21.5466    4.5419   29.0197 C   0  0  1  0  0  0  0  0  0  0  0  0
   22.0953    5.8612   28.8574 O   0  0  0  0  0  0  0  0  0  0  0  0
   20.2601    4.3533   28.2257 C   0  0  0  0  0  0  0  0  0  0  0  0
   20.7093    3.6633   26.9404 C   0  0  2  0  0  0  0  0  0  0  0  0
   17.7328    1.4285   23.3798 N   0  0  0  0  0  0  0  0  0  0  0  0
   18.4290    2.5723   23.2764 C   0  0  2  0  0  0  0  0  0  0  0  0
   18.3726    3.2422   22.1018 N   0  0  0  0  0  0  0  0  0  0  0  0
   19.1710    3.0346   24.3116 N   0  0  0  0  0  0  0  0  0  0  0  0
   19.2119    2.3384   25.4663 C   0  0  2  0  0  0  0  0  0  0  0  0
   18.5016    1.1639   25.5892 C   0  0  1  0  0  0  0  0  0  0  0  0
   17.7585    0.7091   24.5164 C   0  0  0  0  0  0  0  0  0  0  0  0
   17.1124   -0.3572   24.6054 O   0  0  0  0  0  0  0  0  0  0  0  0
   18.7063    0.6792   26.8300 N   0  0  0  0  0  0  0  0  0  0  0  0
   19.5325    1.5317   27.4615 C   0  0  0  0  0  0  0  0  0  0  0  0
   19.8228    2.5373   26.6289 N   0  0  1  0  0  0  0  0  0  0  0  0
   23.5009    2.9878   33.1210 O   0  0  0  0  0  0  0  0  0  0  0  0
   21.7980    1.4647   32.0142 O   0  5  0  0  0  0  0  0  0  0  0  0
   24.2712    1.0763   31.6691 O   0  0  0  0  0  0  0  0  0  0  0  0
  1  3  1  6  0  0  0
  1 21  1  0  0  0  0
  1 22  1  0  0  0  0
  1 23  2  0  0  0  0
  2  3  1  0  0  0  0
  4  2  1  1  0  0  0
  4  5  1  0  0  0  0
  4  6  1  0  0  0  0
  6  7  1  6  0  0  0
  6  8  1  0  0  0  0
  8  9  1  0  0  0  0
  9  5  1  1  0  0  0
  9 20  1  0  0  0  0
 10 11  1  0  0  0  0
 10 16  1  0  0  0  0
 11 12  1  6  0  0  0
 11 13  1  0  0  0  0
 14 13  1  1  0  0  0
 14 15  1  0  0  0  0
 14 20  1  0  0  0  0
 15 16  1  6  0  0  0
 15 18  1  0  0  0  0
 16 17  2  0  0  0  0
 18 19  1  0  0  0  0
 20 19  1  6  0  0  0
M  CHG  1  22  -1
M  END
>  <CHROM.1>
-172.66475207,-175.73915359,167.92508637,-116.04619495,20.76493019,2.46494593
27.83897516,0.44312095,0.91306866,2.49264943

>  <Name>
ligand

>  <RI>
416

>  <Rbt.Current_Directory>
/home/itssahil/PROJECTS/Mol_Feturizer/Test_systems_manuscript/rnas/3slm

>  <Rbt.Executable>
rbdock ($Id: //depot/dev/client3/rdock/2013.1/src/exe/rbdock.cxx#4 $)

>  <Rbt.Library>
libRbt.so (2013.1, Build901 2013/11/27)

>  <Rbt.Parameter_File>
/export/apps/rDock/src/rDock_2013.1_src/data/scripts/dock_solv.prm

>  <Rbt.Receptor>
prm/pocket_docking_4.prm

>  <SCORE>
-24.0245

>  <SCORE.INTER>
-19.5422

>  <SCORE.INTER.CONST>
1

>  <SCORE.INTER.POLAR>
0

>  <SCORE.INTER.ROT>
4

>  <SCORE.INTER.SOLV>
27.2835

>  <SCORE.INTER.VDW>
-28.3893

>  <SCORE.INTER.norm>
-0.849662

>  <SCORE.INTRA>
-4.50703

>  <SCORE.INTRA.DIHEDRAL>
-6.57201

>  <SCORE.INTRA.DIHEDRAL.0>
8.62657

>  <SCORE.INTRA.POLAR>
0

>  <SCORE.INTRA.POLAR.0>
0

>  <SCORE.INTRA.REPUL>
0

>  <SCORE.INTRA.REPUL.0>
0

>  <SCORE.INTRA.SOLV>
0.380884

>  <SCORE.INTRA.SOLV.lig_0>
-66.3641

>  <SCORE.INTRA.VDW>
-1.41147

>  <SCORE.INTRA.VDW.0>
0.452231

>  <SCORE.INTRA.norm>
-0.195958

>  <SCORE.RESTR>
0.0247417

>  <SCORE.RESTR.CAVITY>
0.0247417

>  <SCORE.RESTR.norm>
0.00107573

>  <SCORE.SYSTEM>
0

>  <SCORE.SYSTEM.CONST>
0

>  <SCORE.SYSTEM.DIHEDRAL>
0

>  <SCORE.SYSTEM.SOLV>
0

>  <SCORE.SYSTEM.norm>
0

>  <SCORE.heavy>
23

>  <SCORE.norm>
-1.04454

>  <RMSD>
1.340

$$$$
ligand
 OpenBabel02271912143D
libRbt.so/2013.1/901 2013/11/27
 23 25  0  0  0  0  0  0  0  0999 V2000
   23.9255    1.7427   30.7015 P   0  0  1  0  0  0  0  0  0  0  0  0
   21.4773    2.6310   30.4319 C   0  0  0  0  0  0  0  0  0  0  0  0
   22.3715    1.5305   30.3429 O   0  0  0  0  0  0  0  0  0  0  0  0
   21.7597    3.5373   29.2550 C   0  0  1  0  0  0  0  0  0  0  0  0
   21.6102    2.8599   28.0077 O   0  0  0  0  0  0  0  0  0  0  0  0
   20.7807    4.6991   29.2743 C   0  0  1  0  0  0  0  0  0  0  0  0
   21.5237    5.9139   29.0731 O   0  0  0  0  0  0  0  0  0  0  0  0
   19.8093    4.4244   28.1332 C   0  0  0  0  0  0  0  0  0  0  0  0
   20.5554    3.4440   27.2321 C   0  0  2  0  0  0  0  0  0  0  0  0
   17.6104    1.4244   23.5200 N   0  0  0  0  0  0  0  0  0  0  0  0
   18.3016    2.5756   23.4930 C   0  0  2  0  0  0  0  0  0  0  0  0
   18.2488    3.3177   22.3625 N   0  0  0  0  0  0  0  0  0  0  0  0
   19.0354    2.9751   24.5597 N   0  0  0  0  0  0  0  0  0  0  0  0
   19.0729    2.2078   25.6686 C   0  0  2  0  0  0  0  0  0  0  0  0
   18.3676    1.0248   25.7130 C   0  0  1  0  0  0  0  0  0  0  0  0
   17.6330    0.6351   24.6093 C   0  0  0  0  0  0  0  0  0  0  0  0
   16.9915   -0.4376   24.6271 O   0  0  0  0  0  0  0  0  0  0  0  0
   18.5674    0.4639   26.9221 N   0  0  0  0  0  0  0  0  0  0  0  0
   19.3859    1.2787   27.6109 C   0  0  0  0  0  0  0  0  0  0  0  0
   19.6761    2.3360   26.8450 N   0  0  1  0  0  0  0  0  0  0  0  0
   24.4464    2.8226   29.7846 O   0  0  0  0  0  0  0  0  0  0  0  0
   23.9133    2.1197   32.1651 O   0  5  0  0  0  0  0  0  0  0  0  0
   24.5163    0.3861   30.4279 O   0  0  0  0  0  0  0  0  0  0  0  0
  1  3  1  6  0  0  0
  1 21  1  0  0  0  0
  1 22  1  0  0  0  0
  1 23  2  0  0  0  0
  2  3  1  0  0  0  0
  4  2  1  1  0  0  0
  4  5  1  0  0  0  0
  4  6  1  0  0  0  0
  6  7  1  6  0  0  0
  6  8  1  0  0  0  0
  8  9  1  0  0  0  0
  9  5  1  1  0  0  0
  9 20  1  0  0  0  0
 10 11  1  0  0  0  0
 10 16  1  0  0  0  0
 11 12  1  6  0  0  0
 11 13  1  0  0  0  0
 14 13  1  1  0  0  0
 14 15  1  0  0  0  0
 14 20  1  0  0  0  0
 15 16  1  6  0  0  0
 15 18  1  0  0  0  0
 16 17  2  0  0  0  0
 18 19  1  0  0  0  0
 20 19  1  6  0  0  0
M  CHG  1  22  -1
M  END
>  <CHROM.1>
-57.89010355,58.00906075,73.75693267,-141.59608595,20.71387095,2.31702758
27.70972584,-0.03661419,0.86052152,3.08657980

>  <Name>
ligand

>  <RI>
0

>  <Rbt.Current_Directory>
/home/itssahil/PROJECTS/Mol_Feturizer/Test_systems_manuscript/rnas/3slm

>  <Rbt.Executable>
rbdock ($Id: //depot/dev/client3/rdock/2013.1/src/exe/rbdock.cxx#4 $)

>  <Rbt.Library>
libRbt.so (2013.1, Build901 2013/11/27)

>  <Rbt.Parameter_File>
/export/apps/rDock/src/rDock_2013.1_src/data/scripts/dock_solv.prm

>  <Rbt.Receptor>
prm/pocket_docking_3.prm

>  <SCORE>
-21.6696

>  <SCORE.INTER>
-16.6653

>  <SCORE.INTER.CONST>
1

>  <SCORE.INTER.POLAR>
0

>  <SCORE.INTER.ROT>
4

>  <SCORE.INTER.SOLV>
24.6196

>  <SCORE.INTER.VDW>
-25.5834

>  <SCORE.INTER.norm>
-0.72458

>  <SCORE.INTRA>
-5.00425

>  <SCORE.INTRA.DIHEDRAL>
-6.45142

>  <SCORE.INTRA.DIHEDRAL.0>
8.62657

>  <SCORE.INTRA.POLAR>
0

>  <SCORE.INTRA.POLAR.0>
0

>  <SCORE.INTRA.REPUL>
0

>  <SCORE.INTRA.REPUL.0>
0

>  <SCORE.INTRA.SOLV>
0.324912

>  <SCORE.INTRA.SOLV.lig_0>
-66.3641

>  <SCORE.INTRA.VDW>
-1.94099

>  <SCORE.INTRA.VDW.0>
0.452231

>  <SCORE.INTRA.norm>
-0.217576

>  <SCORE.RESTR>
0

>  <SCORE.RESTR.CAVITY>
0

>  <SCORE.RESTR.norm>
0

>  <SCORE.SYSTEM>
0

>  <SCORE.SYSTEM.CONST>
0

>  <SCORE.SYSTEM.DIHEDRAL>
0

>  <SCORE.SYSTEM.SOLV>
0

>  <SCORE.SYSTEM.norm>
0

>  <SCORE.heavy>
23

>  <SCORE.norm>
-0.942156

>  <RMSD>
1.342

$$$$
ligand
 OpenBabel02271912143D
libRbt.so/2013.1/901 2013/11/27
 23 25  0  0  0  0  0  0  0  0999 V2000
   23.9272    1.7575   30.5978 P   0  0  1  0  0  0  0  0  0  0  0  0
   21.4559    2.5906   30.3662 C   0  0  0  0  0  0  0  0  0  0  0  0
   22.3752    1.5133   30.2516 O   0  0  0  0  0  0  0  0  0  0  0  0
   21.7209    3.5337   29.2144 C   0  0  1  0  0  0  0  0  0  0  0  0
   21.5803    2.8887   27.9491 O   0  0  0  0  0  0  0  0  0  0  0  0
   20.7230    4.6781   29.2673 C   0  0  1  0  0  0  0  0  0  0  0  0
   21.4454    5.9101   29.0987 O   0  0  0  0  0  0  0  0  0  0  0  0
   19.7540    4.4190   28.1205 C   0  0  0  0  0  0  0  0  0  0  0  0
   20.5144    3.4765   27.1915 C   0  0  2  0  0  0  0  0  0  0  0  0
   17.7565    1.4125   23.3619 N   0  0  0  0  0  0  0  0  0  0  0  0
   18.4516    2.5616   23.3545 C   0  0  2  0  0  0  0  0  0  0  0  0
   18.4586    3.2883   22.2128 N   0  0  0  0  0  0  0  0  0  0  0  0
   19.1312    2.9742   24.4517 N   0  0  0  0  0  0  0  0  0  0  0  0
   19.1100    2.2222   25.5714 C   0  0  2  0  0  0  0  0  0  0  0  0
   18.3998    1.0414   25.5959 C   0  0  1  0  0  0  0  0  0  0  0  0
   17.7213    0.6382   24.4616 C   0  0  0  0  0  0  0  0  0  0  0  0
   17.0766   -0.4327   24.4612 O   0  0  0  0  0  0  0  0  0  0  0  0
   18.5362    0.4967   26.8211 N   0  0  0  0  0  0  0  0  0  0  0  0
   19.3208    1.3191   27.5397 C   0  0  0  0  0  0  0  0  0  0  0  0
   19.6528    2.3651   26.7752 N   0  0  1  0  0  0  0  0  0  0  0  0
   24.4159    2.8546   29.6837 O   0  0  0  0  0  0  0  0  0  0  0  0
   23.9199    2.1243   32.0640 O   0  5  0  0  0  0  0  0  0  0  0  0
   24.5454    0.4161   30.3097 O   0  0  0  0  0  0  0  0  0  0  0  0
  1  3  1  6  0  0  0
  1 21  1  0  0  0  0
  1 22  1  0  0  0  0
  1 23  2  0  0  0  0
  2  3  1  0  0  0  0
  4  2  1  1  0  0  0
  4  5  1  0  0  0  0
  4  6  1  0  0  0  0
  6  7  1  6  0  0  0
  6  8  1  0  0  0  0
  8  9  1  0  0  0  0
  9  5  1  1  0  0  0
  9 20  1  0  0  0  0
 10 11  1  0  0  0  0
 10 16  1  0  0  0  0
 11 12  1  6  0  0  0
 11 13  1  0  0  0  0
 14 13  1  1  0  0  0
 14 15  1  0  0  0  0
 14 20  1  0  0  0  0
 15 16  1  6  0  0  0
 15 18  1  0  0  0  0
 16 17  2  0  0  0  0
 18 19  1  0  0  0  0
 20 19  1  6  0  0  0
M  CHG  1  22  -1
M  END
>  <CHROM.1>
-58.38620241,58.46885013,72.76052810,-137.60354236,20.72985507,2.32346085
27.62063656,-0.08110795,0.87282978,3.14043975

>  <Name>
ligand

>  <RI>
0

>  <Rbt.Current_Directory>
/home/itssahil/PROJECTS/Mol_Feturizer/Test_systems_manuscript/rnas/3slm

>  <Rbt.Executable>
rbdock ($Id: //depot/dev/client3/rdock/2013.1/src/exe/rbdock.cxx#4 $)

>  <Rbt.Library>
libRbt.so (2013.1, Build901 2013/11/27)

>  <Rbt.Parameter_File>
/export/apps/rDock/src/rDock_2013.1_src/data/scripts/dock_solv.prm

>  <Rbt.Receptor>
prm/pocket_docking_3.prm

>  <SCORE>
-21.6286

>  <SCORE.INTER>
-16.5684

>  <SCORE.INTER.CONST>
1

>  <SCORE.INTER.POLAR>
0

>  <SCORE.INTER.ROT>
4

>  <SCORE.INTER.SOLV>
24.5355

>  <SCORE.INTER.VDW>
-25.4908

>  <SCORE.INTER.norm>
-0.720366

>  <SCORE.INTRA>
-5.06013

>  <SCORE.INTRA.DIHEDRAL>
-6.58703

>  <SCORE.INTRA.DIHEDRAL.0>
8.62657

>  <SCORE.INTRA.POLAR>
0

>  <SCORE.INTRA.POLAR.0>
0

>  <SCORE.INTRA.REPUL>
0

>  <SCORE.INTRA.REPUL.0>
0

>  <SCORE.INTRA.SOLV>
0.351151

>  <SCORE.INTRA.SOLV.lig_0>
-66.3641

>  <SCORE.INTRA.VDW>
-1.94219

>  <SCORE.INTRA.VDW.0>
0.452231

>  <SCORE.INTRA.norm>
-0.220006

>  <SCORE.RESTR>
0

>  <SCORE.RESTR.CAVITY>
0

>  <SCORE.RESTR.norm>
0

>  <SCORE.SYSTEM>
0

>  <SCORE.SYSTEM.CONST>
0

>  <SCORE.SYSTEM.DIHEDRAL>
0

>  <SCORE.SYSTEM.SOLV>
0

>  <SCORE.SYSTEM.norm>
0

>  <SCORE.heavy>
23

>  <SCORE.norm>
-0.940372

>  <RMSD>
1.343

$$$$
ligand
 OpenBabel02271912143D
libRbt.so/2013.1/901 2013/11/27
 23 25  0  0  0  0  0  0  0  0999 V2000
   23.1726    2.0634   31.9688 P   0  0  1  0  0  0  0  0  0  0  0  0
   22.7084    2.3643   29.4096 C   0  0  0  0  0  0  0  0  0  0  0  0
   23.1317    2.9553   30.6304 O   0  0  0  0  0  0  0  0  0  0  0  0
   22.5714    3.4765   28.3944 C   0  0  1  0  0  0  0  0  0  0  0  0
   22.0474    3.0080   27.1522 O   0  0  0  0  0  0  0  0  0  0  0  0
   21.6186    4.5297   28.9343 C   0  0  1  0  0  0  0  0  0  0  0  0
   22.2230    5.8205   28.7424 O   0  0  0  0  0  0  0  0  0  0  0  0
   20.3397    4.3680   28.1223 C   0  0  0  0  0  0  0  0  0  0  0  0
   20.7832    3.6210   26.8672 C   0  0  2  0  0  0  0  0  0  0  0  0
   17.6665    1.4813   23.3686 N   0  0  0  0  0  0  0  0  0  0  0  0
   18.3936    2.6044   23.2517 C   0  0  2  0  0  0  0  0  0  0  0  0
   18.3317    3.2779   22.0794 N   0  0  0  0  0  0  0  0  0  0  0  0
   19.1709    3.0427   24.2713 N   0  0  0  0  0  0  0  0  0  0  0  0
   19.2161    2.3435   25.4240 C   0  0  2  0  0  0  0  0  0  0  0  0
   18.4744    1.1901   25.5606 C   0  0  1  0  0  0  0  0  0  0  0  0
   17.6955    0.7594   24.5035 C   0  0  0  0  0  0  0  0  0  0  0  0
   17.0203   -0.2877   24.6049 O   0  0  0  0  0  0  0  0  0  0  0  0
   18.6914    0.6972   26.7961 N   0  0  0  0  0  0  0  0  0  0  0  0
   19.5556    1.5239   27.4107 C   0  0  0  0  0  0  0  0  0  0  0  0
   19.8574    2.5222   26.5734 N   0  0  1  0  0  0  0  0  0  0  0  0
   23.4804    2.9985   33.1129 O   0  0  0  0  0  0  0  0  0  0  0  0
   21.7996    1.4345   32.0294 O   0  5  0  0  0  0  0  0  0  0  0  0
   24.2778    1.0839   31.6799 O   0  0  0  0  0  0  0  0  0  0  0  0
  1  3  1  6  0  0  0
  1 21  1  0  0  0  0
  1 22  1  0  0  0  0
  1 23  2  0  0  0  0
  2  3  1  0  0  0  0
  4  2  1  1  0  0  0
  4  5  1  0  0  0  0
  4  6  1  0  0  0  0
  6  7  1  6  0  0  0
  6  8  1  0  0  0  0
  8  9  1  0  0  0  0
  9  5  1  1  0  0  0
  9 20  1  0  0  0  0
 10 11  1  0  0  0  0
 10 16  1  0  0  0  0
 11 12  1  6  0  0  0
 11 13  1  0  0  0  0
 14 13  1  1  0  0  0
 14 15  1  0  0  0  0
 14 20  1  0  0  0  0
 15 16  1  6  0  0  0
 15 18  1  0  0  0  0
 16 17  2  0  0  0  0
 18 19  1  0  0  0  0
 20 19  1  6  0  0  0
M  CHG  1  22  -1
M  END
>  <CHROM.1>
-172.72015383,-175.39996471,171.50641836,-119.04026871,20.76845962,2.46182644
27.80886419,0.48462721,0.89267348,2.44651613

>  <Name>
ligand

>  <RI>
416

>  <Rbt.Current_Directory>
/home/itssahil/PROJECTS/Mol_Feturizer/Test_systems_manuscript/rnas/3slm

>  <Rbt.Executable>
rbdock ($Id: //depot/dev/client3/rdock/2013.1/src/exe/rbdock.cxx#4 $)

>  <Rbt.Library>
libRbt.so (2013.1, Build901 2013/11/27)

>  <Rbt.Parameter_File>
/export/apps/rDock/src/rDock_2013.1_src/data/scripts/dock_solv.prm

>  <Rbt.Receptor>
prm/pocket_docking_6.prm

>  <SCORE>
-24.0522

>  <SCORE.INTER>
-19.354

>  <SCORE.INTER.CONST>
1

>  <SCORE.INTER.POLAR>
0

>  <SCORE.INTER.ROT>
4

>  <SCORE.INTER.SOLV>
27.4998

>  <SCORE.INTER.VDW>
-28.3359

>  <SCORE.INTER.norm>
-0.84148

>  <SCORE.INTRA>
-4.71107

>  <SCORE.INTRA.DIHEDRAL>
-6.89911

>  <SCORE.INTRA.DIHEDRAL.0>
8.62657

>  <SCORE.INTRA.POLAR>
0

>  <SCORE.INTRA.POLAR.0>
0

>  <SCORE.INTRA.REPUL>
0

>  <SCORE.INTRA.REPUL.0>
0

>  <SCORE.INTRA.SOLV>
0.322786

>  <SCORE.INTRA.SOLV.lig_0>
-66.3641

>  <SCORE.INTRA.VDW>
-1.42291

>  <SCORE.INTRA.VDW.0>
0.452231

>  <SCORE.INTRA.norm>
-0.204829

>  <SCORE.RESTR>
0.0128776

>  <SCORE.RESTR.CAVITY>
0.0128776

>  <SCORE.RESTR.norm>
0.000559897

>  <SCORE.SYSTEM>
0

>  <SCORE.SYSTEM.CONST>
0

>  <SCORE.SYSTEM.DIHEDRAL>
0

>  <SCORE.SYSTEM.SOLV>
0

>  <SCORE.SYSTEM.norm>
0

>  <SCORE.heavy>
23

>  <SCORE.norm>
-1.04575

>  <RMSD>
1.345

$$$$
ligand
 OpenBabel02271912143D
libRbt.so/2013.1/901 2013/11/27
 23 25  0  0  0  0  0  0  0  0999 V2000
   24.2226   -0.1280   28.6741 P   0  0  1  0  0  0  0  0  0  0  0  0
   23.2254    2.2795   28.9283 C   0  0  0  0  0  0  0  0  0  0  0  0
   23.7081    1.2660   28.0574 O   0  0  0  0  0  0  0  0  0  0  0  0
   22.8522    3.4689   28.0724 C   0  0  1  0  0  0  0  0  0  0  0  0
   22.1354    3.0830   26.9002 O   0  0  0  0  0  0  0  0  0  0  0  0
   21.9626    4.4021   28.8763 C   0  0  1  0  0  0  0  0  0  0  0  0
   22.4581    5.7424   28.7148 O   0  0  0  0  0  0  0  0  0  0  0  0
   20.5672    4.2309   28.2892 C   0  0  0  0  0  0  0  0  0  0  0  0
   20.8119    3.6341   26.9059 C   0  0  2  0  0  0  0  0  0  0  0  0
   17.5987    1.3671   23.5790 N   0  0  0  0  0  0  0  0  0  0  0  0
   18.2899    2.5069   23.4154 C   0  0  2  0  0  0  0  0  0  0  0  0
   18.1575    3.1626   22.2389 N   0  0  0  0  0  0  0  0  0  0  0  0
   19.1004    2.9790   24.3931 N   0  0  0  0  0  0  0  0  0  0  0  0
   19.2159    2.2969   25.5512 C   0  0  2  0  0  0  0  0  0  0  0  0
   18.5119    1.1266   25.7356 C   0  0  1  0  0  0  0  0  0  0  0  0
   17.6978    0.6616   24.7203 C   0  0  0  0  0  0  0  0  0  0  0  0
   17.0559   -0.4011   24.8652 O   0  0  0  0  0  0  0  0  0  0  0  0
   18.7972    0.6563   26.9659 N   0  0  0  0  0  0  0  0  0  0  0  0
   19.6661    1.5135   27.5305 C   0  0  0  0  0  0  0  0  0  0  0  0
   19.9033    2.5077   26.6680 N   0  0  1  0  0  0  0  0  0  0  0  0
   24.0376   -1.1781   27.6058 O   0  0  0  0  0  0  0  0  0  0  0  0
   25.6640    0.1445   29.0377 O   0  5  0  0  0  0  0  0  0  0  0  0
   23.3206   -0.3164   29.8637 O   0  0  0  0  0  0  0  0  0  0  0  0
  1  3  1  6  0  0  0
  1 21  1  0  0  0  0
  1 22  1  0  0  0  0
  1 23  2  0  0  0  0
  2  3  1  0  0  0  0
  4  2  1  1  0  0  0
  4  5  1  0  0  0  0
  4  6  1  0  0  0  0
  6  7  1  6  0  0  0
  6  8  1  0  0  0  0
  8  9  1  0  0  0  0
  9  5  1  1  0  0  0
  9 20  1  0  0  0  0
 10 11  1  0  0  0  0
 10 16  1  0  0  0  0
 11 12  1  6  0  0  0
 11 13  1  0  0  0  0
 14 13  1  1  0  0  0
 14 15  1  0  0  0  0
 14 20  1  0  0  0  0
 15 16  1  6  0  0  0
 15 18  1  0  0  0  0
 16 17  2  0  0  0  0
 18 19  1  0  0  0  0
 20 19  1  6  0  0  0
M  CHG  1  22  -1
M  END
>  <CHROM.1>
153.42695937,43.85285863,178.58319302,-108.87577563,21.12172189,1.81504649
26.93522650,0.02615208,0.65599978,-3.00885019

>  <Name>
ligand

>  <RI>
416

>  <Rbt.Current_Directory>
/home/itssahil/PROJECTS/Mol_Feturizer/Test_systems_manuscript/rnas/3slm

>  <Rbt.Executable>
rbdock ($Id: //depot/dev/client3/rdock/2013.1/src/exe/rbdock.cxx#4 $)

>  <Rbt.Library>
libRbt.so (2013.1, Build901 2013/11/27)

>  <Rbt.Parameter_File>
/export/apps/rDock/src/rDock_2013.1_src/data/scripts/dock_solv.prm

>  <Rbt.Receptor>
prm/pocket_docking_5.prm

>  <SCORE>
-22.135

>  <SCORE.INTER>
-18.1321

>  <SCORE.INTER.CONST>
1

>  <SCORE.INTER.POLAR>
0

>  <SCORE.INTER.ROT>
4

>  <SCORE.INTER.SOLV>
25.7697

>  <SCORE.INTER.VDW>
-26.9446

>  <SCORE.INTER.norm>
-0.788351

>  <SCORE.INTRA>
-4.0029

>  <SCORE.INTRA.DIHEDRAL>
-5.60663

>  <SCORE.INTRA.DIHEDRAL.0>
8.62657

>  <SCORE.INTRA.POLAR>
0

>  <SCORE.INTRA.POLAR.0>
0

>  <SCORE.INTRA.REPUL>
0

>  <SCORE.INTRA.REPUL.0>
0

>  <SCORE.INTRA.SOLV>
-0.0101108

>  <SCORE.INTRA.SOLV.lig_0>
-66.3641

>  <SCORE.INTRA.VDW>
-1.19454

>  <SCORE.INTRA.VDW.0>
0.452231

>  <SCORE.INTRA.norm>
-0.174039

>  <SCORE.RESTR>
0

>  <SCORE.RESTR.CAVITY>
0

>  <SCORE.RESTR.norm>
0

>  <SCORE.SYSTEM>
0

>  <SCORE.SYSTEM.CONST>
0

>  <SCORE.SYSTEM.DIHEDRAL>
0

>  <SCORE.SYSTEM.SOLV>
0

>  <SCORE.SYSTEM.norm>
0

>  <SCORE.heavy>
23

>  <SCORE.norm>
-0.962391

>  <RMSD>
1.347

$$$$
ligand
 OpenBabel02271912143D
libRbt.so/2013.1/901 2013/11/27
 23 25  0  0  0  0  0  0  0  0999 V2000
   24.5815    0.2167   28.9322 P   0  0  1  0  0  0  0  0  0  0  0  0
   23.1195    2.3845   29.0671 C   0  0  0  0  0  0  0  0  0  0  0  0
   24.1930    1.6978   28.4387 O   0  0  0  0  0  0  0  0  0  0  0  0
   22.7577    3.5583   28.1852 C   0  0  1  0  0  0  0  0  0  0  0  0
   22.0902    3.1480   26.9923 O   0  0  0  0  0  0  0  0  0  0  0  0
   21.8243    4.4846   28.9462 C   0  0  1  0  0  0  0  0  0  0  0  0
   22.3030    5.8314   28.7876 O   0  0  0  0  0  0  0  0  0  0  0  0
   20.4540    4.2837   28.3113 C   0  0  0  0  0  0  0  0  0  0  0  0
   20.7585    3.6765   26.9444 C   0  0  2  0  0  0  0  0  0  0  0  0
   17.5895    1.3977   23.5833 N   0  0  0  0  0  0  0  0  0  0  0  0
   18.2506    2.5580   23.4409 C   0  0  2  0  0  0  0  0  0  0  0  0
   18.0963    3.2344   22.2788 N   0  0  0  0  0  0  0  0  0  0  0  0
   19.0531    3.0303   24.4251 N   0  0  0  0  0  0  0  0  0  0  0  0
   19.1911    2.3274   25.5682 C   0  0  2  0  0  0  0  0  0  0  0  0
   18.5180    1.1359   25.7308 C   0  0  1  0  0  0  0  0  0  0  0  0
   17.7116    0.6714   24.7092 C   0  0  0  0  0  0  0  0  0  0  0  0
   17.0977   -0.4102   24.8344 O   0  0  0  0  0  0  0  0  0  0  0  0
   18.8207    0.6476   26.9499 N   0  0  0  0  0  0  0  0  0  0  0  0
   19.6699    1.5147   27.5289 C   0  0  0  0  0  0  0  0  0  0  0  0
   19.8778    2.5325   26.6865 N   0  0  1  0  0  0  0  0  0  0  0  0
   23.6133   -0.7359   28.2738 O   0  0  0  0  0  0  0  0  0  0  0  0
   26.0174    0.0506   28.4906 O   0  5  0  0  0  0  0  0  0  0  0  0
   24.4112    0.3099   30.4244 O   0  0  0  0  0  0  0  0  0  0  0  0
  1  3  1  6  0  0  0
  1 21  1  0  0  0  0
  1 22  1  0  0  0  0
  1 23  2  0  0  0  0
  2  3  1  0  0  0  0
  4  2  1  1  0  0  0
  4  5  1  0  0  0  0
  4  6  1  0  0  0  0
  6  7  1  6  0  0  0
  6  8  1  0  0  0  0
  8  9  1  0  0  0  0
  9  5  1  1  0  0  0
  9 20  1  0  0  0  0
 10 11  1  0  0  0  0
 10 16  1  0  0  0  0
 11 12  1  6  0  0  0
 11 13  1  0  0  0  0
 14 13  1  1  0  0  0
 14 15  1  0  0  0  0
 14 20  1  0  0  0  0
 15 16  1  6  0  0  0
 15 18  1  0  0  0  0
 16 17  2  0  0  0  0
 18 19  1  0  0  0  0
 20 19  1  6  0  0  0
M  CHG  1  22  -1
M  END
>  <CHROM.1>
80.98200728,72.40939188,-165.53031829,-111.85083606,21.19136180,1.94469573
27.03424112,-0.02200146,0.64865875,-2.97326023

>  <Name>
ligand

>  <RI>
0

>  <Rbt.Current_Directory>
/home/itssahil/PROJECTS/Mol_Feturizer/Test_systems_manuscript/rnas/3slm

>  <Rbt.Executable>
rbdock ($Id: //depot/dev/client3/rdock/2013.1/src/exe/rbdock.cxx#4 $)

>  <Rbt.Library>
libRbt.so (2013.1, Build901 2013/11/27)

>  <Rbt.Parameter_File>
/export/apps/rDock/src/rDock_2013.1_src/data/scripts/dock_solv.prm

>  <Rbt.Receptor>
prm/pocket_docking_3.prm

>  <SCORE>
-21.8521

>  <SCORE.INTER>
-17.5508

>  <SCORE.INTER.CONST>
1

>  <SCORE.INTER.POLAR>
0

>  <SCORE.INTER.ROT>
4

>  <SCORE.INTER.SOLV>
23.9272

>  <SCORE.INTER.VDW>
-25.9429

>  <SCORE.INTER.norm>
-0.763079

>  <SCORE.INTRA>
-4.30131

>  <SCORE.INTRA.DIHEDRAL>
-5.23831

>  <SCORE.INTRA.DIHEDRAL.0>
8.62657

>  <SCORE.INTRA.POLAR>
0

>  <SCORE.INTRA.POLAR.0>
0

>  <SCORE.INTRA.REPUL>
0

>  <SCORE.INTRA.REPUL.0>
0

>  <SCORE.INTRA.SOLV>
-0.493854

>  <SCORE.INTRA.SOLV.lig_0>
-66.3641

>  <SCORE.INTRA.VDW>
-1.43522

>  <SCORE.INTRA.VDW.0>
0.452231

>  <SCORE.INTRA.norm>
-0.187013

>  <SCORE.RESTR>
0

>  <SCORE.RESTR.CAVITY>
0

>  <SCORE.RESTR.norm>
0

>  <SCORE.SYSTEM>
0

>  <SCORE.SYSTEM.CONST>
0

>  <SCORE.SYSTEM.DIHEDRAL>
0

>  <SCORE.SYSTEM.SOLV>
0

>  <SCORE.SYSTEM.norm>
0

>  <SCORE.heavy>
23

>  <SCORE.norm>
-0.950093

>  <RMSD>
1.349

$$$$
ligand
 OpenBabel02271912143D
libRbt.so/2013.1/901 2013/11/27
 23 25  0  0  0  0  0  0  0  0999 V2000
   23.4220    2.1693   31.9790 P   0  0  1  0  0  0  0  0  0  0  0  0
   22.7386    2.4602   29.4683 C   0  0  0  0  0  0  0  0  0  0  0  0
   23.2539    3.0591   30.6492 O   0  0  0  0  0  0  0  0  0  0  0  0
   22.5369    3.5638   28.4545 C   0  0  1  0  0  0  0  0  0  0  0  0
   22.0066    3.0722   27.2240 O   0  0  0  0  0  0  0  0  0  0  0  0
   21.5543    4.5796   29.0123 C   0  0  1  0  0  0  0  0  0  0  0  0
   22.1029    5.8929   28.8063 O   0  0  0  0  0  0  0  0  0  0  0  0
   20.2665    4.3656   28.2269 C   0  0  0  0  0  0  0  0  0  0  0  0
   20.7135    3.6340   26.9641 C   0  0  2  0  0  0  0  0  0  0  0  0
   17.6265    1.3561   23.5271 N   0  0  0  0  0  0  0  0  0  0  0  0
   18.3078    2.5056   23.3928 C   0  0  2  0  0  0  0  0  0  0  0  0
   18.2014    3.1695   22.2182 N   0  0  0  0  0  0  0  0  0  0  0  0
   19.0837    2.9793   24.3974 N   0  0  0  0  0  0  0  0  0  0  0  0
   19.1742    2.2889   25.5528 C   0  0  2  0  0  0  0  0  0  0  0  0
   18.4798    1.1086   25.7072 C   0  0  1  0  0  0  0  0  0  0  0  0
   17.7013    0.6422   24.6650 C   0  0  0  0  0  0  0  0  0  0  0  0
   17.0688   -0.4294   24.7826 O   0  0  0  0  0  0  0  0  0  0  0  0
   18.7352    0.6315   26.9415 N   0  0  0  0  0  0  0  0  0  0  0  0
   19.5766    1.4944   27.5380 C   0  0  0  0  0  0  0  0  0  0  0  0
   19.8263    2.4987   26.6908 N   0  0  1  0  0  0  0  0  0  0  0  0
   24.0150    3.0664   33.0381 O   0  0  0  0  0  0  0  0  0  0  0  0
   22.0191    1.6936   32.2786 O   0  5  0  0  0  0  0  0  0  0  0  0
   24.3521    1.0751   31.5294 O   0  0  0  0  0  0  0  0  0  0  0  0
  1  3  1  6  0  0  0
  1 21  1  0  0  0  0
  1 22  1  0  0  0  0
  1 23  2  0  0  0  0
  2  3  1  0  0  0  0
  4  2  1  1  0  0  0
  4  5  1  0  0  0  0
  4  6  1  0  0  0  0
  6  7  1  6  0  0  0
  6  8  1  0  0  0  0
  8  9  1  0  0  0  0
  9  5  1  1  0  0  0
  9 20  1  0  0  0  0
 10 11  1  0  0  0  0
 10 16  1  0  0  0  0
 11 12  1  6  0  0  0
 11 13  1  0  0  0  0
 14 13  1  1  0  0  0
 14 15  1  0  0  0  0
 14 20  1  0  0  0  0
 15 16  1  6  0  0  0
 15 18  1  0  0  0  0
 16 17  2  0  0  0  0
 18 19  1  0  0  0  0
 20 19  1  6  0  0  0
M  CHG  1  22  -1
M  END
>  <CHROM.1>
178.67356292,-179.47388596,173.14589285,-118.70655528,20.80889910,2.47130367
27.89542192,0.38455620,0.89674829,2.53382795

>  <Name>
ligand

>  <RI>
0

>  <Rbt.Current_Directory>
/home/itssahil/PROJECTS/Mol_Feturizer/Test_systems_manuscript/rnas/3slm

>  <Rbt.Executable>
rbdock ($Id: //depot/dev/client3/rdock/2013.1/src/exe/rbdock.cxx#4 $)

>  <Rbt.Library>
libRbt.so (2013.1, Build901 2013/11/27)

>  <Rbt.Parameter_File>
/export/apps/rDock/src/rDock_2013.1_src/data/scripts/dock_solv.prm

>  <Rbt.Receptor>
prm/pocket_docking_8.prm

>  <SCORE>
-24.5423

>  <SCORE.INTER>
-19.5936

>  <SCORE.INTER.CONST>
1

>  <SCORE.INTER.POLAR>
0

>  <SCORE.INTER.ROT>
4

>  <SCORE.INTER.SOLV>
27.4066

>  <SCORE.INTER.VDW>
-28.4646

>  <SCORE.INTER.norm>
-0.851896

>  <SCORE.INTRA>
-4.95025

>  <SCORE.INTRA.DIHEDRAL>
-7.19474

>  <SCORE.INTRA.DIHEDRAL.0>
8.62657

>  <SCORE.INTRA.POLAR>
0

>  <SCORE.INTRA.POLAR.0>
0

>  <SCORE.INTRA.REPUL>
0

>  <SCORE.INTRA.REPUL.0>
0

>  <SCORE.INTRA.SOLV>
0.305195

>  <SCORE.INTRA.SOLV.lig_0>
-66.3641

>  <SCORE.INTRA.VDW>
-1.50548

>  <SCORE.INTRA.VDW.0>
0.452231

>  <SCORE.INTRA.norm>
-0.215228

>  <SCORE.RESTR>
0.00153188

>  <SCORE.RESTR.CAVITY>
0.00153188

>  <SCORE.RESTR.norm>
6.66033e-05

>  <SCORE.SYSTEM>
0

>  <SCORE.SYSTEM.CONST>
0

>  <SCORE.SYSTEM.DIHEDRAL>
0

>  <SCORE.SYSTEM.SOLV>
0

>  <SCORE.SYSTEM.norm>
0

>  <SCORE.heavy>
23

>  <SCORE.norm>
-1.06706

>  <RMSD>
1.351

$$$$
ligand
 OpenBabel02271912143D
libRbt.so/2013.1/901 2013/11/27
 23 25  0  0  0  0  0  0  0  0999 V2000
   23.6858    1.0488   29.1773 P   0  0  1  0  0  0  0  0  0  0  0  0
   23.1401    3.4751   28.3583 C   0  0  0  0  0  0  0  0  0  0  0  0
   22.6472    2.2210   28.8089 O   0  0  0  0  0  0  0  0  0  0  0  0
   21.9630    4.4213   28.2836 C   0  0  1  0  0  0  0  0  0  0  0  0
   21.0231    4.0310   27.2830 O   0  0  0  0  0  0  0  0  0  0  0  0
   21.2431    4.4281   29.6216 C   0  0  1  0  0  0  0  0  0  0  0  0
   21.0045    5.7964   29.9945 O   0  0  0  0  0  0  0  0  0  0  0  0
   19.9470    3.6633   29.3838 C   0  0  0  0  0  0  0  0  0  0  0  0
   19.7554    3.7098   27.8703 C   0  0  2  0  0  0  0  0  0  0  0  0
   18.0624    0.9998   23.8302 N   0  0  0  0  0  0  0  0  0  0  0  0
   18.2574    2.3260   23.9135 C   0  0  2  0  0  0  0  0  0  0  0  0
   17.9964    3.0730   22.8155 N   0  0  0  0  0  0  0  0  0  0  0  0
   18.7099    2.8952   25.0567 N   0  0  0  0  0  0  0  0  0  0  0  0
   18.9679    2.1209   26.1308 C   0  0  2  0  0  0  0  0  0  0  0  0
   18.7712    0.7586   26.0623 C   0  0  1  0  0  0  0  0  0  0  0  0
   18.3165    0.2008   24.8825 C   0  0  0  0  0  0  0  0  0  0  0  0
   18.1377   -1.0334   24.7977 O   0  0  0  0  0  0  0  0  0  0  0  0
   19.0927    0.2289   27.2591 N   0  0  0  0  0  0  0  0  0  0  0  0
   19.4877    1.2409   28.0516 C   0  0  0  0  0  0  0  0  0  0  0  0
   19.3976    2.3821   27.3601 N   0  0  1  0  0  0  0  0  0  0  0  0
   22.8717   -0.1931   29.4475 O   0  0  0  0  0  0  0  0  0  0  0  0
   24.5780    0.9572   27.9608 O   0  5  0  0  0  0  0  0  0  0  0  0
   24.3770    1.5913   30.3989 O   0  0  0  0  0  0  0  0  0  0  0  0
  1  3  1  6  0  0  0
  1 21  1  0  0  0  0
  1 22  1  0  0  0  0
  1 23  2  0  0  0  0
  2  3  1  0  0  0  0
  4  2  1  1  0  0  0
  4  5  1  0  0  0  0
  4  6  1  0  0  0  0
  6  7  1  6  0  0  0
  6  8  1  0  0  0  0
  8  9  1  0  0  0  0
  9  5  1  6  0  0  0
  9 20  1  0  0  0  0
 10 11  1  0  0  0  0
 10 16  1  0  0  0  0
 11 12  1  6  0  0  0
 11 13  1  0  0  0  0
 14 13  1  1  0  0  0
 14 15  1  0  0  0  0
 14 20  1  0  0  0  0
 15 16  1  6  0  0  0
 15 18  1  0  0  0  0
 16 17  2  0  0  0  0
 18 19  1  0  0  0  0
 20 19  1  6  0  0  0
M  CHG  1  22  -1
M  END
>  <CHROM.1>
-172.95604269,-66.00919524,-172.07318387,-74.54283188,20.76833546,2.12849384
27.42339590,-0.38273192,0.69597105,-2.77501359

>  <Name>
ligand

>  <RI>
416

>  <Rbt.Current_Directory>
/home/itssahil/PROJECTS/Mol_Feturizer/Test_systems_manuscript/rnas/3slm

>  <Rbt.Executable>
rbdock ($Id: //depot/dev/client3/rdock/2013.1/src/exe/rbdock.cxx#4 $)

>  <Rbt.Library>
libRbt.so (2013.1, Build901 2013/11/27)

>  <Rbt.Parameter_File>
/export/apps/rDock/src/rDock_2013.1_src/data/scripts/dock_solv.prm

>  <Rbt.Receptor>
prm/pocket_docking_2.prm

>  <SCORE>
-20.0559

>  <SCORE.INTER>
-15.9104

>  <SCORE.INTER.CONST>
1

>  <SCORE.INTER.POLAR>
0

>  <SCORE.INTER.ROT>
4

>  <SCORE.INTER.SOLV>
23.2033

>  <SCORE.INTER.VDW>
-24.6081

>  <SCORE.INTER.norm>
-0.691757

>  <SCORE.INTRA>
-4.35987

>  <SCORE.INTRA.DIHEDRAL>
-6.94042

>  <SCORE.INTRA.DIHEDRAL.0>
8.62657

>  <SCORE.INTRA.POLAR>
0

>  <SCORE.INTRA.POLAR.0>
0

>  <SCORE.INTRA.REPUL>
0

>  <SCORE.INTRA.REPUL.0>
0

>  <SCORE.INTRA.SOLV>
0.479818

>  <SCORE.INTRA.SOLV.lig_0>
-66.3641

>  <SCORE.INTRA.VDW>
-1.12957

>  <SCORE.INTRA.VDW.0>
0.452231

>  <SCORE.INTRA.norm>
-0.18956

>  <SCORE.RESTR>
0.214343

>  <SCORE.RESTR.CAVITY>
0.214343

>  <SCORE.RESTR.norm>
0.00931927

>  <SCORE.SYSTEM>
0

>  <SCORE.SYSTEM.CONST>
0

>  <SCORE.SYSTEM.DIHEDRAL>
0

>  <SCORE.SYSTEM.SOLV>
0

>  <SCORE.SYSTEM.norm>
0

>  <SCORE.heavy>
23

>  <SCORE.norm>
-0.871998

>  <RMSD>
1.353

$$$$
ligand
 OpenBabel02271912143D
libRbt.so/2013.1/901 2013/11/27
 23 25  0  0  0  0  0  0  0  0999 V2000
   23.9261    1.7913   30.6911 P   0  0  1  0  0  0  0  0  0  0  0  0
   21.4470    2.6060   30.4771 C   0  0  0  0  0  0  0  0  0  0  0  0
   22.3738    1.5360   30.3543 O   0  0  0  0  0  0  0  0  0  0  0  0
   21.6766    3.5372   29.3081 C   0  0  1  0  0  0  0  0  0  0  0  0
   21.5340    2.8704   28.0544 O   0  0  0  0  0  0  0  0  0  0  0  0
   20.6544    4.6603   29.3572 C   0  0  1  0  0  0  0  0  0  0  0  0
   21.3473    5.9051   29.1611 O   0  0  0  0  0  0  0  0  0  0  0  0
   19.6768    4.3629   28.2272 C   0  0  0  0  0  0  0  0  0  0  0  0
   20.4460    3.4234   27.3023 C   0  0  2  0  0  0  0  0  0  0  0  0
   17.6194    1.2826   23.5660 N   0  0  0  0  0  0  0  0  0  0  0  0
   18.2794    2.4519   23.5370 C   0  0  2  0  0  0  0  0  0  0  0  0
   18.2253    3.1797   22.3973 N   0  0  0  0  0  0  0  0  0  0  0  0
   18.9841    2.8832   24.6109 N   0  0  0  0  0  0  0  0  0  0  0  0
   19.0240    2.1297   25.7290 C   0  0  2  0  0  0  0  0  0  0  0  0
   18.3505    0.9282   25.7756 C   0  0  1  0  0  0  0  0  0  0  0  0
   17.6453    0.5063   24.6646 C   0  0  0  0  0  0  0  0  0  0  0  0
   17.0331   -0.5833   24.6842 O   0  0  0  0  0  0  0  0  0  0  0  0
   18.5454    0.3865   26.9942 N   0  0  0  0  0  0  0  0  0  0  0  0
   19.3297    1.2311   27.6869 C   0  0  0  0  0  0  0  0  0  0  0  0
   19.6038    2.2874   26.9136 N   0  0  1  0  0  0  0  0  0  0  0  0
   24.4017    2.8910   29.7732 O   0  0  0  0  0  0  0  0  0  0  0  0
   23.9250    2.1593   32.1570 O   0  5  0  0  0  0  0  0  0  0  0  0
   24.5519    0.4540   30.4004 O   0  0  0  0  0  0  0  0  0  0  0  0
  1  3  1  6  0  0  0
  1 21  1  0  0  0  0
  1 22  1  0  0  0  0
  1 23  2  0  0  0  0
  2  3  1  0  0  0  0
  4  2  1  1  0  0  0
  4  5  1  0  0  0  0
  4  6  1  0  0  0  0
  6  7  1  6  0  0  0
  6  8  1  0  0  0  0
  8  9  1  0  0  0  0
  9  5  1  1  0  0  0
  9 20  1  0  0  0  0
 10 11  1  0  0  0  0
 10 16  1  0  0  0  0
 11 12  1  6  0  0  0
 11 13  1  0  0  0  0
 14 13  1  1  0  0  0
 14 15  1  0  0  0  0
 14 20  1  0  0  0  0
 15 16  1  6  0  0  0
 15 18  1  0  0  0  0
 16 17  2  0  0  0  0
 18 19  1  0  0  0  0
 20 19  1  6  0  0  0
M  CHG  1  22  -1
M  END
>  <CHROM.1>
-58.55663987,57.53740997,74.01560406,-139.22951752,20.67406487,2.28011283
27.75152075,-0.10503926,0.85513579,-3.13331429

>  <Name>
ligand

>  <RI>
0

>  <Rbt.Current_Directory>
/home/itssahil/PROJECTS/Mol_Feturizer/Test_systems_manuscript/rnas/3slm

>  <Rbt.Executable>
rbdock ($Id: //depot/dev/client3/rdock/2013.1/src/exe/rbdock.cxx#4 $)

>  <Rbt.Library>
libRbt.so (2013.1, Build901 2013/11/27)

>  <Rbt.Parameter_File>
/export/apps/rDock/src/rDock_2013.1_src/data/scripts/dock_solv.prm

>  <Rbt.Receptor>
prm/blind_docking_80.prm

>  <SCORE>
-21.6081

>  <SCORE.INTER>
-16.5726

>  <SCORE.INTER.CONST>
1

>  <SCORE.INTER.POLAR>
0

>  <SCORE.INTER.ROT>
4

>  <SCORE.INTER.SOLV>
24.3549

>  <SCORE.INTER.VDW>
-25.4333

>  <SCORE.INTER.norm>
-0.720546

>  <SCORE.INTRA>
-5.0355

>  <SCORE.INTRA.DIHEDRAL>
-6.41973

>  <SCORE.INTRA.DIHEDRAL.0>
8.62657

>  <SCORE.INTRA.POLAR>
0

>  <SCORE.INTRA.POLAR.0>
0

>  <SCORE.INTRA.REPUL>
0

>  <SCORE.INTRA.REPUL.0>
0

>  <SCORE.INTRA.SOLV>
0.327186

>  <SCORE.INTRA.SOLV.lig_0>
-66.3641

>  <SCORE.INTRA.VDW>
-1.98923

>  <SCORE.INTRA.VDW.0>
0.452231

>  <SCORE.INTRA.norm>
-0.218935

>  <SCORE.RESTR>
0

>  <SCORE.RESTR.CAVITY>
0

>  <SCORE.RESTR.norm>
0

>  <SCORE.SYSTEM>
0

>  <SCORE.SYSTEM.CONST>
0

>  <SCORE.SYSTEM.DIHEDRAL>
0

>  <SCORE.SYSTEM.SOLV>
0

>  <SCORE.SYSTEM.norm>
0

>  <SCORE.heavy>
23

>  <SCORE.norm>
-0.939481

>  <RMSD>
1.356

$$$$
ligand
 OpenBabel02271912143D
libRbt.so/2013.1/901 2013/11/27
 23 25  0  0  0  0  0  0  0  0999 V2000
   24.2561   -0.1916   28.5200 P   0  0  1  0  0  0  0  0  0  0  0  0
   23.1612    2.1673   28.8234 C   0  0  0  0  0  0  0  0  0  0  0  0
   23.6617    1.1821   27.9303 O   0  0  0  0  0  0  0  0  0  0  0  0
   22.7703    3.3700   27.9945 C   0  0  1  0  0  0  0  0  0  0  0  0
   22.0312    3.0024   26.8303 O   0  0  0  0  0  0  0  0  0  0  0  0
   21.8957    4.2889   28.8307 C   0  0  1  0  0  0  0  0  0  0  0  0
   22.3866    5.6323   28.6814 O   0  0  0  0  0  0  0  0  0  0  0  0
   20.4892    4.1256   28.2681 C   0  0  0  0  0  0  0  0  0  0  0  0
   20.7076    3.5517   26.8708 C   0  0  2  0  0  0  0  0  0  0  0  0
   17.5302    1.2660   23.5223 N   0  0  0  0  0  0  0  0  0  0  0  0
   18.2308    2.3997   23.3560 C   0  0  2  0  0  0  0  0  0  0  0  0
   18.1201    3.0424   22.1702 N   0  0  0  0  0  0  0  0  0  0  0  0
   19.0296    2.8781   24.3403 N   0  0  0  0  0  0  0  0  0  0  0  0
   19.1236    2.2087   25.5077 C   0  0  2  0  0  0  0  0  0  0  0  0
   18.4095    1.0449   25.6950 C   0  0  1  0  0  0  0  0  0  0  0  0
   17.6078    0.5732   24.6730 C   0  0  0  0  0  0  0  0  0  0  0  0
   16.9571   -0.4839   24.8205 O   0  0  0  0  0  0  0  0  0  0  0  0
   18.6735    0.5872   26.9348 N   0  0  0  0  0  0  0  0  0  0  0  0
   19.5392    1.4455   27.5024 C   0  0  0  0  0  0  0  0  0  0  0  0
   19.7955    2.4282   26.6322 N   0  0  1  0  0  0  0  0  0  0  0  0
   24.0140   -1.2592   27.4809 O   0  0  0  0  0  0  0  0  0  0  0  0
   25.7145    0.1190   28.7669 O   0  5  0  0  0  0  0  0  0  0  0  0
   23.4542   -0.3857   29.7785 O   0  0  0  0  0  0  0  0  0  0  0  0
  1  3  1  6  0  0  0
  1 21  1  0  0  0  0
  1 22  1  0  0  0  0
  1 23  2  0  0  0  0
  2  3  1  0  0  0  0
  4  2  1  1  0  0  0
  4  5  1  0  0  0  0
  4  6  1  0  0  0  0
  6  7  1  6  0  0  0
  6  8  1  0  0  0  0
  8  9  1  0  0  0  0
  9  5  1  1  0  0  0
  9 20  1  0  0  0  0
 10 11  1  0  0  0  0
 10 16  1  0  0  0  0
 11 12  1  6  0  0  0
 11 13  1  0  0  0  0
 14 13  1  1  0  0  0
 14 15  1  0  0  0  0
 14 20  1  0  0  0  0
 15 16  1  6  0  0  0
 15 18  1  0  0  0  0
 16 17  2  0  0  0  0
 18 19  1  0  0  0  0
 20 19  1  6  0  0  0
M  CHG  1  22  -1
M  END
>  <CHROM.1>
150.25418948,45.39476183,175.95892625,-106.30487204,21.06825605,1.72924260
26.85653977,0.00273572,0.63805652,-2.97188993

>  <Name>
ligand

>  <RI>
416

>  <Rbt.Current_Directory>
/home/itssahil/PROJECTS/Mol_Feturizer/Test_systems_manuscript/rnas/3slm

>  <Rbt.Executable>
rbdock ($Id: //depot/dev/client3/rdock/2013.1/src/exe/rbdock.cxx#4 $)

>  <Rbt.Library>
libRbt.so (2013.1, Build901 2013/11/27)

>  <Rbt.Parameter_File>
/export/apps/rDock/src/rDock_2013.1_src/data/scripts/dock_solv.prm

>  <Rbt.Receptor>
prm/pocket_docking_4.prm

>  <SCORE>
-21.947

>  <SCORE.INTER>
-18.1779

>  <SCORE.INTER.CONST>
1

>  <SCORE.INTER.POLAR>
0

>  <SCORE.INTER.ROT>
4

>  <SCORE.INTER.SOLV>
25.9247

>  <SCORE.INTER.VDW>
-27.0268

>  <SCORE.INTER.norm>
-0.790342

>  <SCORE.INTRA>
-3.76909

>  <SCORE.INTRA.DIHEDRAL>
-5.4986

>  <SCORE.INTRA.DIHEDRAL.0>
8.62657

>  <SCORE.INTRA.POLAR>
0

>  <SCORE.INTRA.POLAR.0>
0

>  <SCORE.INTRA.REPUL>
0

>  <SCORE.INTRA.REPUL.0>
0

>  <SCORE.INTRA.SOLV>
-0.02392

>  <SCORE.INTRA.SOLV.lig_0>
-66.3641

>  <SCORE.INTRA.VDW>
-1.00783

>  <SCORE.INTRA.VDW.0>
0.452231

>  <SCORE.INTRA.norm>
-0.163874

>  <SCORE.RESTR>
0

>  <SCORE.RESTR.CAVITY>
0

>  <SCORE.RESTR.norm>
0

>  <SCORE.SYSTEM>
0

>  <SCORE.SYSTEM.CONST>
0

>  <SCORE.SYSTEM.DIHEDRAL>
0

>  <SCORE.SYSTEM.SOLV>
0

>  <SCORE.SYSTEM.norm>
0

>  <SCORE.heavy>
23

>  <SCORE.norm>
-0.954216

>  <RMSD>
1.358

$$$$
ligand
 OpenBabel02271912143D
libRbt.so/2013.1/901 2013/11/27
 23 25  0  0  0  0  0  0  0  0999 V2000
   24.2686    0.3379   28.4867 P   0  0  1  0  0  0  0  0  0  0  0  0
   22.0575    1.3946   29.4085 C   0  0  0  0  0  0  0  0  0  0  0  0
   22.6777    0.3140   28.7255 O   0  0  0  0  0  0  0  0  0  0  0  0
   22.0972    2.5925   28.4866 C   0  0  1  0  0  0  0  0  0  0  0  0
   21.6589    2.2695   27.1673 O   0  0  0  0  0  0  0  0  0  0  0  0
   21.1772    3.6719   29.0318 C   0  0  1  0  0  0  0  0  0  0  0  0
   21.8891    4.9212   29.0071 O   0  0  0  0  0  0  0  0  0  0  0  0
   19.9714    3.6795   28.1005 C   0  0  0  0  0  0  0  0  0  0  0  0
   20.4748    3.0031   26.8282 C   0  0  2  0  0  0  0  0  0  0  0  0
   17.4234    1.5073   22.9573 N   0  0  0  0  0  0  0  0  0  0  0  0
   18.2196    2.5875   23.0129 C   0  0  2  0  0  0  0  0  0  0  0  0
   18.2573    3.4007   21.9318 N   0  0  0  0  0  0  0  0  0  0  0  0
   18.9675    2.8482   24.1122 N   0  0  0  0  0  0  0  0  0  0  0  0
   18.9126    2.0129   25.1700 C   0  0  2  0  0  0  0  0  0  0  0  0
   18.0991    0.9012   25.1295 C   0  0  1  0  0  0  0  0  0  0  0  0
   17.3519    0.6526   23.9939 C   0  0  0  0  0  0  0  0  0  0  0  0
   16.6128   -0.3536   23.9347 O   0  0  0  0  0  0  0  0  0  0  0  0
   18.2232    0.2493   26.3025 N   0  0  0  0  0  0  0  0  0  0  0  0
   19.1012    0.9384   27.0525 C   0  0  0  0  0  0  0  0  0  0  0  0
   19.5032    2.0094   26.3597 N   0  0  1  0  0  0  0  0  0  0  0  0
   24.5532    1.4644   27.5233 O   0  0  0  0  0  0  0  0  0  0  0  0
   24.8416    0.5408   29.8704 O   0  5  0  0  0  0  0  0  0  0  0  0
   24.5371   -1.0264   27.9114 O   0  0  0  0  0  0  0  0  0  0  0  0
  1  3  1  1  0  0  0
  1 21  1  0  0  0  0
  1 22  1  0  0  0  0
  1 23  2  0  0  0  0
  2  3  1  0  0  0  0
  4  2  1  1  0  0  0
  4  5  1  0  0  0  0
  4  6  1  0  0  0  0
  6  7  1  6  0  0  0
  6  8  1  0  0  0  0
  8  9  1  0  0  0  0
  9  5  1  1  0  0  0
  9 20  1  0  0  0  0
 10 11  1  0  0  0  0
 10 16  1  0  0  0  0
 11 12  1  6  0  0  0
 11 13  1  0  0  0  0
 14 13  1  1  0  0  0
 14 15  1  0  0  0  0
 14 20  1  0  0  0  0
 15 16  1  6  0  0  0
 15 18  1  0  0  0  0
 16 17  2  0  0  0  0
 18 19  1  0  0  0  0
 20 19  1  6  0  0  0
M  CHG  1  22  -1
M  END
>  <CHROM.1>
-67.23308272,47.76411823,70.69788064,-122.45720706,20.79702616,1.63985277
26.72502010,-0.16775990,0.68147746,-2.76901705

>  <Name>
ligand

>  <RI>
0

>  <Rbt.Current_Directory>
/home/itssahil/PROJECTS/Mol_Feturizer/Test_systems_manuscript/rnas/3slm

>  <Rbt.Executable>
rbdock ($Id: //depot/dev/client3/rdock/2013.1/src/exe/rbdock.cxx#4 $)

>  <Rbt.Library>
libRbt.so (2013.1, Build901 2013/11/27)

>  <Rbt.Parameter_File>
/export/apps/rDock/src/rDock_2013.1_src/data/scripts/dock_solv.prm

>  <Rbt.Receptor>
prm/pocket_docking_3.prm

>  <SCORE>
-20.9136

>  <SCORE.INTER>
-16.1298

>  <SCORE.INTER.CONST>
1

>  <SCORE.INTER.POLAR>
0

>  <SCORE.INTER.ROT>
4

>  <SCORE.INTER.SOLV>
25.884

>  <SCORE.INTER.VDW>
-25.6479

>  <SCORE.INTER.norm>
-0.701298

>  <SCORE.INTRA>
-4.78373

>  <SCORE.INTRA.DIHEDRAL>
-6.27033

>  <SCORE.INTRA.DIHEDRAL.0>
8.62657

>  <SCORE.INTRA.POLAR>
0

>  <SCORE.INTRA.POLAR.0>
0

>  <SCORE.INTRA.REPUL>
0

>  <SCORE.INTRA.REPUL.0>
0

>  <SCORE.INTRA.SOLV>
0.536784

>  <SCORE.INTRA.SOLV.lig_0>
-66.3641

>  <SCORE.INTRA.VDW>
-1.91696

>  <SCORE.INTRA.VDW.0>
0.452231

>  <SCORE.INTRA.norm>
-0.207988

>  <SCORE.RESTR>
0

>  <SCORE.RESTR.CAVITY>
0

>  <SCORE.RESTR.norm>
0

>  <SCORE.SYSTEM>
0

>  <SCORE.SYSTEM.CONST>
0

>  <SCORE.SYSTEM.DIHEDRAL>
0

>  <SCORE.SYSTEM.SOLV>
0

>  <SCORE.SYSTEM.norm>
0

>  <SCORE.heavy>
23

>  <SCORE.norm>
-0.909286

>  <RMSD>
1.360

$$$$
ligand
 OpenBabel02271912143D
libRbt.so/2013.1/901 2013/11/27
 23 25  0  0  0  0  0  0  0  0999 V2000
   23.4090    2.1798   31.9683 P   0  0  1  0  0  0  0  0  0  0  0  0
   22.7208    2.5141   29.4644 C   0  0  0  0  0  0  0  0  0  0  0  0
   23.2608    3.0863   30.6475 O   0  0  0  0  0  0  0  0  0  0  0  0
   22.4505    3.6463   28.4991 C   0  0  1  0  0  0  0  0  0  0  0  0
   21.8998    3.1816   27.2672 O   0  0  0  0  0  0  0  0  0  0  0  0
   21.4515    4.6058   29.1234 C   0  0  1  0  0  0  0  0  0  0  0  0
   21.9485    5.9442   28.9508 O   0  0  0  0  0  0  0  0  0  0  0  0
   20.1482    4.3754   28.3688 C   0  0  0  0  0  0  0  0  0  0  0  0
   20.5809    3.7066   27.0667 C   0  0  2  0  0  0  0  0  0  0  0  0
   17.5860    1.3757   23.5841 N   0  0  0  0  0  0  0  0  0  0  0  0
   18.2399    2.5426   23.4640 C   0  0  2  0  0  0  0  0  0  0  0  0
   18.1288    3.2113   22.2927 N   0  0  0  0  0  0  0  0  0  0  0  0
   18.9937    3.0287   24.4795 N   0  0  0  0  0  0  0  0  0  0  0  0
   19.0897    2.3332   25.6313 C   0  0  2  0  0  0  0  0  0  0  0  0
   18.4232    1.1351   25.7712 C   0  0  1  0  0  0  0  0  0  0  0  0
   17.6671    0.6564   24.7182 C   0  0  0  0  0  0  0  0  0  0  0  0
   17.0602   -0.4313   24.8226 O   0  0  0  0  0  0  0  0  0  0  0  0
   18.6780    0.6563   27.0050 N   0  0  0  0  0  0  0  0  0  0  0  0
   19.4917    1.5358   27.6154 C   0  0  0  0  0  0  0  0  0  0  0  0
   19.7249    2.5515   26.7772 N   0  0  1  0  0  0  0  0  0  0  0  0
   23.9961    3.0606   33.0443 O   0  0  0  0  0  0  0  0  0  0  0  0
   22.0000    1.7095   32.2473 O   0  5  0  0  0  0  0  0  0  0  0  0
   24.3370    1.0851   31.5158 O   0  0  0  0  0  0  0  0  0  0  0  0
  1  3  1  6  0  0  0
  1 21  1  0  0  0  0
  1 22  1  0  0  0  0
  1 23  2  0  0  0  0
  2  3  1  0  0  0  0
  4  2  1  1  0  0  0
  4  5  1  0  0  0  0
  4  6  1  0  0  0  0
  6  7  1  6  0  0  0
  6  8  1  0  0  0  0
  8  9  1  0  0  0  0
  9  5  1  1  0  0  0
  9 20  1  0  0  0  0
 10 11  1  0  0  0  0
 10 16  1  0  0  0  0
 11 12  1  6  0  0  0
 11 13  1  0  0  0  0
 14 13  1  1  0  0  0
 14 15  1  0  0  0  0
 14 20  1  0  0  0  0
 15 16  1  6  0  0  0
 15 18  1  0  0  0  0
 16 17  2  0  0  0  0
 18 19  1  0  0  0  0
 20 19  1  6  0  0  0
M  CHG  1  22  -1
M  END
>  <CHROM.1>
-179.63212919,-179.90379131,168.98733709,-115.75681768,20.74846402,2.50505069
27.94595887,0.33854605,0.90284269,2.58920822

>  <Name>
ligand

>  <RI>
0

>  <Rbt.Current_Directory>
/home/itssahil/PROJECTS/Mol_Feturizer/Test_systems_manuscript/rnas/3slm

>  <Rbt.Executable>
rbdock ($Id: //depot/dev/client3/rdock/2013.1/src/exe/rbdock.cxx#4 $)

>  <Rbt.Library>
libRbt.so (2013.1, Build901 2013/11/27)

>  <Rbt.Parameter_File>
/export/apps/rDock/src/rDock_2013.1_src/data/scripts/dock_solv.prm

>  <Rbt.Receptor>
prm/pocket_docking_7.prm

>  <SCORE>
-24.5492

>  <SCORE.INTER>
-19.7928

>  <SCORE.INTER.CONST>
1

>  <SCORE.INTER.POLAR>
0

>  <SCORE.INTER.ROT>
4

>  <SCORE.INTER.SOLV>
27.1637

>  <SCORE.INTER.VDW>
-28.5165

>  <SCORE.INTER.norm>
-0.860557

>  <SCORE.INTRA>
-4.75742

>  <SCORE.INTRA.DIHEDRAL>
-6.85176

>  <SCORE.INTRA.DIHEDRAL.0>
8.62657

>  <SCORE.INTRA.POLAR>
0

>  <SCORE.INTRA.POLAR.0>
0

>  <SCORE.INTRA.REPUL>
0

>  <SCORE.INTRA.REPUL.0>
0

>  <SCORE.INTRA.SOLV>
0.369836

>  <SCORE.INTRA.SOLV.lig_0>
-66.3641

>  <SCORE.INTRA.VDW>
-1.51645

>  <SCORE.INTRA.VDW.0>
0.452231

>  <SCORE.INTRA.norm>
-0.206844

>  <SCORE.RESTR>
0.0010203

>  <SCORE.RESTR.CAVITY>
0.0010203

>  <SCORE.RESTR.norm>
4.4361e-05

>  <SCORE.SYSTEM>
0

>  <SCORE.SYSTEM.CONST>
0

>  <SCORE.SYSTEM.DIHEDRAL>
0

>  <SCORE.SYSTEM.SOLV>
0

>  <SCORE.SYSTEM.norm>
0

>  <SCORE.heavy>
23

>  <SCORE.norm>
-1.06736

>  <RMSD>
1.360

$$$$
ligand
 OpenBabel02271912143D
libRbt.so/2013.1/901 2013/11/27
 23 25  0  0  0  0  0  0  0  0999 V2000
   23.9268    1.7748   30.6936 P   0  0  1  0  0  0  0  0  0  0  0  0
   21.4823    2.6833   30.4601 C   0  0  0  0  0  0  0  0  0  0  0  0
   22.3654    1.5746   30.3613 O   0  0  0  0  0  0  0  0  0  0  0  0
   21.7536    3.5825   29.2751 C   0  0  1  0  0  0  0  0  0  0  0  0
   21.6138    2.8919   28.0340 O   0  0  0  0  0  0  0  0  0  0  0  0
   20.7597    4.7316   29.2833 C   0  0  1  0  0  0  0  0  0  0  0  0
   21.4870    5.9540   29.0715 O   0  0  0  0  0  0  0  0  0  0  0  0
   19.7926    4.4339   28.1443 C   0  0  0  0  0  0  0  0  0  0  0  0
   20.5520    3.4552   27.2526 C   0  0  2  0  0  0  0  0  0  0  0  0
   17.6274    1.3690   23.5612 N   0  0  0  0  0  0  0  0  0  0  0  0
   18.3025    2.5294   23.5246 C   0  0  2  0  0  0  0  0  0  0  0  0
   18.2369    3.2629   22.3891 N   0  0  0  0  0  0  0  0  0  0  0  0
   19.0329    2.9465   24.5869 N   0  0  0  0  0  0  0  0  0  0  0  0
   19.0835    2.1876   25.7010 C   0  0  2  0  0  0  0  0  0  0  0  0
   18.3948    0.9952   25.7552 C   0  0  1  0  0  0  0  0  0  0  0  0
   17.6633    0.5877   24.6558 C   0  0  0  0  0  0  0  0  0  0  0  0
   17.0369   -0.4937   24.6825 O   0  0  0  0  0  0  0  0  0  0  0  0
   18.6050    0.4456   26.9677 N   0  0  0  0  0  0  0  0  0  0  0  0
   19.4135    1.2765   27.6490 C   0  0  0  0  0  0  0  0  0  0  0  0
   19.6874    2.3323   26.8751 N   0  0  1  0  0  0  0  0  0  0  0  0
   24.4496    2.8229   29.7416 O   0  0  0  0  0  0  0  0  0  0  0  0
   23.9396    2.1902   32.1467 O   0  5  0  0  0  0  0  0  0  0  0  0
   24.4956    0.4034   30.4481 O   0  0  0  0  0  0  0  0  0  0  0  0
  1  3  1  6  0  0  0
  1 21  1  0  0  0  0
  1 22  1  0  0  0  0
  1 23  2  0  0  0  0
  2  3  1  0  0  0  0
  4  2  1  1  0  0  0
  4  5  1  0  0  0  0
  4  6  1  0  0  0  0
  6  7  1  6  0  0  0
  6  8  1  0  0  0  0
  8  9  1  0  0  0  0
  9  5  1  1  0  0  0
  9 20  1  0  0  0  0
 10 11  1  0  0  0  0
 10 16  1  0  0  0  0
 11 12  1  6  0  0  0
 11 13  1  0  0  0  0
 14 13  1  1  0  0  0
 14 15  1  0  0  0  0
 14 20  1  0  0  0  0
 15 16  1  6  0  0  0
 15 18  1  0  0  0  0
 16 17  2  0  0  0  0
 18 19  1  0  0  0  0
 20 19  1  6  0  0  0
M  CHG  1  22  -1
M  END
>  <CHROM.1>
-59.19629205,56.41614099,73.73452825,-141.80362368,20.71858365,2.32111825
27.72898768,-0.05979975,0.85919868,3.10347001

>  <Name>
ligand

>  <RI>
416

>  <Rbt.Current_Directory>
/home/itssahil/PROJECTS/Mol_Feturizer/Test_systems_manuscript/rnas/3slm

>  <Rbt.Executable>
rbdock ($Id: //depot/dev/client3/rdock/2013.1/src/exe/rbdock.cxx#4 $)

>  <Rbt.Library>
libRbt.so (2013.1, Build901 2013/11/27)

>  <Rbt.Parameter_File>
/export/apps/rDock/src/rDock_2013.1_src/data/scripts/dock_solv.prm

>  <Rbt.Receptor>
prm/pocket_docking_4.prm

>  <SCORE>
-21.7017

>  <SCORE.INTER>
-16.6819

>  <SCORE.INTER.CONST>
1

>  <SCORE.INTER.POLAR>
0

>  <SCORE.INTER.ROT>
4

>  <SCORE.INTER.SOLV>
24.5461

>  <SCORE.INTER.VDW>
-25.57

>  <SCORE.INTER.norm>
-0.725298

>  <SCORE.INTRA>
-5.01989

>  <SCORE.INTRA.DIHEDRAL>
-6.43077

>  <SCORE.INTRA.DIHEDRAL.0>
8.62657

>  <SCORE.INTRA.POLAR>
0

>  <SCORE.INTRA.POLAR.0>
0

>  <SCORE.INTRA.REPUL>
0

>  <SCORE.INTRA.REPUL.0>
0

>  <SCORE.INTRA.SOLV>
0.344471

>  <SCORE.INTRA.SOLV.lig_0>
-66.3641

>  <SCORE.INTRA.VDW>
-1.97674

>  <SCORE.INTRA.VDW.0>
0.452231

>  <SCORE.INTRA.norm>
-0.218256

>  <SCORE.RESTR>
0

>  <SCORE.RESTR.CAVITY>
0

>  <SCORE.RESTR.norm>
0

>  <SCORE.SYSTEM>
0

>  <SCORE.SYSTEM.CONST>
0

>  <SCORE.SYSTEM.DIHEDRAL>
0

>  <SCORE.SYSTEM.SOLV>
0

>  <SCORE.SYSTEM.norm>
0

>  <SCORE.heavy>
23

>  <SCORE.norm>
-0.943554

>  <RMSD>
1.361

$$$$
ligand
 OpenBabel02271912143D
libRbt.so/2013.1/901 2013/11/27
 23 25  0  0  0  0  0  0  0  0999 V2000
   24.6287    0.1274   28.8834 P   0  0  1  0  0  0  0  0  0  0  0  0
   23.1662    2.2948   29.0203 C   0  0  0  0  0  0  0  0  0  0  0  0
   24.2089    1.5900   28.3610 O   0  0  0  0  0  0  0  0  0  0  0  0
   22.8084    3.4826   28.1557 C   0  0  1  0  0  0  0  0  0  0  0  0
   22.1202    3.0938   26.9674 O   0  0  0  0  0  0  0  0  0  0  0  0
   21.8971    4.4127   28.9386 C   0  0  1  0  0  0  0  0  0  0  0  0
   22.3912    5.7548   28.7881 O   0  0  0  0  0  0  0  0  0  0  0  0
   20.5162    4.2363   28.3196 C   0  0  0  0  0  0  0  0  0  0  0  0
   20.7949    3.6400   26.9425 C   0  0  2  0  0  0  0  0  0  0  0  0
   17.5601    1.4339   23.5957 N   0  0  0  0  0  0  0  0  0  0  0  0
   18.2353    2.5864   23.4563 C   0  0  2  0  0  0  0  0  0  0  0  0
   18.0780    3.2750   22.3019 N   0  0  0  0  0  0  0  0  0  0  0  0
   19.0545    3.0391   24.4360 N   0  0  0  0  0  0  0  0  0  0  0  0
   19.1950    2.3243   25.5714 C   0  0  2  0  0  0  0  0  0  0  0  0
   18.5075    1.1406   25.7308 C   0  0  1  0  0  0  0  0  0  0  0  0
   17.6842    0.6961   24.7139 C   0  0  0  0  0  0  0  0  0  0  0  0
   17.0569   -0.3782   24.8362 O   0  0  0  0  0  0  0  0  0  0  0  0
   18.8163    0.6376   26.9424 N   0  0  0  0  0  0  0  0  0  0  0  0
   19.6832    1.4880   27.5198 C   0  0  0  0  0  0  0  0  0  0  0  0
   19.8962    2.5103   26.6841 N   0  0  1  0  0  0  0  0  0  0  0  0
   23.7172   -0.8633   28.2010 O   0  0  0  0  0  0  0  0  0  0  0  0
   26.0842    0.0059   28.4950 O   0  5  0  0  0  0  0  0  0  0  0  0
   24.4019    0.2286   30.3676 O   0  0  0  0  0  0  0  0  0  0  0  0
  1  3  1  6  0  0  0
  1 21  1  0  0  0  0
  1 22  1  0  0  0  0
  1 23  2  0  0  0  0
  2  3  1  0  0  0  0
  4  2  1  1  0  0  0
  4  5  1  0  0  0  0
  4  6  1  0  0  0  0
  6  7  1  6  0  0  0
  6  8  1  0  0  0  0
  8  9  1  0  0  0  0
  9  5  1  1  0  0  0
  9 20  1  0  0  0  0
 10 11  1  0  0  0  0
 10 16  1  0  0  0  0
 11 12  1  6  0  0  0
 11 13  1  0  0  0  0
 14 13  1  1  0  0  0
 14 15  1  0  0  0  0
 14 20  1  0  0  0  0
 15 16  1  6  0  0  0
 15 18  1  0  0  0  0
 16 17  2  0  0  0  0
 18 19  1  0  0  0  0
 20 19  1  6  0  0  0
M  CHG  1  22  -1
M  END
>  <CHROM.1>
86.44603175,71.56672019,-168.68318895,-111.66910752,21.21565278,1.90542593
27.01812706,-0.00321428,0.63934911,-2.97668754

>  <Name>
ligand

>  <RI>
0

>  <Rbt.Current_Directory>
/home/itssahil/PROJECTS/Mol_Feturizer/Test_systems_manuscript/rnas/3slm

>  <Rbt.Executable>
rbdock ($Id: //depot/dev/client3/rdock/2013.1/src/exe/rbdock.cxx#4 $)

>  <Rbt.Library>
libRbt.so (2013.1, Build901 2013/11/27)

>  <Rbt.Parameter_File>
/export/apps/rDock/src/rDock_2013.1_src/data/scripts/dock_solv.prm

>  <Rbt.Receptor>
prm/pocket_docking_3.prm

>  <SCORE>
-21.8787

>  <SCORE.INTER>
-17.7143

>  <SCORE.INTER.CONST>
1

>  <SCORE.INTER.POLAR>
0

>  <SCORE.INTER.ROT>
4

>  <SCORE.INTER.SOLV>
23.976

>  <SCORE.INTER.VDW>
-26.0682

>  <SCORE.INTER.norm>
-0.770188

>  <SCORE.INTRA>
-4.16441

>  <SCORE.INTRA.DIHEDRAL>
-5.35177

>  <SCORE.INTRA.DIHEDRAL.0>
8.62657

>  <SCORE.INTRA.POLAR>
0

>  <SCORE.INTRA.POLAR.0>
0

>  <SCORE.INTRA.REPUL>
0

>  <SCORE.INTRA.REPUL.0>
0

>  <SCORE.INTRA.SOLV>
-0.459089

>  <SCORE.INTRA.SOLV.lig_0>
-66.3641

>  <SCORE.INTRA.VDW>
-1.25898

>  <SCORE.INTRA.VDW.0>
0.452231

>  <SCORE.INTRA.norm>
-0.181061

>  <SCORE.RESTR>
0

>  <SCORE.RESTR.CAVITY>
0

>  <SCORE.RESTR.norm>
0

>  <SCORE.SYSTEM>
0

>  <SCORE.SYSTEM.CONST>
0

>  <SCORE.SYSTEM.DIHEDRAL>
0

>  <SCORE.SYSTEM.SOLV>
0

>  <SCORE.SYSTEM.norm>
0

>  <SCORE.heavy>
23

>  <SCORE.norm>
-0.951249

>  <RMSD>
1.363

$$$$
ligand
 OpenBabel02271912143D
libRbt.so/2013.1/901 2013/11/27
 23 25  0  0  0  0  0  0  0  0999 V2000
   24.9072    0.0112   28.4111 P   0  0  1  0  0  0  0  0  0  0  0  0
   23.2170    1.9902   28.6979 C   0  0  0  0  0  0  0  0  0  0  0  0
   24.2443    1.3922   27.9194 O   0  0  0  0  0  0  0  0  0  0  0  0
   22.7529    3.2252   27.9591 C   0  0  1  0  0  0  0  0  0  0  0  0
   21.9853    2.9010   26.8004 O   0  0  0  0  0  0  0  0  0  0  0  0
   21.8769    4.0574   28.8803 C   0  0  1  0  0  0  0  0  0  0  0  0
   22.3133    5.4252   28.7978 O   0  0  0  0  0  0  0  0  0  0  0  0
   20.4576    3.8749   28.3573 C   0  0  0  0  0  0  0  0  0  0  0  0
   20.6451    3.3957   26.9203 C   0  0  2  0  0  0  0  0  0  0  0  0
   17.4387    1.1932   23.5439 N   0  0  0  0  0  0  0  0  0  0  0  0
   18.0925    2.3602   23.4236 C   0  0  2  0  0  0  0  0  0  0  0  0
   17.9186    3.0670   22.2827 N   0  0  0  0  0  0  0  0  0  0  0  0
   18.9069    2.8096   24.4089 N   0  0  0  0  0  0  0  0  0  0  0  0
   19.0644    2.0767   25.5304 C   0  0  2  0  0  0  0  0  0  0  0  0
   18.3990    0.8779   25.6701 C   0  0  1  0  0  0  0  0  0  0  0  0
   17.5802    0.4373   24.6478 C   0  0  0  0  0  0  0  0  0  0  0  0
   16.9730   -0.6503   24.7523 O   0  0  0  0  0  0  0  0  0  0  0  0
   18.7213    0.3583   26.8712 N   0  0  0  0  0  0  0  0  0  0  0  0
   19.5748    1.2136   27.4614 C   0  0  0  0  0  0  0  0  0  0  0  0
   19.7661    2.2547   26.6440 N   0  0  1  0  0  0  0  0  0  0  0  0
   24.9846    0.0706   29.9173 O   0  0  0  0  0  0  0  0  0  0  0  0
   23.9750   -1.0512   27.8759 O   0  5  0  0  0  0  0  0  0  0  0  0
   26.2536    0.0331   27.7394 O   0  0  0  0  0  0  0  0  0  0  0  0
  1  3  1  6  0  0  0
  1 21  1  0  0  0  0
  1 22  1  0  0  0  0
  1 23  2  0  0  0  0
  2  3  1  0  0  0  0
  4  2  1  1  0  0  0
  4  5  1  0  0  0  0
  4  6  1  0  0  0  0
  6  7  1  6  0  0  0
  6  8  1  0  0  0  0
  8  9  1  0  0  0  0
  9  5  1  1  0  0  0
  9 20  1  0  0  0  0
 10 11  1  0  0  0  0
 10 16  1  0  0  0  0
 11 12  1  6  0  0  0
 11 13  1  0  0  0  0
 14 13  1  1  0  0  0
 14 15  1  0  0  0  0
 14 20  1  0  0  0  0
 15 16  1  6  0  0  0
 15 18  1  0  0  0  0
 16 17  2  0  0  0  0
 18 19  1  0  0  0  0
 20 19  1  6  0  0  0
M  CHG  1  22  -1
M  END
>  <CHROM.1>
-36.42829190,72.65426762,-177.41894988,-106.12109872,21.21938187,1.67813411
26.83087679,-0.06750735,0.56692383,-2.86181131

>  <Name>
ligand

>  <RI>
416

>  <Rbt.Current_Directory>
/home/itssahil/PROJECTS/Mol_Feturizer/Test_systems_manuscript/rnas/3slm

>  <Rbt.Executable>
rbdock ($Id: //depot/dev/client3/rdock/2013.1/src/exe/rbdock.cxx#4 $)

>  <Rbt.Library>
libRbt.so (2013.1, Build901 2013/11/27)

>  <Rbt.Parameter_File>
/export/apps/rDock/src/rDock_2013.1_src/data/scripts/dock_solv.prm

>  <Rbt.Receptor>
prm/pocket_docking_5.prm

>  <SCORE>
-21.5497

>  <SCORE.INTER>
-16.5549

>  <SCORE.INTER.CONST>
1

>  <SCORE.INTER.POLAR>
0

>  <SCORE.INTER.ROT>
4

>  <SCORE.INTER.SOLV>
28.3751

>  <SCORE.INTER.VDW>
-26.7616

>  <SCORE.INTER.norm>
-0.719778

>  <SCORE.INTRA>
-4.9948

>  <SCORE.INTRA.DIHEDRAL>
-6.03353

>  <SCORE.INTRA.DIHEDRAL.0>
8.62657

>  <SCORE.INTRA.POLAR>
0

>  <SCORE.INTRA.POLAR.0>
0

>  <SCORE.INTRA.REPUL>
0

>  <SCORE.INTRA.REPUL.0>
0

>  <SCORE.INTRA.SOLV>
-0.876151

>  <SCORE.INTRA.SOLV.lig_0>
-66.3641

>  <SCORE.INTRA.VDW>
-1.53996

>  <SCORE.INTRA.VDW.0>
0.452231

>  <SCORE.INTRA.norm>
-0.217165

>  <SCORE.RESTR>
0

>  <SCORE.RESTR.CAVITY>
0

>  <SCORE.RESTR.norm>
0

>  <SCORE.SYSTEM>
0

>  <SCORE.SYSTEM.CONST>
0

>  <SCORE.SYSTEM.DIHEDRAL>
0

>  <SCORE.SYSTEM.SOLV>
0

>  <SCORE.SYSTEM.norm>
0

>  <SCORE.heavy>
23

>  <SCORE.norm>
-0.936944

>  <RMSD>
1.366

$$$$
ligand
 OpenBabel02271912143D
libRbt.so/2013.1/901 2013/11/27
 23 25  0  0  0  0  0  0  0  0999 V2000
   23.7178    0.8890   28.7002 P   0  0  1  0  0  0  0  0  0  0  0  0
   23.0972    3.3410   28.0235 C   0  0  0  0  0  0  0  0  0  0  0  0
   22.6641    2.0958   28.5532 O   0  0  0  0  0  0  0  0  0  0  0  0
   21.9163    4.2844   28.0669 C   0  0  1  0  0  0  0  0  0  0  0  0
   20.9049    3.9221   27.1274 O   0  0  0  0  0  0  0  0  0  0  0  0
   21.2984    4.2460   29.4544 C   0  0  1  0  0  0  0  0  0  0  0  0
   21.0862    5.6009   29.8875 O   0  0  0  0  0  0  0  0  0  0  0  0
   19.9894    3.4840   29.2900 C   0  0  0  0  0  0  0  0  0  0  0  0
   19.6851    3.5774   27.7972 C   0  0  2  0  0  0  0  0  0  0  0  0
   17.9165    0.9563   23.7310 N   0  0  0  0  0  0  0  0  0  0  0  0
   18.1457    2.2761   23.8283 C   0  0  2  0  0  0  0  0  0  0  0  0
   17.9024    3.0415   22.7391 N   0  0  0  0  0  0  0  0  0  0  0  0
   18.6145    2.8209   24.9769 N   0  0  0  0  0  0  0  0  0  0  0  0
   18.8542    2.0284   26.0420 C   0  0  2  0  0  0  0  0  0  0  0  0
   18.6221    0.6725   25.9590 C   0  0  1  0  0  0  0  0  0  0  0  0
   18.1514    0.1396   24.7740 C   0  0  0  0  0  0  0  0  0  0  0  0
   17.9407   -1.0886   24.6762 O   0  0  0  0  0  0  0  0  0  0  0  0
   18.9317    0.1216   27.1494 N   0  0  0  0  0  0  0  0  0  0  0  0
   19.3540    1.1144   27.9521 C   0  0  0  0  0  0  0  0  0  0  0  0
   19.2923    2.2651   27.2733 N   0  0  1  0  0  0  0  0  0  0  0  0
   23.8874    0.2818   27.3288 O   0  0  0  0  0  0  0  0  0  0  0  0
   24.9603    1.5548   29.2454 O   0  5  0  0  0  0  0  0  0  0  0  0
   23.0377   -0.0262   29.6821 O   0  0  0  0  0  0  0  0  0  0  0  0
  1  3  1  6  0  0  0
  1 21  1  0  0  0  0
  1 22  1  0  0  0  0
  1 23  2  0  0  0  0
  2  3  1  0  0  0  0
  4  2  1  1  0  0  0
  4  5  1  0  0  0  0
  4  6  1  0  0  0  0
  6  7  1  6  0  0  0
  6  8  1  0  0  0  0
  8  9  1  0  0  0  0
  9  5  1  6  0  0  0
  9 20  1  0  0  0  0
 10 11  1  0  0  0  0
 10 16  1  0  0  0  0
 11 12  1  6  0  0  0
 11 13  1  0  0  0  0
 14 13  1  1  0  0  0
 14 15  1  0  0  0  0
 14 20  1  0  0  0  0
 15 16  1  6  0  0  0
 15 18  1  0  0  0  0
 16 17  2  0  0  0  0
 18 19  1  0  0  0  0
 20 19  1  6  0  0  0
M  CHG  1  22  -1
M  END
>  <CHROM.1>
-78.62539370,-69.81673199,-177.45533951,-69.88832114,20.71289103,2.00523108
27.20599589,-0.38323377,0.63832813,-2.74031766

>  <Name>
ligand

>  <RI>
0

>  <Rbt.Current_Directory>
/home/itssahil/PROJECTS/Mol_Feturizer/Test_systems_manuscript/rnas/3slm

>  <Rbt.Executable>
rbdock ($Id: //depot/dev/client3/rdock/2013.1/src/exe/rbdock.cxx#4 $)

>  <Rbt.Library>
libRbt.so (2013.1, Build901 2013/11/27)

>  <Rbt.Parameter_File>
/export/apps/rDock/src/rDock_2013.1_src/data/scripts/dock_solv.prm

>  <Rbt.Receptor>
prm/pocket_docking_3.prm

>  <SCORE>
-20.9103

>  <SCORE.INTER>
-16.7879

>  <SCORE.INTER.CONST>
1

>  <SCORE.INTER.POLAR>
0

>  <SCORE.INTER.ROT>
4

>  <SCORE.INTER.SOLV>
25.2249

>  <SCORE.INTER.VDW>
-25.8669

>  <SCORE.INTER.norm>
-0.729907

>  <SCORE.INTRA>
-4.12242

>  <SCORE.INTRA.DIHEDRAL>
-6.58618

>  <SCORE.INTRA.DIHEDRAL.0>
8.62657

>  <SCORE.INTRA.POLAR>
0

>  <SCORE.INTRA.POLAR.0>
0

>  <SCORE.INTRA.REPUL>
0

>  <SCORE.INTRA.REPUL.0>
0

>  <SCORE.INTRA.SOLV>
-0.0454673

>  <SCORE.INTRA.SOLV.lig_0>
-66.3641

>  <SCORE.INTRA.VDW>
-0.806599

>  <SCORE.INTRA.VDW.0>
0.452231

>  <SCORE.INTRA.norm>
-0.179236

>  <SCORE.RESTR>
0

>  <SCORE.RESTR.CAVITY>
0

>  <SCORE.RESTR.norm>
0

>  <SCORE.SYSTEM>
0

>  <SCORE.SYSTEM.CONST>
0

>  <SCORE.SYSTEM.DIHEDRAL>
0

>  <SCORE.SYSTEM.SOLV>
0

>  <SCORE.SYSTEM.norm>
0

>  <SCORE.heavy>
23

>  <SCORE.norm>
-0.909143

>  <RMSD>
1.367

$$$$
ligand
 OpenBabel02271912143D
libRbt.so/2013.1/901 2013/11/27
 23 25  0  0  0  0  0  0  0  0999 V2000
   23.3473    2.1562   31.9973 P   0  0  1  0  0  0  0  0  0  0  0  0
   22.7699    2.4502   29.4605 C   0  0  0  0  0  0  0  0  0  0  0  0
   23.2423    3.0457   30.6609 O   0  0  0  0  0  0  0  0  0  0  0  0
   22.5940    3.5582   28.4467 C   0  0  1  0  0  0  0  0  0  0  0  0
   22.0739    3.0754   27.2084 O   0  0  0  0  0  0  0  0  0  0  0  0
   21.6162    4.5842   28.9942 C   0  0  1  0  0  0  0  0  0  0  0  0
   22.1826    5.8915   28.7982 O   0  0  0  0  0  0  0  0  0  0  0  0
   20.3361    4.3868   28.1919 C   0  0  0  0  0  0  0  0  0  0  0  0
   20.7908    3.6527   26.9333 C   0  0  2  0  0  0  0  0  0  0  0  0
   17.7138    1.4237   23.4555 N   0  0  0  0  0  0  0  0  0  0  0  0
   18.4089    2.5663   23.3331 C   0  0  2  0  0  0  0  0  0  0  0  0
   18.3214    3.2364   22.1606 N   0  0  0  0  0  0  0  0  0  0  0  0
   19.1798    3.0271   24.3476 N   0  0  0  0  0  0  0  0  0  0  0  0
   19.2512    2.3307   25.5007 C   0  0  2  0  0  0  0  0  0  0  0  0
   18.5424    1.1574   25.6429 C   0  0  1  0  0  0  0  0  0  0  0  0
   17.7694    0.7041   24.5909 C   0  0  0  0  0  0  0  0  0  0  0  0
   17.1241   -0.3611   24.6974 O   0  0  0  0  0  0  0  0  0  0  0  0
   18.7803    0.6721   26.8775 N   0  0  0  0  0  0  0  0  0  0  0  0
   19.6250    1.5231   27.4862 C   0  0  0  0  0  0  0  0  0  0  0  0
   19.8941    2.5284   26.6460 N   0  0  1  0  0  0  0  0  0  0  0  0
   23.8829    3.0554   33.0849 O   0  0  0  0  0  0  0  0  0  0  0  0
   21.9332    1.6747   32.2264 O   0  5  0  0  0  0  0  0  0  0  0  0
   24.3032    1.0659   31.5947 O   0  0  0  0  0  0  0  0  0  0  0  0
  1  3  1  6  0  0  0
  1 21  1  0  0  0  0
  1 22  1  0  0  0  0
  1 23  2  0  0  0  0
  2  3  1  0  0  0  0
  4  2  1  1  0  0  0
  4  5  1  0  0  0  0
  4  6  1  0  0  0  0
  6  7  1  6  0  0  0
  6  8  1  0  0  0  0
  8  9  1  0  0  0  0
  9  5  1  1  0  0  0
  9 20  1  0  0  0  0
 10 11  1  0  0  0  0
 10 16  1  0  0  0  0
 11 12  1  6  0  0  0
 11 13  1  0  0  0  0
 14 13  1  1  0  0  0
 14 15  1  0  0  0  0
 14 20  1  0  0  0  0
 15 16  1  6  0  0  0
 15 18  1  0  0  0  0
 16 17  2  0  0  0  0
 18 19  1  0  0  0  0
 20 19  1  6  0  0  0
M  CHG  1  22  -1
M  END
>  <CHROM.1>
179.62513837,-177.91862174,172.03171233,-118.91733205,20.83995203,2.49101601
27.86889373,0.42500820,0.90224542,2.49934635

>  <Name>
ligand

>  <RI>
0

>  <Rbt.Current_Directory>
/home/itssahil/PROJECTS/Mol_Feturizer/Test_systems_manuscript/rnas/3slm

>  <Rbt.Executable>
rbdock ($Id: //depot/dev/client3/rdock/2013.1/src/exe/rbdock.cxx#4 $)

>  <Rbt.Library>
libRbt.so (2013.1, Build901 2013/11/27)

>  <Rbt.Parameter_File>
/export/apps/rDock/src/rDock_2013.1_src/data/scripts/dock_solv.prm

>  <Rbt.Receptor>
prm/pocket_docking_7.prm

>  <SCORE>
-24.6332

>  <SCORE.INTER>
-19.7528

>  <SCORE.INTER.CONST>
1

>  <SCORE.INTER.POLAR>
0

>  <SCORE.INTER.ROT>
4

>  <SCORE.INTER.SOLV>
27.6176

>  <SCORE.INTER.VDW>
-28.641

>  <SCORE.INTER.norm>
-0.858816

>  <SCORE.INTRA>
-4.88581

>  <SCORE.INTRA.DIHEDRAL>
-7.10069

>  <SCORE.INTRA.DIHEDRAL.0>
8.62657

>  <SCORE.INTRA.POLAR>
0

>  <SCORE.INTRA.POLAR.0>
0

>  <SCORE.INTRA.REPUL>
0

>  <SCORE.INTRA.REPUL.0>
0

>  <SCORE.INTRA.SOLV>
0.327498

>  <SCORE.INTRA.SOLV.lig_0>
-66.3641

>  <SCORE.INTRA.VDW>
-1.49921

>  <SCORE.INTRA.VDW.0>
0.452231

>  <SCORE.INTRA.norm>
-0.212427

>  <SCORE.RESTR>
0.00537642

>  <SCORE.RESTR.CAVITY>
0.00537642

>  <SCORE.RESTR.norm>
0.000233758

>  <SCORE.SYSTEM>
0

>  <SCORE.SYSTEM.CONST>
0

>  <SCORE.SYSTEM.DIHEDRAL>
0

>  <SCORE.SYSTEM.SOLV>
0

>  <SCORE.SYSTEM.norm>
0

>  <SCORE.heavy>
23

>  <SCORE.norm>
-1.07101

>  <RMSD>
1.370

$$$$
ligand
 OpenBabel02271912143D
libRbt.so/2013.1/901 2013/11/27
 23 25  0  0  0  0  0  0  0  0999 V2000
   24.5380    0.1693   28.4813 P   0  0  1  0  0  0  0  0  0  0  0  0
   22.2891    1.2511   29.2734 C   0  0  0  0  0  0  0  0  0  0  0  0
   22.9341    0.1749   28.6068 O   0  0  0  0  0  0  0  0  0  0  0  0
   22.3335    2.4459   28.3476 C   0  0  1  0  0  0  0  0  0  0  0  0
   21.8206    2.1400   27.0514 O   0  0  0  0  0  0  0  0  0  0  0  0
   21.4846    3.5619   28.9330 C   0  0  1  0  0  0  0  0  0  0  0  0
   22.2444    4.7814   28.8715 O   0  0  0  0  0  0  0  0  0  0  0  0
   20.2374    3.6177   28.0597 C   0  0  0  0  0  0  0  0  0  0  0  0
   20.6524    2.9207   26.7667 C   0  0  2  0  0  0  0  0  0  0  0  0
   17.4039    1.5134   23.0252 N   0  0  0  0  0  0  0  0  0  0  0  0
   18.2505    2.5559   23.0367 C   0  0  2  0  0  0  0  0  0  0  0  0
   18.2886    3.3507   21.9420 N   0  0  0  0  0  0  0  0  0  0  0  0
   19.0470    2.7972   24.1059 N   0  0  0  0  0  0  0  0  0  0  0  0
   18.9900    1.9807   25.1781 C   0  0  2  0  0  0  0  0  0  0  0  0
   18.1251    0.9078   25.1829 C   0  0  1  0  0  0  0  0  0  0  0  0
   17.3287    0.6780   24.0772 C   0  0  0  0  0  0  0  0  0  0  0  0
   16.5423   -0.2934   24.0590 O   0  0  0  0  0  0  0  0  0  0  0  0
   18.2592    0.2678   26.3613 N   0  0  0  0  0  0  0  0  0  0  0  0
   19.1934    0.9258   27.0702 C   0  0  0  0  0  0  0  0  0  0  0  0
   19.6203    1.9669   26.3472 N   0  0  1  0  0  0  0  0  0  0  0  0
   24.9194    1.3669   27.6457 O   0  0  0  0  0  0  0  0  0  0  0  0
   25.0155    0.2308   29.9139 O   0  5  0  0  0  0  0  0  0  0  0  0
   24.8123   -1.1467   27.8050 O   0  0  0  0  0  0  0  0  0  0  0  0
  1  3  1  1  0  0  0
  1 21  1  0  0  0  0
  1 22  1  0  0  0  0
  1 23  2  0  0  0  0
  2  3  1  0  0  0  0
  4  2  1  1  0  0  0
  4  5  1  0  0  0  0
  4  6  1  0  0  0  0
  6  7  1  6  0  0  0
  6  8  1  0  0  0  0
  8  9  1  0  0  0  0
  9  5  1  1  0  0  0
  9 20  1  0  0  0  0
 10 11  1  0  0  0  0
 10 16  1  0  0  0  0
 11 12  1  6  0  0  0
 11 13  1  0  0  0  0
 14 13  1  1  0  0  0
 14 15  1  0  0  0  0
 14 20  1  0  0  0  0
 15 16  1  6  0  0  0
 15 18  1  0  0  0  0
 16 17  2  0  0  0  0
 18 19  1  0  0  0  0
 20 19  1  6  0  0  0
M  CHG  1  22  -1
M  END
>  <CHROM.1>
-63.58970811,52.57788566,74.59752380,-121.31227502,20.95832046,1.55541067
26.70850221,-0.09040085,0.66089782,-2.84214551

>  <Name>
ligand

>  <RI>
416

>  <Rbt.Current_Directory>
/home/itssahil/PROJECTS/Mol_Feturizer/Test_systems_manuscript/rnas/3slm

>  <Rbt.Executable>
rbdock ($Id: //depot/dev/client3/rdock/2013.1/src/exe/rbdock.cxx#4 $)

>  <Rbt.Library>
libRbt.so (2013.1, Build901 2013/11/27)

>  <Rbt.Parameter_File>
/export/apps/rDock/src/rDock_2013.1_src/data/scripts/dock_solv.prm

>  <Rbt.Receptor>
prm/pocket_docking_4.prm

>  <SCORE>
-20.8943

>  <SCORE.INTER>
-16.0008

>  <SCORE.INTER.CONST>
1

>  <SCORE.INTER.POLAR>
0

>  <SCORE.INTER.ROT>
4

>  <SCORE.INTER.SOLV>
25.7726

>  <SCORE.INTER.VDW>
-25.5247

>  <SCORE.INTER.norm>
-0.695686

>  <SCORE.INTRA>
-4.89347

>  <SCORE.INTRA.DIHEDRAL>
-6.20614

>  <SCORE.INTRA.DIHEDRAL.0>
8.62657

>  <SCORE.INTRA.POLAR>
0

>  <SCORE.INTRA.POLAR.0>
0

>  <SCORE.INTRA.REPUL>
0

>  <SCORE.INTRA.REPUL.0>
0

>  <SCORE.INTRA.SOLV>
0.38524

>  <SCORE.INTRA.SOLV.lig_0>
-66.3641

>  <SCORE.INTRA.VDW>
-1.98302

>  <SCORE.INTRA.VDW.0>
0.452231

>  <SCORE.INTRA.norm>
-0.21276

>  <SCORE.RESTR>
0

>  <SCORE.RESTR.CAVITY>
0

>  <SCORE.RESTR.norm>
0

>  <SCORE.SYSTEM>
0

>  <SCORE.SYSTEM.CONST>
0

>  <SCORE.SYSTEM.DIHEDRAL>
0

>  <SCORE.SYSTEM.SOLV>
0

>  <SCORE.SYSTEM.norm>
0

>  <SCORE.heavy>
23

>  <SCORE.norm>
-0.908446

>  <RMSD>
1.371

$$$$
ligand
 OpenBabel02271912143D
libRbt.so/2013.1/901 2013/11/27
 23 25  0  0  0  0  0  0  0  0999 V2000
   23.7324    0.8807   28.8188 P   0  0  1  0  0  0  0  0  0  0  0  0
   22.3526    2.6860   30.1197 C   0  0  0  0  0  0  0  0  0  0  0  0
   23.5597    1.9440   30.0137 O   0  0  0  0  0  0  0  0  0  0  0  0
   22.3409    3.6911   28.9900 C   0  0  1  0  0  0  0  0  0  0  0  0
   22.0045    3.0900   27.7401 O   0  0  0  0  0  0  0  0  0  0  0  0
   21.3044    4.7618   29.2860 C   0  0  1  0  0  0  0  0  0  0  0  0
   21.9080    6.0459   29.0524 O   0  0  0  0  0  0  0  0  0  0  0  0
   20.1550    4.4841   28.3253 C   0  0  0  0  0  0  0  0  0  0  0  0
   20.7827    3.6342   27.2238 C   0  0  2  0  0  0  0  0  0  0  0  0
   17.7877    1.3619   23.7026 N   0  0  0  0  0  0  0  0  0  0  0  0
   18.4427    2.5300   23.6017 C   0  0  2  0  0  0  0  0  0  0  0  0
   18.3328    3.2175   22.4411 N   0  0  0  0  0  0  0  0  0  0  0  0
   19.1963    2.9992   24.6252 N   0  0  0  0  0  0  0  0  0  0  0  0
   19.2911    2.2851   25.7658 C   0  0  2  0  0  0  0  0  0  0  0  0
   18.6236    1.0855   25.8861 C   0  0  1  0  0  0  0  0  0  0  0  0
   17.8676    0.6245   24.8251 C   0  0  0  0  0  0  0  0  0  0  0  0
   17.2597   -0.4643   24.9117 O   0  0  0  0  0  0  0  0  0  0  0  0
   18.8773    0.5868   27.1122 N   0  0  0  0  0  0  0  0  0  0  0  0
   19.6914    1.4557   27.7371 C   0  0  0  0  0  0  0  0  0  0  0  0
   19.9259    2.4846   26.9153 N   0  0  1  0  0  0  0  0  0  0  0  0
   22.3602    0.3290   28.5173 O   0  0  0  0  0  0  0  0  0  0  0  0
   24.3397    1.6900   27.6961 O   0  5  0  0  0  0  0  0  0  0  0  0
   24.6706   -0.1349   29.4128 O   0  0  0  0  0  0  0  0  0  0  0  0
  1  3  1  1  0  0  0
  1 21  1  0  0  0  0
  1 22  1  0  0  0  0
  1 23  2  0  0  0  0
  2  3  1  0  0  0  0
  4  2  1  1  0  0  0
  4  5  1  0  0  0  0
  4  6  1  0  0  0  0
  6  7  1  6  0  0  0
  6  8  1  0  0  0  0
  8  9  1  0  0  0  0
  9  5  1  1  0  0  0
  9 20  1  0  0  0  0
 10 11  1  0  0  0  0
 10 16  1  0  0  0  0
 11 12  1  6  0  0  0
 11 13  1  0  0  0  0
 14 13  1  1  0  0  0
 14 15  1  0  0  0  0
 14 20  1  0  0  0  0
 15 16  1  6  0  0  0
 15 18  1  0  0  0  0
 16 17  2  0  0  0  0
 18 19  1  0  0  0  0
 20 19  1  6  0  0  0
M  CHG  1  22  -1
M  END
>  <CHROM.1>
-31.45712533,77.12593225,-71.67919915,-129.84540407,20.91316815,2.14666311
27.23977777,-0.20805891,0.72753971,-2.92611998

>  <Name>
ligand

>  <RI>
416

>  <Rbt.Current_Directory>
/home/itssahil/PROJECTS/Mol_Feturizer/Test_systems_manuscript/rnas/3slm

>  <Rbt.Executable>
rbdock ($Id: //depot/dev/client3/rdock/2013.1/src/exe/rbdock.cxx#4 $)

>  <Rbt.Library>
libRbt.so (2013.1, Build901 2013/11/27)

>  <Rbt.Parameter_File>
/export/apps/rDock/src/rDock_2013.1_src/data/scripts/dock_solv.prm

>  <Rbt.Receptor>
prm/pocket_docking_4.prm

>  <SCORE>
-20.4282

>  <SCORE.INTER>
-16.5048

>  <SCORE.INTER.CONST>
1

>  <SCORE.INTER.POLAR>
0

>  <SCORE.INTER.ROT>
4

>  <SCORE.INTER.SOLV>
22.8651

>  <SCORE.INTER.VDW>
-24.8916

>  <SCORE.INTER.norm>
-0.717602

>  <SCORE.INTRA>
-3.92338

>  <SCORE.INTRA.DIHEDRAL>
-4.60555

>  <SCORE.INTRA.DIHEDRAL.0>
8.62657

>  <SCORE.INTRA.POLAR>
0

>  <SCORE.INTRA.POLAR.0>
0

>  <SCORE.INTRA.REPUL>
0

>  <SCORE.INTRA.REPUL.0>
0

>  <SCORE.INTRA.SOLV>
1.97026

>  <SCORE.INTRA.SOLV.lig_0>
-66.3641

>  <SCORE.INTRA.VDW>
-2.60573

>  <SCORE.INTRA.VDW.0>
0.452231

>  <SCORE.INTRA.norm>
-0.170582

>  <SCORE.RESTR>
0

>  <SCORE.RESTR.CAVITY>
0

>  <SCORE.RESTR.norm>
0

>  <SCORE.SYSTEM>
0

>  <SCORE.SYSTEM.CONST>
0

>  <SCORE.SYSTEM.DIHEDRAL>
0

>  <SCORE.SYSTEM.SOLV>
0

>  <SCORE.SYSTEM.norm>
0

>  <SCORE.heavy>
23

>  <SCORE.norm>
-0.888184

>  <RMSD>
1.373

$$$$
ligand
 OpenBabel02271912143D
libRbt.so/2013.1/901 2013/11/27
 23 25  0  0  0  0  0  0  0  0999 V2000
   23.9732    1.3028   28.6878 P   0  0  1  0  0  0  0  0  0  0  0  0
   23.0370    3.6462   27.9899 C   0  0  0  0  0  0  0  0  0  0  0  0
   22.7604    2.3360   28.4649 O   0  0  0  0  0  0  0  0  0  0  0  0
   21.7787    4.4654   28.1687 C   0  0  1  0  0  0  0  0  0  0  0  0
   20.7387    4.0523   27.2829 O   0  0  0  0  0  0  0  0  0  0  0  0
   21.2726    4.2976   29.5915 C   0  0  1  0  0  0  0  0  0  0  0  0
   20.9660    5.6018   30.1142 O   0  0  0  0  0  0  0  0  0  0  0  0
   20.0331    3.4194   29.4757 C   0  0  0  0  0  0  0  0  0  0  0  0
   19.6105    3.5563   28.0154 C   0  0  2  0  0  0  0  0  0  0  0  0
   18.0859    0.9563   23.8383 N   0  0  0  0  0  0  0  0  0  0  0  0
   18.2365    2.2836   23.9771 C   0  0  2  0  0  0  0  0  0  0  0  0
   17.9735    3.0648   22.9037 N   0  0  0  0  0  0  0  0  0  0  0  0
   18.6478    2.8211   25.1509 N   0  0  0  0  0  0  0  0  0  0  0  0
   18.9091    2.0134   26.1993 C   0  0  2  0  0  0  0  0  0  0  0  0
   18.7576    0.6494   26.0738 C   0  0  1  0  0  0  0  0  0  0  0  0
   18.3445    0.1247   24.8639 C   0  0  0  0  0  0  0  0  0  0  0  0
   18.2072   -1.1102   24.7275 O   0  0  0  0  0  0  0  0  0  0  0  0
   19.0721    0.0832   27.2556 N   0  0  0  0  0  0  0  0  0  0  0  0
   19.4187    1.0750   28.0950 C   0  0  0  0  0  0  0  0  0  0  0  0
   19.3057    2.2393   27.4466 N   0  0  1  0  0  0  0  0  0  0  0  0
   25.0012    2.0063   29.5401 O   0  0  0  0  0  0  0  0  0  0  0  0
   23.3205    0.1129   29.3528 O   0  5  0  0  0  0  0  0  0  0  0  0
   24.4407    1.0335   27.2830 O   0  0  0  0  0  0  0  0  0  0  0  0
  1  3  1  6  0  0  0
  1 21  1  0  0  0  0
  1 22  1  0  0  0  0
  1 23  2  0  0  0  0
  2  3  1  0  0  0  0
  4  2  1  1  0  0  0
  4  5  1  0  0  0  0
  4  6  1  0  0  0  0
  6  7  1  6  0  0  0
  6  8  1  0  0  0  0
  8  9  1  0  0  0  0
  9  5  1  6  0  0  0
  9 20  1  0  0  0  0
 10 11  1  0  0  0  0
 10 16  1  0  0  0  0
 11 12  1  6  0  0  0
 11 13  1  0  0  0  0
 14 13  1  1  0  0  0
 14 15  1  0  0  0  0
 14 20  1  0  0  0  0
 15 16  1  6  0  0  0
 15 18  1  0  0  0  0
 16 17  2  0  0  0  0
 18 19  1  0  0  0  0
 20 19  1  6  0  0  0
M  CHG  1  22  -1
M  END
>  <CHROM.1>
51.58732180,-69.24866010,-167.79326021,-63.80953475,20.80785208,2.13582746
27.29404480,-0.47807654,0.56705122,-2.64849094

>  <Name>
ligand

>  <RI>
0

>  <Rbt.Current_Directory>
/home/itssahil/PROJECTS/Mol_Feturizer/Test_systems_manuscript/rnas/3slm

>  <Rbt.Executable>
rbdock ($Id: //depot/dev/client3/rdock/2013.1/src/exe/rbdock.cxx#4 $)

>  <Rbt.Library>
libRbt.so (2013.1, Build901 2013/11/27)

>  <Rbt.Parameter_File>
/export/apps/rDock/src/rDock_2013.1_src/data/scripts/dock_solv.prm

>  <Rbt.Receptor>
prm/pocket_docking_3.prm

>  <SCORE>
-21.4464

>  <SCORE.INTER>
-17.2115

>  <SCORE.INTER.CONST>
1

>  <SCORE.INTER.POLAR>
0

>  <SCORE.INTER.ROT>
4

>  <SCORE.INTER.SOLV>
25.0226

>  <SCORE.INTER.VDW>
-26.0819

>  <SCORE.INTER.norm>
-0.748327

>  <SCORE.INTRA>
-4.23488

>  <SCORE.INTRA.DIHEDRAL>
-6.32648

>  <SCORE.INTRA.DIHEDRAL.0>
8.62657

>  <SCORE.INTRA.POLAR>
0

>  <SCORE.INTRA.POLAR.0>
0

>  <SCORE.INTRA.REPUL>
0

>  <SCORE.INTRA.REPUL.0>
0

>  <SCORE.INTRA.SOLV>
-0.329456

>  <SCORE.INTRA.SOLV.lig_0>
-66.3641

>  <SCORE.INTRA.VDW>
-0.906909

>  <SCORE.INTRA.VDW.0>
0.452231

>  <SCORE.INTRA.norm>
-0.184125

>  <SCORE.RESTR>
0

>  <SCORE.RESTR.CAVITY>
0

>  <SCORE.RESTR.norm>
0

>  <SCORE.SYSTEM>
0

>  <SCORE.SYSTEM.CONST>
0

>  <SCORE.SYSTEM.DIHEDRAL>
0

>  <SCORE.SYSTEM.SOLV>
0

>  <SCORE.SYSTEM.norm>
0

>  <SCORE.heavy>
23

>  <SCORE.norm>
-0.932452

>  <RMSD>
1.386

$$$$
ligand
 OpenBabel02271912143D
libRbt.so/2013.1/901 2013/11/27
 23 25  0  0  0  0  0  0  0  0999 V2000
   24.2734    0.0981   28.3398 P   0  0  1  0  0  0  0  0  0  0  0  0
   22.1723    1.2819   29.3592 C   0  0  0  0  0  0  0  0  0  0  0  0
   22.7005    0.1556   28.6728 O   0  0  0  0  0  0  0  0  0  0  0  0
   22.2343    2.4576   28.4103 C   0  0  1  0  0  0  0  0  0  0  0  0
   21.7442    2.1258   27.1116 O   0  0  0  0  0  0  0  0  0  0  0  0
   21.3763    3.5858   28.9577 C   0  0  1  0  0  0  0  0  0  0  0  0
   22.1383    4.8033   28.8851 O   0  0  0  0  0  0  0  0  0  0  0  0
   20.1449    3.6246   28.0615 C   0  0  0  0  0  0  0  0  0  0  0  0
   20.5820    2.9013   26.7905 C   0  0  2  0  0  0  0  0  0  0  0  0
   17.3573    1.4555   23.0432 N   0  0  0  0  0  0  0  0  0  0  0  0
   18.1986    2.5023   23.0521 C   0  0  2  0  0  0  0  0  0  0  0  0
   18.2377    3.2908   21.9529 N   0  0  0  0  0  0  0  0  0  0  0  0
   18.9892    2.7540   24.1234 N   0  0  0  0  0  0  0  0  0  0  0  0
   18.9314    1.9436   25.2002 C   0  0  2  0  0  0  0  0  0  0  0  0
   18.0719    0.8664   25.2076 C   0  0  1  0  0  0  0  0  0  0  0  0
   17.2815    0.6261   24.0997 C   0  0  0  0  0  0  0  0  0  0  0  0
   16.5000   -0.3494   24.0839 O   0  0  0  0  0  0  0  0  0  0  0  0
   18.2039    0.2341   26.3904 N   0  0  0  0  0  0  0  0  0  0  0  0
   19.1316    0.9010   27.0994 C   0  0  0  0  0  0  0  0  0  0  0  0
   19.5566    1.9399   26.3721 N   0  0  1  0  0  0  0  0  0  0  0  0
   24.5480    1.1753   27.3189 O   0  0  0  0  0  0  0  0  0  0  0  0
   24.9375    0.3238   29.6786 O   0  5  0  0  0  0  0  0  0  0  0  0
   24.4470   -1.2968   27.8024 O   0  0  0  0  0  0  0  0  0  0  0  0
  1  3  1  1  0  0  0
  1 21  1  0  0  0  0
  1 22  1  0  0  0  0
  1 23  2  0  0  0  0
  2  3  1  0  0  0  0
  4  2  1  1  0  0  0
  4  5  1  0  0  0  0
  4  6  1  0  0  0  0
  6  7  1  6  0  0  0
  6  8  1  0  0  0  0
  8  9  1  0  0  0  0
  9  5  1  1  0  0  0
  9 20  1  0  0  0  0
 10 11  1  0  0  0  0
 10 16  1  0  0  0  0
 11 12  1  6  0  0  0
 11 13  1  0  0  0  0
 14 13  1  1  0  0  0
 14 15  1  0  0  0  0
 14 20  1  0  0  0  0
 15 16  1  6  0  0  0
 15 18  1  0  0  0  0
 16 17  2  0  0  0  0
 18 19  1  0  0  0  0
 20 19  1  6  0  0  0
M  CHG  1  22  -1
M  END
>  <CHROM.1>
-67.76372897,46.54194057,69.67740239,-122.48064707,20.83416176,1.51971661
26.69282162,-0.10946906,0.66635560,-2.82097892

>  <Name>
ligand

>  <RI>
0

>  <Rbt.Current_Directory>
/home/itssahil/PROJECTS/Mol_Feturizer/Test_systems_manuscript/rnas/3slm

>  <Rbt.Executable>
rbdock ($Id: //depot/dev/client3/rdock/2013.1/src/exe/rbdock.cxx#4 $)

>  <Rbt.Library>
libRbt.so (2013.1, Build901 2013/11/27)

>  <Rbt.Parameter_File>
/export/apps/rDock/src/rDock_2013.1_src/data/scripts/dock_solv.prm

>  <Rbt.Receptor>
prm/pocket_docking_8.prm

>  <SCORE>
-21.009

>  <SCORE.INTER>
-16.2882

>  <SCORE.INTER.CONST>
1

>  <SCORE.INTER.POLAR>
0

>  <SCORE.INTER.ROT>
4

>  <SCORE.INTER.SOLV>
26.4784

>  <SCORE.INTER.VDW>
-25.9516

>  <SCORE.INTER.norm>
-0.708185

>  <SCORE.INTRA>
-4.72071

>  <SCORE.INTRA.DIHEDRAL>
-6.25113

>  <SCORE.INTRA.DIHEDRAL.0>
8.62657

>  <SCORE.INTRA.POLAR>
0

>  <SCORE.INTRA.POLAR.0>
0

>  <SCORE.INTRA.REPUL>
0

>  <SCORE.INTRA.REPUL.0>
0

>  <SCORE.INTRA.SOLV>
0.573092

>  <SCORE.INTRA.SOLV.lig_0>
-66.3641

>  <SCORE.INTRA.VDW>
-1.88169

>  <SCORE.INTRA.VDW.0>
0.452231

>  <SCORE.INTRA.norm>
-0.205248

>  <SCORE.RESTR>
0

>  <SCORE.RESTR.CAVITY>
0

>  <SCORE.RESTR.norm>
0

>  <SCORE.SYSTEM>
0

>  <SCORE.SYSTEM.CONST>
0

>  <SCORE.SYSTEM.DIHEDRAL>
0

>  <SCORE.SYSTEM.SOLV>
0

>  <SCORE.SYSTEM.norm>
0

>  <SCORE.heavy>
23

>  <SCORE.norm>
-0.913433

>  <RMSD>
1.402

$$$$
ligand
 OpenBabel02271912143D
libRbt.so/2013.1/901 2013/11/27
 23 25  0  0  0  0  0  0  0  0999 V2000
   24.3263    0.1197   28.4792 P   0  0  1  0  0  0  0  0  0  0  0  0
   22.3119    1.4517   29.4906 C   0  0  0  0  0  0  0  0  0  0  0  0
   22.7610    0.2879   28.8106 O   0  0  0  0  0  0  0  0  0  0  0  0
   22.3372    2.5918   28.4975 C   0  0  1  0  0  0  0  0  0  0  0  0
   21.8499    2.1977   27.2153 O   0  0  0  0  0  0  0  0  0  0  0  0
   21.4516    3.7164   29.0069 C   0  0  1  0  0  0  0  0  0  0  0  0
   22.1798    4.9503   28.8837 O   0  0  0  0  0  0  0  0  0  0  0  0
   20.2151    3.6879   28.1173 C   0  0  0  0  0  0  0  0  0  0  0  0
   20.6654    2.9288   26.8720 C   0  0  2  0  0  0  0  0  0  0  0  0
   17.3971    1.3076   23.2358 N   0  0  0  0  0  0  0  0  0  0  0  0
   18.2004    2.3835   23.2058 C   0  0  2  0  0  0  0  0  0  0  0  0
   18.1822    3.1545   22.0936 N   0  0  0  0  0  0  0  0  0  0  0  0
   19.0093    2.6808   24.2513 N   0  0  0  0  0  0  0  0  0  0  0  0
   19.0090    1.8869   25.3419 C   0  0  2  0  0  0  0  0  0  0  0  0
   18.1891    0.7803   25.3892 C   0  0  1  0  0  0  0  0  0  0  0  0
   17.3789    0.4937   24.3069 C   0  0  0  0  0  0  0  0  0  0  0  0
   16.6328   -0.5089   24.3274 O   0  0  0  0  0  0  0  0  0  0  0  0
   18.3747    0.1728   26.5778 N   0  0  0  0  0  0  0  0  0  0  0  0
   19.2963    0.8839   27.2511 C   0  0  0  0  0  0  0  0  0  0  0  0
   19.6645    1.9248   26.4964 N   0  0  1  0  0  0  0  0  0  0  0  0
   24.4868   -1.2004   27.7652 O   0  0  0  0  0  0  0  0  0  0  0  0
   24.6516    1.3296   27.6338 O   0  5  0  0  0  0  0  0  0  0  0  0
   24.9580    0.1445   29.8447 O   0  0  0  0  0  0  0  0  0  0  0  0
  1  3  1  1  0  0  0
  1 21  1  0  0  0  0
  1 22  1  0  0  0  0
  1 23  2  0  0  0  0
  2  3  1  0  0  0  0
  4  2  1  1  0  0  0
  4  5  1  0  0  0  0
  4  6  1  0  0  0  0
  6  7  1  6  0  0  0
  6  8  1  0  0  0  0
  8  9  1  0  0  0  0
  9  5  1  1  0  0  0
  9 20  1  0  0  0  0
 10 11  1  0  0  0  0
 10 16  1  0  0  0  0
 11 12  1  6  0  0  0
 11 13  1  0  0  0  0
 14 13  1  1  0  0  0
 14 15  1  0  0  0  0
 14 20  1  0  0  0  0
 15 16  1  6  0  0  0
 15 18  1  0  0  0  0
 16 17  2  0  0  0  0
 18 19  1  0  0  0  0
 20 19  1  6  0  0  0
M  CHG  1  22  -1
M  END
>  <CHROM.1>
179.89127450,41.70467287,74.70190132,-124.28841012,20.90920455,1.52248744
26.82653200,-0.10505646,0.66066341,-2.86164948

>  <Name>
ligand

>  <RI>
0

>  <Rbt.Current_Directory>
/home/itssahil/PROJECTS/Mol_Feturizer/Test_systems_manuscript/rnas/3slm

>  <Rbt.Executable>
rbdock ($Id: //depot/dev/client3/rdock/2013.1/src/exe/rbdock.cxx#4 $)

>  <Rbt.Library>
libRbt.so (2013.1, Build901 2013/11/27)

>  <Rbt.Parameter_File>
/export/apps/rDock/src/rDock_2013.1_src/data/scripts/dock_solv.prm

>  <Rbt.Receptor>
prm/pocket_docking_3.prm

>  <SCORE>
-20.4526

>  <SCORE.INTER>
-17.4286

>  <SCORE.INTER.CONST>
1

>  <SCORE.INTER.POLAR>
0

>  <SCORE.INTER.ROT>
4

>  <SCORE.INTER.SOLV>
23.5797

>  <SCORE.INTER.VDW>
-25.7456

>  <SCORE.INTER.norm>
-0.757764

>  <SCORE.INTRA>
-3.02399

>  <SCORE.INTRA.DIHEDRAL>
-5.27589

>  <SCORE.INTRA.DIHEDRAL.0>
8.62657

>  <SCORE.INTRA.POLAR>
0

>  <SCORE.INTRA.POLAR.0>
0

>  <SCORE.INTRA.REPUL>
0

>  <SCORE.INTRA.REPUL.0>
0

>  <SCORE.INTRA.SOLV>
2.68567

>  <SCORE.INTRA.SOLV.lig_0>
-66.3641

>  <SCORE.INTRA.VDW>
-1.72888

>  <SCORE.INTRA.VDW.0>
0.452231

>  <SCORE.INTRA.norm>
-0.131478

>  <SCORE.RESTR>
0

>  <SCORE.RESTR.CAVITY>
0

>  <SCORE.RESTR.norm>
0

>  <SCORE.SYSTEM>
0

>  <SCORE.SYSTEM.CONST>
0

>  <SCORE.SYSTEM.DIHEDRAL>
0

>  <SCORE.SYSTEM.SOLV>
0

>  <SCORE.SYSTEM.norm>
0

>  <SCORE.heavy>
23

>  <SCORE.norm>
-0.889242

>  <RMSD>
1.405

$$$$
ligand
 OpenBabel02271912143D
libRbt.so/2013.1/901 2013/11/27
 23 25  0  0  0  0  0  0  0  0999 V2000
   23.1975    1.3270   28.8661 P   0  0  1  0  0  0  0  0  0  0  0  0
   22.8593    3.5504   27.5255 C   0  0  0  0  0  0  0  0  0  0  0  0
   22.5349    2.1747   27.6700 O   0  0  0  0  0  0  0  0  0  0  0  0
   21.5971    4.3408   27.7875 C   0  0  1  0  0  0  0  0  0  0  0  0
   20.5112    3.9048   26.9705 O   0  0  0  0  0  0  0  0  0  0  0  0
   21.1887    4.1609   29.2399 C   0  0  1  0  0  0  0  0  0  0  0  0
   20.8876    5.4576   29.7841 O   0  0  0  0  0  0  0  0  0  0  0  0
   19.9643    3.2550   29.2033 C   0  0  0  0  0  0  0  0  0  0  0  0
   19.4446    3.3831   27.7739 C   0  0  2  0  0  0  0  0  0  0  0  0
   17.9827    0.7240   23.6116 N   0  0  0  0  0  0  0  0  0  0  0  0
   18.1509    2.0513   23.7281 C   0  0  2  0  0  0  0  0  0  0  0  0
   17.9269    2.8149   22.6334 N   0  0  0  0  0  0  0  0  0  0  0  0
   18.5414    2.6058   24.9011 N   0  0  0  0  0  0  0  0  0  0  0  0
   18.7639    1.8153   25.9713 C   0  0  2  0  0  0  0  0  0  0  0  0
   18.5939    0.4515   25.8688 C   0  0  1  0  0  0  0  0  0  0  0  0
   18.2026   -0.0908   24.6594 C   0  0  0  0  0  0  0  0  0  0  0  0
   18.0491   -1.3259   24.5439 O   0  0  0  0  0  0  0  0  0  0  0  0
   18.8701   -0.0958   27.0690 N   0  0  0  0  0  0  0  0  0  0  0  0
   19.2115    0.9071   27.8972 C   0  0  0  0  0  0  0  0  0  0  0  0
   19.1331    2.0598   27.2235 N   0  0  1  0  0  0  0  0  0  0  0  0
   23.0923   -0.1298   28.4854 O   0  0  0  0  0  0  0  0  0  0  0  0
   24.6131    1.8507   28.9429 O   0  5  0  0  0  0  0  0  0  0  0  0
   22.3455    1.7016   30.0485 O   0  0  0  0  0  0  0  0  0  0  0  0
  1  3  1  6  0  0  0
  1 21  1  0  0  0  0
  1 22  1  0  0  0  0
  1 23  2  0  0  0  0
  2  3  1  0  0  0  0
  4  2  1  6  0  0  0
  4  5  1  0  0  0  0
  4  6  1  0  0  0  0
  6  7  1  6  0  0  0
  6  8  1  0  0  0  0
  8  9  1  0  0  0  0
  9  5  1  6  0  0  0
  9 20  1  0  0  0  0
 10 11  1  0  0  0  0
 10 16  1  0  0  0  0
 11 12  1  6  0  0  0
 11 13  1  0  0  0  0
 14 13  1  1  0  0  0
 14 15  1  0  0  0  0
 14 20  1  0  0  0  0
 15 16  1  6  0  0  0
 15 18  1  0  0  0  0
 16 17  2  0  0  0  0
 18 19  1  0  0  0  0
 20 19  1  6  0  0  0
M  CHG  1  22  -1
M  END
>  <CHROM.1>
-159.71445571,-53.71782361,-114.43673514,-58.07598794,20.49835192,2.01272000
27.14165190,-0.44289637,0.71695746,-2.85180801

>  <Name>
ligand

>  <RI>
416

>  <Rbt.Current_Directory>
/home/itssahil/PROJECTS/Mol_Feturizer/Test_systems_manuscript/rnas/3slm

>  <Rbt.Executable>
rbdock ($Id: //depot/dev/client3/rdock/2013.1/src/exe/rbdock.cxx#4 $)

>  <Rbt.Library>
libRbt.so (2013.1, Build901 2013/11/27)

>  <Rbt.Parameter_File>
/export/apps/rDock/src/rDock_2013.1_src/data/scripts/dock_solv.prm

>  <Rbt.Receptor>
prm/pocket_docking_2.prm

>  <SCORE>
-17.0257

>  <SCORE.INTER>
-17.849

>  <SCORE.INTER.CONST>
1

>  <SCORE.INTER.POLAR>
0

>  <SCORE.INTER.ROT>
4

>  <SCORE.INTER.SOLV>
21.6423

>  <SCORE.INTER.VDW>
-25.3801

>  <SCORE.INTER.norm>
-0.776044

>  <SCORE.INTRA>
0.778126

>  <SCORE.INTRA.DIHEDRAL>
0.41343

>  <SCORE.INTRA.DIHEDRAL.0>
8.62657

>  <SCORE.INTRA.POLAR>
0

>  <SCORE.INTRA.POLAR.0>
0

>  <SCORE.INTRA.REPUL>
0

>  <SCORE.INTRA.REPUL.0>
0

>  <SCORE.INTRA.SOLV>
4.24402

>  <SCORE.INTRA.SOLV.lig_0>
-66.3641

>  <SCORE.INTRA.VDW>
-1.5506

>  <SCORE.INTRA.VDW.0>
0.452231

>  <SCORE.INTRA.norm>
0.0338316

>  <SCORE.RESTR>
0.0452202

>  <SCORE.RESTR.CAVITY>
0.0452202

>  <SCORE.RESTR.norm>
0.0019661

>  <SCORE.SYSTEM>
0

>  <SCORE.SYSTEM.CONST>
0

>  <SCORE.SYSTEM.DIHEDRAL>
0

>  <SCORE.SYSTEM.SOLV>
0

>  <SCORE.SYSTEM.norm>
0

>  <SCORE.heavy>
23

>  <SCORE.norm>
-0.740246

>  <RMSD>
1.416

$$$$
ligand
 OpenBabel02271912143D
libRbt.so/2013.1/901 2013/11/27
 23 25  0  0  0  0  0  0  0  0999 V2000
   24.2283    1.6382   29.0354 P   0  0  1  0  0  0  0  0  0  0  0  0
   22.8785    3.1632   27.3900 C   0  0  0  0  0  0  0  0  0  0  0  0
   23.5064    3.0253   28.6570 O   0  0  0  0  0  0  0  0  0  0  0  0
   21.6854    4.0737   27.5751 C   0  0  1  0  0  0  0  0  0  0  0  0
   20.6179    3.7473   26.6859 O   0  0  0  0  0  0  0  0  0  0  0  0
   21.1672    3.9335   28.9965 C   0  0  1  0  0  0  0  0  0  0  0  0
   20.9596    5.2530   29.5294 O   0  0  0  0  0  0  0  0  0  0  0  0
   19.8649    3.1524   28.8736 C   0  0  0  0  0  0  0  0  0  0  0  0
   19.4549    3.3323   27.4144 C   0  0  2  0  0  0  0  0  0  0  0  0
   17.9594    0.8455   23.1586 N   0  0  0  0  0  0  0  0  0  0  0  0
   18.2410    2.1513   23.2977 C   0  0  2  0  0  0  0  0  0  0  0  0
   18.1394    2.9395   22.2023 N   0  0  0  0  0  0  0  0  0  0  0  0
   18.6235    2.6599   24.4939 N   0  0  0  0  0  0  0  0  0  0  0  0
   18.7224    1.8451   25.5644 C   0  0  2  0  0  0  0  0  0  0  0  0
   18.4350    0.5032   25.4388 C   0  0  1  0  0  0  0  0  0  0  0  0
   18.0546    0.0069   24.2064 C   0  0  0  0  0  0  0  0  0  0  0  0
   17.7959   -1.2084   24.0699 O   0  0  0  0  0  0  0  0  0  0  0  0
   18.6030   -0.0752   26.6444 N   0  0  0  0  0  0  0  0  0  0  0  0
   18.9936    0.8869   27.4989 C   0  0  0  0  0  0  0  0  0  0  0  0
   19.0518    2.0466   26.8353 N   0  0  1  0  0  0  0  0  0  0  0  0
   25.3900    1.4722   28.0862 O   0  0  0  0  0  0  0  0  0  0  0  0
   24.6261    1.8176   30.4824 O   0  5  0  0  0  0  0  0  0  0  0  0
   23.1331    0.6276   28.8266 O   0  0  0  0  0  0  0  0  0  0  0  0
  1  3  1  6  0  0  0
  1 21  1  0  0  0  0
  1 22  1  0  0  0  0
  1 23  2  0  0  0  0
  2  3  1  0  0  0  0
  4  2  1  1  0  0  0
  4  5  1  0  0  0  0
  4  6  1  0  0  0  0
  6  7  1  6  0  0  0
  6  8  1  0  0  0  0
  8  9  1  0  0  0  0
  9  5  1  6  0  0  0
  9 20  1  0  0  0  0
 10 11  1  0  0  0  0
 10 16  1  0  0  0  0
 11 12  1  6  0  0  0
 11 13  1  0  0  0  0
 14 13  1  1  0  0  0
 14 15  1  0  0  0  0
 14 20  1  0  0  0  0
 15 16  1  6  0  0  0
 15 18  1  0  0  0  0
 16 17  2  0  0  0  0
 18 19  1  0  0  0  0
 20 19  1  6  0  0  0
M  CHG  1  22  -1
M  END
>  <CHROM.1>
64.85729181,-148.22229965,147.09680674,-59.23396656,20.75977496,2.07358178
26.94016033,-0.43177439,0.62662765,-2.73193258

>  <Name>
ligand

>  <RI>
416

>  <Rbt.Current_Directory>
/home/itssahil/PROJECTS/Mol_Feturizer/Test_systems_manuscript/rnas/3slm

>  <Rbt.Executable>
rbdock ($Id: //depot/dev/client3/rdock/2013.1/src/exe/rbdock.cxx#4 $)

>  <Rbt.Library>
libRbt.so (2013.1, Build901 2013/11/27)

>  <Rbt.Parameter_File>
/export/apps/rDock/src/rDock_2013.1_src/data/scripts/dock_solv.prm

>  <Rbt.Receptor>
prm/pocket_docking_2.prm

>  <SCORE>
-16.3723

>  <SCORE.INTER>
-17.722

>  <SCORE.INTER.CONST>
1

>  <SCORE.INTER.POLAR>
0

>  <SCORE.INTER.ROT>
4

>  <SCORE.INTER.SOLV>
25.5181

>  <SCORE.INTER.VDW>
-26.5873

>  <SCORE.INTER.norm>
-0.77052

>  <SCORE.INTRA>
0.755208

>  <SCORE.INTRA.DIHEDRAL>
-0.3451

>  <SCORE.INTRA.DIHEDRAL.0>
8.62657

>  <SCORE.INTRA.POLAR>
0

>  <SCORE.INTRA.POLAR.0>
0

>  <SCORE.INTRA.REPUL>
0

>  <SCORE.INTRA.REPUL.0>
0

>  <SCORE.INTRA.SOLV>
0.933485

>  <SCORE.INTRA.SOLV.lig_0>
-66.3641

>  <SCORE.INTRA.VDW>
0.461016

>  <SCORE.INTRA.VDW.0>
0.452231

>  <SCORE.INTRA.norm>
0.0328351

>  <SCORE.RESTR>
0.594429

>  <SCORE.RESTR.CAVITY>
0.594429

>  <SCORE.RESTR.norm>
0.0258447

>  <SCORE.SYSTEM>
0

>  <SCORE.SYSTEM.CONST>
0

>  <SCORE.SYSTEM.DIHEDRAL>
0

>  <SCORE.SYSTEM.SOLV>
0

>  <SCORE.SYSTEM.norm>
0

>  <SCORE.heavy>
23

>  <SCORE.norm>
-0.71184

>  <RMSD>
1.417

$$$$
ligand
 OpenBabel02271912143D
libRbt.so/2013.1/901 2013/11/27
 23 25  0  0  0  0  0  0  0  0999 V2000
   23.9135    1.4325   28.6558 P   0  0  1  0  0  0  0  0  0  0  0  0
   22.9738    3.7548   27.8949 C   0  0  0  0  0  0  0  0  0  0  0  0
   22.6953    2.4378   28.3493 O   0  0  0  0  0  0  0  0  0  0  0  0
   21.6946    4.5523   28.0137 C   0  0  1  0  0  0  0  0  0  0  0  0
   20.6826    4.0795   27.1254 O   0  0  0  0  0  0  0  0  0  0  0  0
   21.1625    4.4328   29.4319 C   0  0  1  0  0  0  0  0  0  0  0  0
   20.8170    5.7504   29.8929 O   0  0  0  0  0  0  0  0  0  0  0  0
   19.9449    3.5230   29.3283 C   0  0  0  0  0  0  0  0  0  0  0  0
   19.5502    3.5893   27.8554 C   0  0  2  0  0  0  0  0  0  0  0  0
   18.0005    0.7971   23.8138 N   0  0  0  0  0  0  0  0  0  0  0  0
   18.0955    2.1335   23.9083 C   0  0  2  0  0  0  0  0  0  0  0  0
   17.7601    2.8689   22.8228 N   0  0  0  0  0  0  0  0  0  0  0  0
   18.5226    2.7245   25.0503 N   0  0  0  0  0  0  0  0  0  0  0  0
   18.8567    1.9618   26.1116 C   0  0  2  0  0  0  0  0  0  0  0  0
   18.7629    0.5892   26.0314 C   0  0  1  0  0  0  0  0  0  0  0  0
   18.3322    0.0098   24.8531 C   0  0  0  0  0  0  0  0  0  0  0  0
   18.2463   -1.2336   24.7579 O   0  0  0  0  0  0  0  0  0  0  0  0
   19.1437    0.0741   27.2171 N   0  0  0  0  0  0  0  0  0  0  0  0
   19.4740    1.1056   28.0141 C   0  0  0  0  0  0  0  0  0  0  0  0
   19.2858    2.2433   27.3366 N   0  0  1  0  0  0  0  0  0  0  0  0
   24.8707    2.1636   29.5653 O   0  0  0  0  0  0  0  0  0  0  0  0
   23.2456    0.2331   29.2880 O   0  5  0  0  0  0  0  0  0  0  0  0
   24.4738    1.1643   27.2852 O   0  0  0  0  0  0  0  0  0  0  0  0
  1  3  1  6  0  0  0
  1 21  1  0  0  0  0
  1 22  1  0  0  0  0
  1 23  2  0  0  0  0
  2  3  1  0  0  0  0
  4  2  1  1  0  0  0
  4  5  1  0  0  0  0
  4  6  1  0  0  0  0
  6  7  1  6  0  0  0
  6  8  1  0  0  0  0
  8  9  1  0  0  0  0
  9  5  1  6  0  0  0
  9 20  1  0  0  0  0
 10 11  1  0  0  0  0
 10 16  1  0  0  0  0
 11 12  1  6  0  0  0
 11 13  1  0  0  0  0
 14 13  1  1  0  0  0
 14 15  1  0  0  0  0
 14 20  1  0  0  0  0
 15 16  1  6  0  0  0
 15 18  1  0  0  0  0
 16 17  2  0  0  0  0
 18 19  1  0  0  0  0
 20 19  1  6  0  0  0
M  CHG  1  22  -1
M  END
>  <CHROM.1>
50.97190468,-66.04423502,-166.60703470,-67.34622290,20.74699701,2.16158531
27.21453599,-0.49146207,0.56468911,-2.68410513

>  <Name>
ligand

>  <RI>
0

>  <Rbt.Current_Directory>
/home/itssahil/PROJECTS/Mol_Feturizer/Test_systems_manuscript/rnas/3slm

>  <Rbt.Executable>
rbdock ($Id: //depot/dev/client3/rdock/2013.1/src/exe/rbdock.cxx#4 $)

>  <Rbt.Library>
libRbt.so (2013.1, Build901 2013/11/27)

>  <Rbt.Parameter_File>
/export/apps/rDock/src/rDock_2013.1_src/data/scripts/dock_solv.prm

>  <Rbt.Receptor>
prm/pocket_docking_3.prm

>  <SCORE>
-21.3646

>  <SCORE.INTER>
-16.926

>  <SCORE.INTER.CONST>
1

>  <SCORE.INTER.POLAR>
0

>  <SCORE.INTER.ROT>
4

>  <SCORE.INTER.SOLV>
24.6359

>  <SCORE.INTER.VDW>
-25.7627

>  <SCORE.INTER.norm>
-0.735915

>  <SCORE.INTRA>
-4.46329

>  <SCORE.INTRA.DIHEDRAL>
-6.35357

>  <SCORE.INTRA.DIHEDRAL.0>
8.62657

>  <SCORE.INTRA.POLAR>
0

>  <SCORE.INTRA.POLAR.0>
0

>  <SCORE.INTRA.REPUL>
0

>  <SCORE.INTRA.REPUL.0>
0

>  <SCORE.INTRA.SOLV>
-0.337798

>  <SCORE.INTRA.SOLV.lig_0>
-66.3641

>  <SCORE.INTRA.VDW>
-1.1176

>  <SCORE.INTRA.VDW.0>
0.452231

>  <SCORE.INTRA.norm>
-0.194056

>  <SCORE.RESTR>
0.0247651

>  <SCORE.RESTR.CAVITY>
0.0247651

>  <SCORE.RESTR.norm>
0.00107674

>  <SCORE.SYSTEM>
0

>  <SCORE.SYSTEM.CONST>
0

>  <SCORE.SYSTEM.DIHEDRAL>
0

>  <SCORE.SYSTEM.SOLV>
0

>  <SCORE.SYSTEM.norm>
0

>  <SCORE.heavy>
23

>  <SCORE.norm>
-0.928894

>  <RMSD>
1.420

$$$$
ligand
 OpenBabel02271912143D
libRbt.so/2013.1/901 2013/11/27
 23 25  0  0  0  0  0  0  0  0999 V2000
   24.2229   -0.0143   28.3719 P   0  0  1  0  0  0  0  0  0  0  0  0
   22.3322    1.4166   29.4824 C   0  0  0  0  0  0  0  0  0  0  0  0
   22.6842    0.2409   28.7663 O   0  0  0  0  0  0  0  0  0  0  0  0
   22.3568    2.5664   28.5007 C   0  0  1  0  0  0  0  0  0  0  0  0
   21.8643    2.1863   27.2162 O   0  0  0  0  0  0  0  0  0  0  0  0
   21.4755    3.6879   29.0243 C   0  0  1  0  0  0  0  0  0  0  0  0
   22.2061    4.9213   28.9109 O   0  0  0  0  0  0  0  0  0  0  0  0
   20.2360    3.6711   28.1385 C   0  0  0  0  0  0  0  0  0  0  0  0
   20.6804    2.9235   26.8842 C   0  0  2  0  0  0  0  0  0  0  0  0
   17.4224    1.3252   23.2287 N   0  0  0  0  0  0  0  0  0  0  0  0
   18.2317    2.3967   23.2043 C   0  0  2  0  0  0  0  0  0  0  0  0
   18.2237    3.1693   22.0932 N   0  0  0  0  0  0  0  0  0  0  0  0
   19.0367    2.6882   24.2545 N   0  0  0  0  0  0  0  0  0  0  0  0
   19.0263    1.8928   25.3440 C   0  0  2  0  0  0  0  0  0  0  0  0
   18.2001    0.7906   25.3855 C   0  0  1  0  0  0  0  0  0  0  0  0
   17.3941    0.5100   24.2986 C   0  0  0  0  0  0  0  0  0  0  0  0
   16.6423   -0.4885   24.3138 O   0  0  0  0  0  0  0  0  0  0  0  0
   18.3761    0.1805   26.5742 N   0  0  0  0  0  0  0  0  0  0  0  0
   19.2980    0.8856   27.2534 C   0  0  0  0  0  0  0  0  0  0  0  0
   19.6759    1.9255   26.5020 N   0  0  1  0  0  0  0  0  0  0  0  0
   24.2842   -1.3532   27.6779 O   0  0  0  0  0  0  0  0  0  0  0  0
   24.5727    1.1620   27.4898 O   0  5  0  0  0  0  0  0  0  0  0  0
   24.9139    0.0013   29.7086 O   0  0  0  0  0  0  0  0  0  0  0  0
  1  3  1  1  0  0  0
  1 21  1  0  0  0  0
  1 22  1  0  0  0  0
  1 23  2  0  0  0  0
  2  3  1  0  0  0  0
  4  2  1  1  0  0  0
  4  5  1  0  0  0  0
  4  6  1  0  0  0  0
  6  7  1  6  0  0  0
  6  8  1  0  0  0  0
  8  9  1  0  0  0  0
  9  5  1  1  0  0  0
  9 20  1  0  0  0  0
 10 11  1  0  0  0  0
 10 16  1  0  0  0  0
 11 12  1  6  0  0  0
 11 13  1  0  0  0  0
 14 13  1  1  0  0  0
 14 15  1  0  0  0  0
 14 20  1  0  0  0  0
 15 16  1  6  0  0  0
 15 18  1  0  0  0  0
 16 17  2  0  0  0  0
 18 19  1  0  0  0  0
 20 19  1  6  0  0  0
M  CHG  1  22  -1
M  END
>  <CHROM.1>
177.73891433,37.62106783,76.03452717,-123.56443920,20.89427380,1.48457191
26.79945529,-0.10101558,0.66535091,-2.84718087

>  <Name>
ligand

>  <RI>
416

>  <Rbt.Current_Directory>
/home/itssahil/PROJECTS/Mol_Feturizer/Test_systems_manuscript/rnas/3slm

>  <Rbt.Executable>
rbdock ($Id: //depot/dev/client3/rdock/2013.1/src/exe/rbdock.cxx#4 $)

>  <Rbt.Library>
libRbt.so (2013.1, Build901 2013/11/27)

>  <Rbt.Parameter_File>
/export/apps/rDock/src/rDock_2013.1_src/data/scripts/dock_solv.prm

>  <Rbt.Receptor>
prm/pocket_docking_5.prm

>  <SCORE>
-20.7423

>  <SCORE.INTER>
-18.0054

>  <SCORE.INTER.CONST>
1

>  <SCORE.INTER.POLAR>
0

>  <SCORE.INTER.ROT>
4

>  <SCORE.INTER.SOLV>
23.8717

>  <SCORE.INTER.VDW>
-26.2275

>  <SCORE.INTER.norm>
-0.782842

>  <SCORE.INTRA>
-2.73693

>  <SCORE.INTRA.DIHEDRAL>
-4.60013

>  <SCORE.INTRA.DIHEDRAL.0>
8.62657

>  <SCORE.INTRA.POLAR>
0

>  <SCORE.INTRA.POLAR.0>
0

>  <SCORE.INTRA.REPUL>
0

>  <SCORE.INTRA.REPUL.0>
0

>  <SCORE.INTRA.SOLV>
2.69291

>  <SCORE.INTRA.SOLV.lig_0>
-66.3641

>  <SCORE.INTRA.VDW>
-1.78332

>  <SCORE.INTRA.VDW.0>
0.452231

>  <SCORE.INTRA.norm>
-0.118997

>  <SCORE.RESTR>
0

>  <SCORE.RESTR.CAVITY>
0

>  <SCORE.RESTR.norm>
0

>  <SCORE.SYSTEM>
0

>  <SCORE.SYSTEM.CONST>
0

>  <SCORE.SYSTEM.DIHEDRAL>
0

>  <SCORE.SYSTEM.SOLV>
0

>  <SCORE.SYSTEM.norm>
0

>  <SCORE.heavy>
23

>  <SCORE.norm>
-0.901839

>  <RMSD>
1.420

$$$$
ligand
 OpenBabel02271912143D
libRbt.so/2013.1/901 2013/11/27
 23 25  0  0  0  0  0  0  0  0999 V2000
   24.1253    0.2405   28.4578 P   0  0  1  0  0  0  0  0  0  0  0  0
   22.0946    1.5124   29.5131 C   0  0  0  0  0  0  0  0  0  0  0  0
   22.5539    0.3943   28.7662 O   0  0  0  0  0  0  0  0  0  0  0  0
   22.1121    2.7093   28.5892 C   0  0  1  0  0  0  0  0  0  0  0  0
   21.6876    2.3743   27.2684 O   0  0  0  0  0  0  0  0  0  0  0  0
   21.1656    3.7688   29.1279 C   0  0  1  0  0  0  0  0  0  0  0  0
   21.8496    5.0336   29.1044 O   0  0  0  0  0  0  0  0  0  0  0  0
   19.9646    3.7479   28.1908 C   0  0  0  0  0  0  0  0  0  0  0  0
   20.4891    3.0807   26.9222 C   0  0  2  0  0  0  0  0  0  0  0  0
   17.5157    1.4930   23.0273 N   0  0  0  0  0  0  0  0  0  0  0  0
   18.2908    2.5883   23.0829 C   0  0  2  0  0  0  0  0  0  0  0  0
   18.3272    3.3923   21.9948 N   0  0  0  0  0  0  0  0  0  0  0  0
   19.0197    2.8730   24.1890 N   0  0  0  0  0  0  0  0  0  0  0  0
   18.9669    2.0464   25.2537 C   0  0  2  0  0  0  0  0  0  0  0  0
   18.1748    0.9194   25.2134 C   0  0  1  0  0  0  0  0  0  0  0  0
   17.4469    0.6466   24.0709 C   0  0  0  0  0  0  0  0  0  0  0  0
   16.7274   -0.3738   24.0118 O   0  0  0  0  0  0  0  0  0  0  0  0
   18.2960    0.2806   26.3939 N   0  0  0  0  0  0  0  0  0  0  0  0
   19.1515    0.9928   27.1484 C   0  0  0  0  0  0  0  0  0  0  0  0
   19.5422    2.0649   26.4508 N   0  0  1  0  0  0  0  0  0  0  0  0
   24.3037   -1.0610   27.7145 O   0  0  0  0  0  0  0  0  0  0  0  0
   24.4598    1.4720   27.6480 O   0  5  0  0  0  0  0  0  0  0  0  0
   24.7335    0.2341   29.8342 O   0  0  0  0  0  0  0  0  0  0  0  0
  1  3  1  1  0  0  0
  1 21  1  0  0  0  0
  1 22  1  0  0  0  0
  1 23  2  0  0  0  0
  2  3  1  0  0  0  0
  4  2  1  1  0  0  0
  4  5  1  0  0  0  0
  4  6  1  0  0  0  0
  6  7  1  6  0  0  0
  6  8  1  0  0  0  0
  8  9  1  0  0  0  0
  9  5  1  1  0  0  0
  9 20  1  0  0  0  0
 10 11  1  0  0  0  0
 10 16  1  0  0  0  0
 11 12  1  6  0  0  0
 11 13  1  0  0  0  0
 14 13  1  1  0  0  0
 14 15  1  0  0  0  0
 14 20  1  0  0  0  0
 15 16  1  6  0  0  0
 15 18  1  0  0  0  0
 16 17  2  0  0  0  0
 18 19  1  0  0  0  0
 20 19  1  6  0  0  0
M  CHG  1  22  -1
M  END
>  <CHROM.1>
177.39113562,39.02222367,76.12917903,-121.80671674,20.79016527,1.65439396
26.78203996,-0.18471923,0.69287660,-2.74421933

>  <Name>
ligand

>  <RI>
0

>  <Rbt.Current_Directory>
/home/itssahil/PROJECTS/Mol_Feturizer/Test_systems_manuscript/rnas/3slm

>  <Rbt.Executable>
rbdock ($Id: //depot/dev/client3/rdock/2013.1/src/exe/rbdock.cxx#4 $)

>  <Rbt.Library>
libRbt.so (2013.1, Build901 2013/11/27)

>  <Rbt.Parameter_File>
/export/apps/rDock/src/rDock_2013.1_src/data/scripts/dock_solv.prm

>  <Rbt.Receptor>
prm/pocket_docking_3.prm

>  <SCORE>
-20.4086

>  <SCORE.INTER>
-17.5879

>  <SCORE.INTER.CONST>
1

>  <SCORE.INTER.POLAR>
0

>  <SCORE.INTER.ROT>
4

>  <SCORE.INTER.SOLV>
23.9726

>  <SCORE.INTER.VDW>
-25.9828

>  <SCORE.INTER.norm>
-0.76469

>  <SCORE.INTRA>
-2.82078

>  <SCORE.INTRA.DIHEDRAL>
-4.76532

>  <SCORE.INTRA.DIHEDRAL.0>
8.62657

>  <SCORE.INTRA.POLAR>
0

>  <SCORE.INTRA.POLAR.0>
0

>  <SCORE.INTRA.REPUL>
0

>  <SCORE.INTRA.REPUL.0>
0

>  <SCORE.INTRA.SOLV>
2.66098

>  <SCORE.INTRA.SOLV.lig_0>
-66.3641

>  <SCORE.INTRA.VDW>
-1.76861

>  <SCORE.INTRA.VDW.0>
0.452231

>  <SCORE.INTRA.norm>
-0.122643

>  <SCORE.RESTR>
0

>  <SCORE.RESTR.CAVITY>
0

>  <SCORE.RESTR.norm>
0

>  <SCORE.SYSTEM>
0

>  <SCORE.SYSTEM.CONST>
0

>  <SCORE.SYSTEM.DIHEDRAL>
0

>  <SCORE.SYSTEM.SOLV>
0

>  <SCORE.SYSTEM.norm>
0

>  <SCORE.heavy>
23

>  <SCORE.norm>
-0.887333

>  <RMSD>
1.423

$$$$
ligand
 OpenBabel02271912143D
libRbt.so/2013.1/901 2013/11/27
 23 25  0  0  0  0  0  0  0  0999 V2000
   23.2236    2.2038   32.0963 P   0  0  1  0  0  0  0  0  0  0  0  0
   22.7222    2.5130   29.5452 C   0  0  0  0  0  0  0  0  0  0  0  0
   23.0967    3.1150   30.7765 O   0  0  0  0  0  0  0  0  0  0  0  0
   22.5100    3.6272   28.5451 C   0  0  1  0  0  0  0  0  0  0  0  0
   21.9934    3.1446   27.3053 O   0  0  0  0  0  0  0  0  0  0  0  0
   21.5100    4.6213   29.1110 C   0  0  1  0  0  0  0  0  0  0  0  0
   22.0408    5.9449   28.9255 O   0  0  0  0  0  0  0  0  0  0  0  0
   20.2296    4.3994   28.3157 C   0  0  0  0  0  0  0  0  0  0  0  0
   20.6938    3.6913   27.0457 C   0  0  2  0  0  0  0  0  0  0  0  0
   17.6291    1.4344   23.5750 N   0  0  0  0  0  0  0  0  0  0  0  0
   18.2904    2.5978   23.4620 C   0  0  2  0  0  0  0  0  0  0  0  0
   18.1673    3.2843   22.3022 N   0  0  0  0  0  0  0  0  0  0  0  0
   19.0631    3.0633   24.4730 N   0  0  0  0  0  0  0  0  0  0  0  0
   19.1706    2.3504   25.6132 C   0  0  2  0  0  0  0  0  0  0  0  0
   18.4967    1.1556   25.7457 C   0  0  1  0  0  0  0  0  0  0  0  0
   17.7213    0.6982   24.6973 C   0  0  0  0  0  0  0  0  0  0  0  0
   17.1073   -0.3862   24.7950 O   0  0  0  0  0  0  0  0  0  0  0  0
   18.7660    0.6570   26.9685 N   0  0  0  0  0  0  0  0  0  0  0  0
   19.5956    1.5212   27.5793 C   0  0  0  0  0  0  0  0  0  0  0  0
   19.8244    2.5472   26.7524 N   0  0  1  0  0  0  0  0  0  0  0  0
   23.5366    3.1319   33.2447 O   0  0  0  0  0  0  0  0  0  0  0  0
   21.8801    1.5188   32.1965 O   0  5  0  0  0  0  0  0  0  0  0  0
   24.3554    1.2749   31.7493 O   0  0  0  0  0  0  0  0  0  0  0  0
  1  3  1  6  0  0  0
  1 21  1  0  0  0  0
  1 22  1  0  0  0  0
  1 23  2  0  0  0  0
  2  3  1  0  0  0  0
  4  2  1  1  0  0  0
  4  5  1  0  0  0  0
  4  6  1  0  0  0  0
  6  7  1  6  0  0  0
  6  8  1  0  0  0  0
  8  9  1  0  0  0  0
  9  5  1  1  0  0  0
  9 20  1  0  0  0  0
 10 11  1  0  0  0  0
 10 16  1  0  0  0  0
 11 12  1  6  0  0  0
 11 13  1  0  0  0  0
 14 13  1  1  0  0  0
 14 15  1  0  0  0  0
 14 20  1  0  0  0  0
 15 16  1  6  0  0  0
 15 18  1  0  0  0  0
 16 17  2  0  0  0  0
 18 19  1  0  0  0  0
 20 19  1  6  0  0  0
M  CHG  1  22  -1
M  END
>  <CHROM.1>
-176.13883539,-173.87739448,172.68893568,-119.44205790,20.74744727,2.52347231
27.97623867,0.40280067,0.91341310,2.52287004

>  <Name>
ligand

>  <RI>
416

>  <Rbt.Current_Directory>
/home/itssahil/PROJECTS/Mol_Feturizer/Test_systems_manuscript/rnas/3slm

>  <Rbt.Executable>
rbdock ($Id: //depot/dev/client3/rdock/2013.1/src/exe/rbdock.cxx#4 $)

>  <Rbt.Library>
libRbt.so (2013.1, Build901 2013/11/27)

>  <Rbt.Parameter_File>
/export/apps/rDock/src/rDock_2013.1_src/data/scripts/dock_solv.prm

>  <Rbt.Receptor>
prm/pocket_docking_5.prm

>  <SCORE>
-24.41

>  <SCORE.INTER>
-19.6737

>  <SCORE.INTER.CONST>
1

>  <SCORE.INTER.POLAR>
0

>  <SCORE.INTER.ROT>
4

>  <SCORE.INTER.SOLV>
27.8844

>  <SCORE.INTER.VDW>
-28.6772

>  <SCORE.INTER.norm>
-0.855377

>  <SCORE.INTRA>
-4.73636

>  <SCORE.INTRA.DIHEDRAL>
-6.99626

>  <SCORE.INTRA.DIHEDRAL.0>
8.62657

>  <SCORE.INTRA.POLAR>
0

>  <SCORE.INTRA.POLAR.0>
0

>  <SCORE.INTRA.REPUL>
0

>  <SCORE.INTRA.REPUL.0>
0

>  <SCORE.INTRA.SOLV>
0.320446

>  <SCORE.INTRA.SOLV.lig_0>
-66.3641

>  <SCORE.INTRA.VDW>
-1.39846

>  <SCORE.INTRA.VDW.0>
0.452231

>  <SCORE.INTRA.norm>
-0.205929

>  <SCORE.RESTR>
0

>  <SCORE.RESTR.CAVITY>
0

>  <SCORE.RESTR.norm>
0

>  <SCORE.SYSTEM>
0

>  <SCORE.SYSTEM.CONST>
0

>  <SCORE.SYSTEM.DIHEDRAL>
0

>  <SCORE.SYSTEM.SOLV>
0

>  <SCORE.SYSTEM.norm>
0

>  <SCORE.heavy>
23

>  <SCORE.norm>
-1.06131

>  <RMSD>
1.423

$$$$
ligand
 OpenBabel02271912143D
libRbt.so/2013.1/901 2013/11/27
 23 25  0  0  0  0  0  0  0  0999 V2000
   23.6543    2.2543   31.2951 P   0  0  1  0  0  0  0  0  0  0  0  0
   21.5630    1.6287   29.8494 C   0  0  0  0  0  0  0  0  0  0  0  0
   22.0667    2.0862   31.0967 O   0  0  0  0  0  0  0  0  0  0  0  0
   21.8079    2.7236   28.8357 C   0  0  1  0  0  0  0  0  0  0  0  0
   21.5534    2.2864   27.5012 O   0  0  0  0  0  0  0  0  0  0  0  0
   20.8801    3.8907   29.1284 C   0  0  1  0  0  0  0  0  0  0  0  0
   21.6578    5.0999   29.0957 O   0  0  0  0  0  0  0  0  0  0  0  0
   19.8289    3.8540   28.0262 C   0  0  0  0  0  0  0  0  0  0  0  0
   20.4769    3.0308   26.9161 C   0  0  2  0  0  0  0  0  0  0  0  0
   17.5632    1.5762   22.9253 N   0  0  0  0  0  0  0  0  0  0  0  0
   18.3459    2.6630   23.0253 C   0  0  2  0  0  0  0  0  0  0  0  0
   18.4087    3.4963   21.9607 N   0  0  0  0  0  0  0  0  0  0  0  0
   19.0565    2.9109   24.1519 N   0  0  0  0  0  0  0  0  0  0  0  0
   18.9775    2.0557   25.1922 C   0  0  2  0  0  0  0  0  0  0  0  0
   18.1774    0.9370   25.1062 C   0  0  1  0  0  0  0  0  0  0  0  0
   17.4686    0.7019   23.9435 C   0  0  0  0  0  0  0  0  0  0  0  0
   16.7423   -0.3105   23.8430 O   0  0  0  0  0  0  0  0  0  0  0  0
   18.2718    0.2648   26.2705 N   0  0  0  0  0  0  0  0  0  0  0  0
   19.1188    0.9487   27.0600 C   0  0  0  0  0  0  0  0  0  0  0  0
   19.5308    2.0363   26.3995 N   0  0  1  0  0  0  0  0  0  0  0  0
   24.1047    3.3402   30.3485 O   0  0  0  0  0  0  0  0  0  0  0  0
   23.8038    2.6012   32.7585 O   0  5  0  0  0  0  0  0  0  0  0  0
   24.1787    0.8901   30.9369 O   0  0  0  0  0  0  0  0  0  0  0  0
  1  3  1  6  0  0  0
  1 21  1  0  0  0  0
  1 22  1  0  0  0  0
  1 23  2  0  0  0  0
  2  3  1  0  0  0  0
  4  2  1  1  0  0  0
  4  5  1  0  0  0  0
  4  6  1  0  0  0  0
  6  7  1  6  0  0  0
  6  8  1  0  0  0  0
  8  9  1  0  0  0  0
  9  5  1  1  0  0  0
  9 20  1  0  0  0  0
 10 11  1  0  0  0  0
 10 16  1  0  0  0  0
 11 12  1  6  0  0  0
 11 13  1  0  0  0  0
 14 13  1  1  0  0  0
 14 15  1  0  0  0  0
 14 20  1  0  0  0  0
 15 16  1  6  0  0  0
 15 18  1  0  0  0  0
 16 17  2  0  0  0  0
 18 19  1  0  0  0  0
 20 19  1  6  0  0  0
M  CHG  1  22  -1
M  END
>  <CHROM.1>
64.62391214,169.85217501,-68.88885692,-132.70536880,20.60025385,2.23416498
27.55510377,0.30427604,0.90494055,2.63778782

>  <Name>
ligand

>  <RI>
0

>  <Rbt.Current_Directory>
/home/itssahil/PROJECTS/Mol_Feturizer/Test_systems_manuscript/rnas/3slm

>  <Rbt.Executable>
rbdock ($Id: //depot/dev/client3/rdock/2013.1/src/exe/rbdock.cxx#4 $)

>  <Rbt.Library>
libRbt.so (2013.1, Build901 2013/11/27)

>  <Rbt.Parameter_File>
/export/apps/rDock/src/rDock_2013.1_src/data/scripts/dock_solv.prm

>  <Rbt.Receptor>
prm/pocket_docking_3.prm

>  <SCORE>
-21.3029

>  <SCORE.INTER>
-16.5688

>  <SCORE.INTER.CONST>
1

>  <SCORE.INTER.POLAR>
0

>  <SCORE.INTER.ROT>
4

>  <SCORE.INTER.SOLV>
27.9629

>  <SCORE.INTER.VDW>
-26.6335

>  <SCORE.INTER.norm>
-0.720383

>  <SCORE.INTRA>
-4.73528

>  <SCORE.INTRA.DIHEDRAL>
-6.59844

>  <SCORE.INTRA.DIHEDRAL.0>
8.62657

>  <SCORE.INTRA.POLAR>
0

>  <SCORE.INTRA.POLAR.0>
0

>  <SCORE.INTRA.REPUL>
0

>  <SCORE.INTRA.REPUL.0>
0

>  <SCORE.INTRA.SOLV>
0.735325

>  <SCORE.INTRA.SOLV.lig_0>
-66.3641

>  <SCORE.INTRA.VDW>
-1.80372

>  <SCORE.INTRA.VDW.0>
0.452231

>  <SCORE.INTRA.norm>
-0.205882

>  <SCORE.RESTR>
0.00117816

>  <SCORE.RESTR.CAVITY>
0.00117816

>  <SCORE.RESTR.norm>
5.12242e-05

>  <SCORE.SYSTEM>
0

>  <SCORE.SYSTEM.CONST>
0

>  <SCORE.SYSTEM.DIHEDRAL>
0

>  <SCORE.SYSTEM.SOLV>
0

>  <SCORE.SYSTEM.norm>
0

>  <SCORE.heavy>
23

>  <SCORE.norm>
-0.926213

>  <RMSD>
1.444

$$$$
ligand
 OpenBabel02271912143D
libRbt.so/2013.1/901 2013/11/27
 23 25  0  0  0  0  0  0  0  0999 V2000
   23.6420    2.2895   31.3016 P   0  0  1  0  0  0  0  0  0  0  0  0
   21.4991    1.7433   29.8999 C   0  0  0  0  0  0  0  0  0  0  0  0
   22.0455    2.1783   31.1372 O   0  0  0  0  0  0  0  0  0  0  0  0
   21.7456    2.8397   28.8882 C   0  0  1  0  0  0  0  0  0  0  0  0
   21.5061    2.4007   27.5515 O   0  0  0  0  0  0  0  0  0  0  0  0
   20.8073    4.0005   29.1724 C   0  0  1  0  0  0  0  0  0  0  0  0
   21.5771    5.2149   29.1464 O   0  0  0  0  0  0  0  0  0  0  0  0
   19.7664    3.9565   28.0608 C   0  0  0  0  0  0  0  0  0  0  0  0
   20.4298    3.1376   26.9567 C   0  0  2  0  0  0  0  0  0  0  0  0
   17.6232    1.6199   22.9131 N   0  0  0  0  0  0  0  0  0  0  0  0
   18.4063    2.7061   23.0154 C   0  0  2  0  0  0  0  0  0  0  0  0
   18.5013    3.5200   21.9383 N   0  0  0  0  0  0  0  0  0  0  0  0
   19.0862    2.9722   24.1567 N   0  0  0  0  0  0  0  0  0  0  0  0
   18.9756    2.1360   25.2095 C   0  0  2  0  0  0  0  0  0  0  0  0
   18.1745    1.0181   25.1213 C   0  0  1  0  0  0  0  0  0  0  0  0
   17.4974    0.7642   23.9437 C   0  0  0  0  0  0  0  0  0  0  0  0
   16.7709   -0.2477   23.8411 O   0  0  0  0  0  0  0  0  0  0  0  0
   18.2344    0.3667   26.2996 N   0  0  0  0  0  0  0  0  0  0  0  0
   19.0614    1.0622   27.0999 C   0  0  0  0  0  0  0  0  0  0  0  0
   19.4951    2.1367   26.4319 N   0  0  1  0  0  0  0  0  0  0  0  0
   24.1056    3.3869   30.3747 O   0  0  0  0  0  0  0  0  0  0  0  0
   23.8369    2.5897   32.7699 O   0  5  0  0  0  0  0  0  0  0  0  0
   24.1128    0.9198   30.8932 O   0  0  0  0  0  0  0  0  0  0  0  0
  1  3  1  6  0  0  0
  1 21  1  0  0  0  0
  1 22  1  0  0  0  0
  1 23  2  0  0  0  0
  2  3  1  0  0  0  0
  4  2  1  1  0  0  0
  4  5  1  0  0  0  0
  4  6  1  0  0  0  0
  6  7  1  6  0  0  0
  6  8  1  0  0  0  0
  8  9  1  0  0  0  0
  9  5  1  1  0  0  0
  9 20  1  0  0  0  0
 10 11  1  0  0  0  0
 10 16  1  0  0  0  0
 11 12  1  6  0  0  0
 11 13  1  0  0  0  0
 14 13  1  1  0  0  0
 14 15  1  0  0  0  0
 14 20  1  0  0  0  0
 15 16  1  6  0  0  0
 15 18  1  0  0  0  0
 16 17  2  0  0  0  0
 18 19  1  0  0  0  0
 20 19  1  6  0  0  0
M  CHG  1  22  -1
M  END
>  <CHROM.1>
66.06525760,167.13680260,-69.57020009,-131.12118973,20.58522117,2.30724609
27.57423223,0.29718589,0.91334349,2.64993939

>  <Name>
ligand

>  <RI>
0

>  <Rbt.Current_Directory>
/home/itssahil/PROJECTS/Mol_Feturizer/Test_systems_manuscript/rnas/3slm

>  <Rbt.Executable>
rbdock ($Id: //depot/dev/client3/rdock/2013.1/src/exe/rbdock.cxx#4 $)

>  <Rbt.Library>
libRbt.so (2013.1, Build901 2013/11/27)

>  <Rbt.Parameter_File>
/export/apps/rDock/src/rDock_2013.1_src/data/scripts/dock_solv.prm

>  <Rbt.Receptor>
prm/pocket_docking_3.prm

>  <SCORE>
-21.4381

>  <SCORE.INTER>
-16.7848

>  <SCORE.INTER.CONST>
1

>  <SCORE.INTER.POLAR>
0

>  <SCORE.INTER.ROT>
4

>  <SCORE.INTER.SOLV>
28.1205

>  <SCORE.INTER.VDW>
-26.83

>  <SCORE.INTER.norm>
-0.729773

>  <SCORE.INTRA>
-4.65337

>  <SCORE.INTRA.DIHEDRAL>
-6.30315

>  <SCORE.INTRA.DIHEDRAL.0>
8.62657

>  <SCORE.INTRA.POLAR>
0

>  <SCORE.INTRA.POLAR.0>
0

>  <SCORE.INTRA.REPUL>
0

>  <SCORE.INTRA.REPUL.0>
0

>  <SCORE.INTRA.SOLV>
0.689406

>  <SCORE.INTRA.SOLV.lig_0>
-66.3641

>  <SCORE.INTRA.VDW>
-1.8465

>  <SCORE.INTRA.VDW.0>
0.452231

>  <SCORE.INTRA.norm>
-0.202321

>  <SCORE.RESTR>
0

>  <SCORE.RESTR.CAVITY>
0

>  <SCORE.RESTR.norm>
0

>  <SCORE.SYSTEM>
0

>  <SCORE.SYSTEM.CONST>
0

>  <SCORE.SYSTEM.DIHEDRAL>
0

>  <SCORE.SYSTEM.SOLV>
0

>  <SCORE.SYSTEM.norm>
0

>  <SCORE.heavy>
23

>  <SCORE.norm>
-0.932093

>  <RMSD>
1.477

$$$$
ligand
 OpenBabel02271912143D
libRbt.so/2013.1/901 2013/11/27
 23 25  0  0  0  0  0  0  0  0999 V2000
   23.1663    1.9782   32.0356 P   0  0  1  0  0  0  0  0  0  0  0  0
   22.5585    2.2868   29.5076 C   0  0  0  0  0  0  0  0  0  0  0  0
   23.0437    2.8758   30.7061 O   0  0  0  0  0  0  0  0  0  0  0  0
   22.4047    3.3954   28.4909 C   0  0  1  0  0  0  0  0  0  0  0  0
   21.9004    2.9152   27.2451 O   0  0  0  0  0  0  0  0  0  0  0  0
   21.4250    4.4276   29.0232 C   0  0  1  0  0  0  0  0  0  0  0  0
   22.0022    5.7313   28.8353 O   0  0  0  0  0  0  0  0  0  0  0  0
   20.1560    4.2375   28.2018 C   0  0  0  0  0  0  0  0  0  0  0  0
   20.6252    3.5002   26.9504 C   0  0  2  0  0  0  0  0  0  0  0  0
   17.5687    1.3010   23.4356 N   0  0  0  0  0  0  0  0  0  0  0  0
   18.2698    2.4411   23.3247 C   0  0  2  0  0  0  0  0  0  0  0  0
   18.1955    3.1171   22.1546 N   0  0  0  0  0  0  0  0  0  0  0  0
   19.0339    2.8938   24.3479 N   0  0  0  0  0  0  0  0  0  0  0  0
   19.0922    2.1917   25.4983 C   0  0  2  0  0  0  0  0  0  0  0  0
   18.3772    1.0208   25.6288 C   0  0  1  0  0  0  0  0  0  0  0  0
   17.6113    0.5759   24.5680 C   0  0  0  0  0  0  0  0  0  0  0  0
   16.9605   -0.4869   24.6639 O   0  0  0  0  0  0  0  0  0  0  0  0
   18.6021    0.5288   26.8632 N   0  0  0  0  0  0  0  0  0  0  0  0
   19.4453    1.3732   27.4831 C   0  0  0  0  0  0  0  0  0  0  0  0
   19.7260    2.3811   26.6501 N   0  0  1  0  0  0  0  0  0  0  0  0
   21.8333    1.2984   32.2334 O   0  0  0  0  0  0  0  0  0  0  0  0
   24.3085    1.0354   31.7344 O   0  5  0  0  0  0  0  0  0  0  0  0
   23.4833    2.9984   33.0954 O   0  0  0  0  0  0  0  0  0  0  0  0
  1  3  1  6  0  0  0
  1 21  1  0  0  0  0
  1 22  1  0  0  0  0
  1 23  2  0  0  0  0
  2  3  1  0  0  0  0
  4  2  1  1  0  0  0
  4  5  1  0  0  0  0
  4  6  1  0  0  0  0
  6  7  1  6  0  0  0
  6  8  1  0  0  0  0
  8  9  1  0  0  0  0
  9  5  1  1  0  0  0
  9 20  1  0  0  0  0
 10 11  1  0  0  0  0
 10 16  1  0  0  0  0
 11 12  1  6  0  0  0
 11 13  1  0  0  0  0
 14 13  1  1  0  0  0
 14 15  1  0  0  0  0
 14 20  1  0  0  0  0
 15 16  1  6  0  0  0
 15 18  1  0  0  0  0
 16 17  2  0  0  0  0
 18 19  1  0  0  0  0
 20 19  1  6  0  0  0
M  CHG  1  22  -1
M  END
>  <CHROM.1>
-51.22487547,-179.14131346,173.56276648,-119.39570306,20.66980190,2.34167226
27.88633111,0.43083161,0.90719117,2.50068708

>  <Name>
ligand

>  <RI>
416

>  <Rbt.Current_Directory>
/home/itssahil/PROJECTS/Mol_Feturizer/Test_systems_manuscript/rnas/3slm

>  <Rbt.Executable>
rbdock ($Id: //depot/dev/client3/rdock/2013.1/src/exe/rbdock.cxx#4 $)

>  <Rbt.Library>
libRbt.so (2013.1, Build901 2013/11/27)

>  <Rbt.Parameter_File>
/export/apps/rDock/src/rDock_2013.1_src/data/scripts/dock_solv.prm

>  <Rbt.Receptor>
prm/pocket_docking_6.prm

>  <SCORE>
-22.6027

>  <SCORE.INTER>
-17.1449

>  <SCORE.INTER.CONST>
1

>  <SCORE.INTER.POLAR>
0

>  <SCORE.INTER.ROT>
4

>  <SCORE.INTER.SOLV>
31.4262

>  <SCORE.INTER.VDW>
-28.172

>  <SCORE.INTER.norm>
-0.745433

>  <SCORE.INTRA>
-5.45775

>  <SCORE.INTRA.DIHEDRAL>
-7.07918

>  <SCORE.INTRA.DIHEDRAL.0>
8.62657

>  <SCORE.INTRA.POLAR>
0

>  <SCORE.INTRA.POLAR.0>
0

>  <SCORE.INTRA.REPUL>
0

>  <SCORE.INTRA.REPUL.0>
0

>  <SCORE.INTRA.SOLV>
-0.580323

>  <SCORE.INTRA.SOLV.lig_0>
-66.3641

>  <SCORE.INTRA.VDW>
-1.628

>  <SCORE.INTRA.VDW.0>
0.452231

>  <SCORE.INTRA.norm>
-0.237294

>  <SCORE.RESTR>
0

>  <SCORE.RESTR.CAVITY>
0

>  <SCORE.RESTR.norm>
0

>  <SCORE.SYSTEM>
0

>  <SCORE.SYSTEM.CONST>
0

>  <SCORE.SYSTEM.DIHEDRAL>
0

>  <SCORE.SYSTEM.SOLV>
0

>  <SCORE.SYSTEM.norm>
0

>  <SCORE.heavy>
23

>  <SCORE.norm>
-0.982726

>  <RMSD>
1.477

$$$$
ligand
 OpenBabel02271912143D
libRbt.so/2013.1/901 2013/11/27
 23 25  0  0  0  0  0  0  0  0999 V2000
   25.0070    0.2010   28.2226 P   0  0  1  0  0  0  0  0  0  0  0  0
   23.2365    2.0947   28.5898 C   0  0  0  0  0  0  0  0  0  0  0  0
   24.3011    1.5835   27.7998 O   0  0  0  0  0  0  0  0  0  0  0  0
   22.7251    3.3416   27.9041 C   0  0  1  0  0  0  0  0  0  0  0  0
   21.9386    3.0370   26.7528 O   0  0  0  0  0  0  0  0  0  0  0  0
   21.8509    4.1202   28.8727 C   0  0  1  0  0  0  0  0  0  0  0  0
   22.2517    5.5005   28.8269 O   0  0  0  0  0  0  0  0  0  0  0  0
   20.4246    3.9195   28.3762 C   0  0  0  0  0  0  0  0  0  0  0  0
   20.5899    3.4935   26.9199 C   0  0  2  0  0  0  0  0  0  0  0  0
   17.5454    1.2115   23.4477 N   0  0  0  0  0  0  0  0  0  0  0  0
   18.1938    2.3824   23.3367 C   0  0  2  0  0  0  0  0  0  0  0  0
   18.0615    3.0704   22.1788 N   0  0  0  0  0  0  0  0  0  0  0  0
   18.9626    2.8539   24.3478 N   0  0  0  0  0  0  0  0  0  0  0  0
   19.0795    2.1394   25.4860 C   0  0  2  0  0  0  0  0  0  0  0  0
   18.4191    0.9369   25.6165 C   0  0  1  0  0  0  0  0  0  0  0  0
   17.6472    0.4736   24.5681 C   0  0  0  0  0  0  0  0  0  0  0  0
   17.0454   -0.6178   24.6640 O   0  0  0  0  0  0  0  0  0  0  0  0
   18.6954    0.4383   26.8378 N   0  0  0  0  0  0  0  0  0  0  0  0
   19.5164    1.3101   27.4496 C   0  0  0  0  0  0  0  0  0  0  0  0
   19.7328    2.3406   26.6249 N   0  0  1  0  0  0  0  0  0  0  0  0
   26.3481    0.1609   27.5314 O   0  0  0  0  0  0  0  0  0  0  0  0
   25.0844    0.2778   29.7301 O   0  5  0  0  0  0  0  0  0  0  0  0
   24.0389   -0.8333   27.7154 O   0  0  0  0  0  0  0  0  0  0  0  0
  1  3  1  6  0  0  0
  1 21  1  0  0  0  0
  1 22  1  0  0  0  0
  1 23  2  0  0  0  0
  2  3  1  0  0  0  0
  4  2  1  1  0  0  0
  4  5  1  0  0  0  0
  4  6  1  0  0  0  0
  6  7  1  6  0  0  0
  6  8  1  0  0  0  0
  8  9  1  0  0  0  0
  9  5  1  1  0  0  0
  9 20  1  0  0  0  0
 10 11  1  0  0  0  0
 10 16  1  0  0  0  0
 11 12  1  6  0  0  0
 11 13  1  0  0  0  0
 14 13  1  1  0  0  0
 14 15  1  0  0  0  0
 14 20  1  0  0  0  0
 15 16  1  6  0  0  0
 15 18  1  0  0  0  0
 16 17  2  0  0  0  0
 18 19  1  0  0  0  0
 20 19  1  6  0  0  0
M  CHG  1  22  -1
M  END
>  <CHROM.1>
-160.76874535,75.29337030,-176.52401080,-101.38424289,21.25211490,1.77795689
26.74816688,-0.12476674,0.54595959,-2.78532548

>  <Name>
ligand

>  <RI>
416

>  <Rbt.Current_Directory>
/home/itssahil/PROJECTS/Mol_Feturizer/Test_systems_manuscript/rnas/3slm

>  <Rbt.Executable>
rbdock ($Id: //depot/dev/client3/rdock/2013.1/src/exe/rbdock.cxx#4 $)

>  <Rbt.Library>
libRbt.so (2013.1, Build901 2013/11/27)

>  <Rbt.Parameter_File>
/export/apps/rDock/src/rDock_2013.1_src/data/scripts/dock_solv.prm

>  <Rbt.Receptor>
prm/pocket_docking_5.prm

>  <SCORE>
-21.9842

>  <SCORE.INTER>
-17.6511

>  <SCORE.INTER.CONST>
1

>  <SCORE.INTER.POLAR>
0

>  <SCORE.INTER.ROT>
4

>  <SCORE.INTER.SOLV>
26.9768

>  <SCORE.INTER.VDW>
-27.0263

>  <SCORE.INTER.norm>
-0.767438

>  <SCORE.INTRA>
-4.33311

>  <SCORE.INTRA.DIHEDRAL>
-6.02122

>  <SCORE.INTRA.DIHEDRAL.0>
8.62657

>  <SCORE.INTRA.POLAR>
0

>  <SCORE.INTRA.POLAR.0>
0

>  <SCORE.INTRA.REPUL>
0

>  <SCORE.INTRA.REPUL.0>
0

>  <SCORE.INTRA.SOLV>
-0.0871073

>  <SCORE.INTRA.SOLV.lig_0>
-66.3641

>  <SCORE.INTRA.VDW>
-1.27895

>  <SCORE.INTRA.VDW.0>
0.452231

>  <SCORE.INTRA.norm>
-0.188396

>  <SCORE.RESTR>
0

>  <SCORE.RESTR.CAVITY>
0

>  <SCORE.RESTR.norm>
0

>  <SCORE.SYSTEM>
0

>  <SCORE.SYSTEM.CONST>
0

>  <SCORE.SYSTEM.DIHEDRAL>
0

>  <SCORE.SYSTEM.SOLV>
0

>  <SCORE.SYSTEM.norm>
0

>  <SCORE.heavy>
23

>  <SCORE.norm>
-0.955835

>  <RMSD>
1.483

$$$$
ligand
 OpenBabel02271912143D
libRbt.so/2013.1/901 2013/11/27
 23 25  0  0  0  0  0  0  0  0999 V2000
   24.9904    0.1197   28.2820 P   0  0  1  0  0  0  0  0  0  0  0  0
   23.2434    2.0434   28.6024 C   0  0  0  0  0  0  0  0  0  0  0  0
   24.2914    1.4921   27.8172 O   0  0  0  0  0  0  0  0  0  0  0  0
   22.7810    3.3074   27.9131 C   0  0  1  0  0  0  0  0  0  0  0  0
   22.0293    3.0306   26.7319 O   0  0  0  0  0  0  0  0  0  0  0  0
   21.8891    4.0934   28.8593 C   0  0  1  0  0  0  0  0  0  0  0  0
   22.3185    5.4658   28.8427 O   0  0  0  0  0  0  0  0  0  0  0  0
   20.4773    3.9267   28.3114 C   0  0  0  0  0  0  0  0  0  0  0  0
   20.6849    3.5124   26.8571 C   0  0  2  0  0  0  0  0  0  0  0  0
   17.6494    1.3721   23.2883 N   0  0  0  0  0  0  0  0  0  0  0  0
   18.3144    2.5369   23.2179 C   0  0  2  0  0  0  0  0  0  0  0  0
   18.2041    3.2594   22.0789 N   0  0  0  0  0  0  0  0  0  0  0  0
   19.0781    2.9688   24.2504 N   0  0  0  0  0  0  0  0  0  0  0  0
   19.1728    2.2205   25.3688 C   0  0  2  0  0  0  0  0  0  0  0  0
   18.4951    1.0238   25.4576 C   0  0  1  0  0  0  0  0  0  0  0  0
   17.7289    0.6012   24.3879 C   0  0  0  0  0  0  0  0  0  0  0  0
   17.1116   -0.4842   24.4460 O   0  0  0  0  0  0  0  0  0  0  0  0
   18.7512    0.4868   26.6668 N   0  0  0  0  0  0  0  0  0  0  0  0
   19.5767    1.3296   27.3123 C   0  0  0  0  0  0  0  0  0  0  0  0
   19.8159    2.3801   26.5199 N   0  0  1  0  0  0  0  0  0  0  0  0
   26.3378    0.0593   27.6046 O   0  0  0  0  0  0  0  0  0  0  0  0
   25.0539    0.2350   29.7876 O   0  5  0  0  0  0  0  0  0  0  0  0
   24.0248   -0.9256   27.7925 O   0  0  0  0  0  0  0  0  0  0  0  0
  1  3  1  6  0  0  0
  1 21  1  0  0  0  0
  1 22  1  0  0  0  0
  1 23  2  0  0  0  0
  2  3  1  0  0  0  0
  4  2  1  1  0  0  0
  4  5  1  0  0  0  0
  4  6  1  0  0  0  0
  6  7  1  6  0  0  0
  6  8  1  0  0  0  0
  8  9  1  0  0  0  0
  9  5  1  1  0  0  0
  9 20  1  0  0  0  0
 10 11  1  0  0  0  0
 10 16  1  0  0  0  0
 11 12  1  6  0  0  0
 11 13  1  0  0  0  0
 14 13  1  1  0  0  0
 14 15  1  0  0  0  0
 14 20  1  0  0  0  0
 15 16  1  6  0  0  0
 15 18  1  0  0  0  0
 16 17  2  0  0  0  0
 18 19  1  0  0  0  0
 20 19  1  6  0  0  0
M  CHG  1  22  -1
M  END
>  <CHROM.1>
-159.17358462,73.15918039,-179.33824842,-103.13781265,21.30365850,1.79536386
26.69774649,-0.10299662,0.58305269,-2.79199276

>  <Name>
ligand

>  <RI>
416

>  <Rbt.Current_Directory>
/home/itssahil/PROJECTS/Mol_Feturizer/Test_systems_manuscript/rnas/3slm

>  <Rbt.Executable>
rbdock ($Id: //depot/dev/client3/rdock/2013.1/src/exe/rbdock.cxx#4 $)

>  <Rbt.Library>
libRbt.so (2013.1, Build901 2013/11/27)

>  <Rbt.Parameter_File>
/export/apps/rDock/src/rDock_2013.1_src/data/scripts/dock_solv.prm

>  <Rbt.Receptor>
prm/pocket_docking_4.prm

>  <SCORE>
-21.8831

>  <SCORE.INTER>
-17.4536

>  <SCORE.INTER.CONST>
1

>  <SCORE.INTER.POLAR>
0

>  <SCORE.INTER.ROT>
4

>  <SCORE.INTER.SOLV>
27.3453

>  <SCORE.INTER.VDW>
-27.0175

>  <SCORE.INTER.norm>
-0.758852

>  <SCORE.INTRA>
-4.42952

>  <SCORE.INTRA.DIHEDRAL>
-6.18705

>  <SCORE.INTRA.DIHEDRAL.0>
8.62657

>  <SCORE.INTRA.POLAR>
0

>  <SCORE.INTRA.POLAR.0>
0

>  <SCORE.INTRA.REPUL>
0

>  <SCORE.INTRA.REPUL.0>
0

>  <SCORE.INTRA.SOLV>
-0.099152

>  <SCORE.INTRA.SOLV.lig_0>
-66.3641

>  <SCORE.INTRA.VDW>
-1.28642

>  <SCORE.INTRA.VDW.0>
0.452231

>  <SCORE.INTRA.norm>
-0.192588

>  <SCORE.RESTR>
0

>  <SCORE.RESTR.CAVITY>
0

>  <SCORE.RESTR.norm>
0

>  <SCORE.SYSTEM>
0

>  <SCORE.SYSTEM.CONST>
0

>  <SCORE.SYSTEM.DIHEDRAL>
0

>  <SCORE.SYSTEM.SOLV>
0

>  <SCORE.SYSTEM.norm>
0

>  <SCORE.heavy>
23

>  <SCORE.norm>
-0.95144

>  <RMSD>
1.485

$$$$
ligand
 OpenBabel02271912143D
libRbt.so/2013.1/901 2013/11/27
 23 25  0  0  0  0  0  0  0  0999 V2000
   23.2086    1.9945   31.9957 P   0  0  1  0  0  0  0  0  0  0  0  0
   22.6378    2.2927   29.4579 C   0  0  0  0  0  0  0  0  0  0  0  0
   23.0860    2.8916   30.6659 O   0  0  0  0  0  0  0  0  0  0  0  0
   22.5469    3.3875   28.4189 C   0  0  1  0  0  0  0  0  0  0  0  0
   22.0547    2.9030   27.1700 O   0  0  0  0  0  0  0  0  0  0  0  0
   21.5926    4.4630   28.9101 C   0  0  1  0  0  0  0  0  0  0  0  0
   22.2200    5.7419   28.7134 O   0  0  0  0  0  0  0  0  0  0  0  0
   20.3369    4.3029   28.0622 C   0  0  0  0  0  0  0  0  0  0  0  0
   20.8082    3.5271   26.8352 C   0  0  2  0  0  0  0  0  0  0  0  0
   17.6537    1.4494   23.3331 N   0  0  0  0  0  0  0  0  0  0  0  0
   18.3825    2.5724   23.2269 C   0  0  2  0  0  0  0  0  0  0  0  0
   18.3115    3.2641   22.0658 N   0  0  0  0  0  0  0  0  0  0  0  0
   19.1704    2.9930   24.2458 N   0  0  0  0  0  0  0  0  0  0  0  0
   19.2246    2.2758   25.3870 C   0  0  2  0  0  0  0  0  0  0  0  0
   18.4812    1.1222   25.5127 C   0  0  1  0  0  0  0  0  0  0  0  0
   17.6914    0.7098   24.4564 C   0  0  0  0  0  0  0  0  0  0  0  0
   17.0146   -0.3371   24.5479 O   0  0  0  0  0  0  0  0  0  0  0  0
   18.7084    0.6097   26.7383 N   0  0  0  0  0  0  0  0  0  0  0  0
   19.5805    1.4247   27.3576 C   0  0  0  0  0  0  0  0  0  0  0  0
   19.8770    2.4351   26.5330 N   0  0  1  0  0  0  0  0  0  0  0  0
   24.3367    1.0182   31.7670 O   0  0  0  0  0  0  0  0  0  0  0  0
   23.4683    3.0019   33.0920 O   0  5  0  0  0  0  0  0  0  0  0  0
   21.8560    1.3402   32.0791 O   0  0  0  0  0  0  0  0  0  0  0  0
  1  3  1  6  0  0  0
  1 21  1  0  0  0  0
  1 22  1  0  0  0  0
  1 23  2  0  0  0  0
  2  3  1  0  0  0  0
  4  2  1  1  0  0  0
  4  5  1  0  0  0  0
  4  6  1  0  0  0  0
  6  7  1  6  0  0  0
  6  8  1  0  0  0  0
  8  9  1  0  0  0  0
  9  5  1  1  0  0  0
  9 20  1  0  0  0  0
 10 11  1  0  0  0  0
 10 16  1  0  0  0  0
 11 12  1  6  0  0  0
 11 13  1  0  0  0  0
 14 13  1  1  0  0  0
 14 15  1  0  0  0  0
 14 20  1  0  0  0  0
 15 16  1  6  0  0  0
 15 18  1  0  0  0  0
 16 17  2  0  0  0  0
 18 19  1  0  0  0  0
 20 19  1  6  0  0  0
M  CHG  1  22  -1
M  END
>  <CHROM.1>
68.18527186,-177.80281119,176.66151457,-122.10401667,20.77137761,2.39675653
27.79899959,0.47871689,0.89799376,2.45990185

>  <Name>
ligand

>  <RI>
416

>  <Rbt.Current_Directory>
/home/itssahil/PROJECTS/Mol_Feturizer/Test_systems_manuscript/rnas/3slm

>  <Rbt.Executable>
rbdock ($Id: //depot/dev/client3/rdock/2013.1/src/exe/rbdock.cxx#4 $)

>  <Rbt.Library>
libRbt.so (2013.1, Build901 2013/11/27)

>  <Rbt.Parameter_File>
/export/apps/rDock/src/rDock_2013.1_src/data/scripts/dock_solv.prm

>  <Rbt.Receptor>
prm/pocket_docking_6.prm

>  <SCORE>
-22.6724

>  <SCORE.INTER>
-17.4269

>  <SCORE.INTER.CONST>
1

>  <SCORE.INTER.POLAR>
0

>  <SCORE.INTER.ROT>
4

>  <SCORE.INTER.SOLV>
31.349

>  <SCORE.INTER.VDW>
-28.3343

>  <SCORE.INTER.norm>
-0.757692

>  <SCORE.INTRA>
-5.24547

>  <SCORE.INTRA.DIHEDRAL>
-7.22042

>  <SCORE.INTRA.DIHEDRAL.0>
8.62657

>  <SCORE.INTRA.POLAR>
0

>  <SCORE.INTRA.POLAR.0>
0

>  <SCORE.INTRA.REPUL>
0

>  <SCORE.INTRA.REPUL.0>
0

>  <SCORE.INTRA.SOLV>
-0.292693

>  <SCORE.INTRA.SOLV.lig_0>
-66.3641

>  <SCORE.INTRA.VDW>
-1.48891

>  <SCORE.INTRA.VDW.0>
0.452231

>  <SCORE.INTRA.norm>
-0.228064

>  <SCORE.RESTR>
0

>  <SCORE.RESTR.CAVITY>
0

>  <SCORE.RESTR.norm>
0

>  <SCORE.SYSTEM>
0

>  <SCORE.SYSTEM.CONST>
0

>  <SCORE.SYSTEM.DIHEDRAL>
0

>  <SCORE.SYSTEM.SOLV>
0

>  <SCORE.SYSTEM.norm>
0

>  <SCORE.heavy>
23

>  <SCORE.norm>
-0.985756

>  <RMSD>
1.488

$$$$
ligand
 OpenBabel02271912143D
libRbt.so/2013.1/901 2013/11/27
 23 25  0  0  0  0  0  0  0  0999 V2000
   22.7872    2.1710   31.8594 P   0  0  1  0  0  0  0  0  0  0  0  0
   22.7190    2.1332   29.2423 C   0  0  0  0  0  0  0  0  0  0  0  0
   23.3163    2.6574   30.4201 O   0  0  0  0  0  0  0  0  0  0  0  0
   22.5700    3.2774   28.2650 C   0  0  1  0  0  0  0  0  0  0  0  0
   22.0015    2.8547   27.0261 O   0  0  0  0  0  0  0  0  0  0  0  0
   21.6513    4.3287   28.8645 C   0  0  1  0  0  0  0  0  0  0  0  0
   22.2709    5.6150   28.6926 O   0  0  0  0  0  0  0  0  0  0  0  0
   20.3462    4.2114   28.0873 C   0  0  0  0  0  0  0  0  0  0  0  0
   20.7396    3.4957   26.7978 C   0  0  2  0  0  0  0  0  0  0  0  0
   17.5693    1.4477   23.2926 N   0  0  0  0  0  0  0  0  0  0  0  0
   18.3230    2.5536   23.1802 C   0  0  2  0  0  0  0  0  0  0  0  0
   18.2762    3.2338   22.0111 N   0  0  0  0  0  0  0  0  0  0  0  0
   19.1115    2.9684   24.2009 N   0  0  0  0  0  0  0  0  0  0  0  0
   19.1410    2.2628   25.3503 C   0  0  2  0  0  0  0  0  0  0  0  0
   18.3720    1.1269   25.4824 C   0  0  1  0  0  0  0  0  0  0  0  0
   17.5819    0.7200   24.4241 C   0  0  0  0  0  0  0  0  0  0  0  0
   16.8820   -0.3110   24.5214 O   0  0  0  0  0  0  0  0  0  0  0  0
   18.5782    0.6232   26.7153 N   0  0  0  0  0  0  0  0  0  0  0  0
   19.4626    1.4261   27.3329 C   0  0  0  0  0  0  0  0  0  0  0  0
   19.7875    2.4207   26.4998 N   0  0  1  0  0  0  0  0  0  0  0  0
   22.5754    0.6793   31.7706 O   0  0  0  0  0  0  0  0  0  0  0  0
   23.8842    2.5895   32.8112 O   0  5  0  0  0  0  0  0  0  0  0  0
   21.5103    2.9501   32.0230 O   0  0  0  0  0  0  0  0  0  0  0  0
  1  3  1  6  0  0  0
  1 21  1  0  0  0  0
  1 22  1  0  0  0  0
  1 23  2  0  0  0  0
  2  3  1  0  0  0  0
  4  2  1  1  0  0  0
  4  5  1  0  0  0  0
  4  6  1  0  0  0  0
  6  7  1  6  0  0  0
  6  8  1  0  0  0  0
  8  9  1  0  0  0  0
  9  5  1  1  0  0  0
  9 20  1  0  0  0  0
 10 11  1  0  0  0  0
 10 16  1  0  0  0  0
 11 12  1  6  0  0  0
 11 13  1  0  0  0  0
 14 13  1  1  0  0  0
 14 15  1  0  0  0  0
 14 20  1  0  0  0  0
 15 16  1  6  0  0  0
 15 18  1  0  0  0  0
 16 17  2  0  0  0  0
 18 19  1  0  0  0  0
 20 19  1  6  0  0  0
M  CHG  1  22  -1
M  END
>  <CHROM.1>
42.26479451,178.75735628,139.08471500,-116.78844017,20.62885794,2.41137040
27.71932808,0.56587486,0.87427467,2.32905026

>  <Name>
ligand

>  <RI>
0

>  <Rbt.Current_Directory>
/home/itssahil/PROJECTS/Mol_Feturizer/Test_systems_manuscript/rnas/3slm

>  <Rbt.Executable>
rbdock ($Id: //depot/dev/client3/rdock/2013.1/src/exe/rbdock.cxx#4 $)

>  <Rbt.Library>
libRbt.so (2013.1, Build901 2013/11/27)

>  <Rbt.Parameter_File>
/export/apps/rDock/src/rDock_2013.1_src/data/scripts/dock_solv.prm

>  <Rbt.Receptor>
prm/pocket_docking_3.prm

>  <SCORE>
-19.138

>  <SCORE.INTER>
-16.8285

>  <SCORE.INTER.CONST>
1

>  <SCORE.INTER.POLAR>
0

>  <SCORE.INTER.ROT>
4

>  <SCORE.INTER.SOLV>
29.8999

>  <SCORE.INTER.VDW>
-27.4523

>  <SCORE.INTER.norm>
-0.731675

>  <SCORE.INTRA>
-2.30945

>  <SCORE.INTRA.DIHEDRAL>
-1.4248

>  <SCORE.INTRA.DIHEDRAL.0>
8.62657

>  <SCORE.INTRA.POLAR>
0

>  <SCORE.INTRA.POLAR.0>
0

>  <SCORE.INTRA.REPUL>
0

>  <SCORE.INTRA.REPUL.0>
0

>  <SCORE.INTRA.SOLV>
0.663283

>  <SCORE.INTRA.SOLV.lig_0>
-66.3641

>  <SCORE.INTRA.VDW>
-1.9287

>  <SCORE.INTRA.VDW.0>
0.452231

>  <SCORE.INTRA.norm>
-0.100411

>  <SCORE.RESTR>
0

>  <SCORE.RESTR.CAVITY>
0

>  <SCORE.RESTR.norm>
0

>  <SCORE.SYSTEM>
0

>  <SCORE.SYSTEM.CONST>
0

>  <SCORE.SYSTEM.DIHEDRAL>
0

>  <SCORE.SYSTEM.SOLV>
0

>  <SCORE.SYSTEM.norm>
0

>  <SCORE.heavy>
23

>  <SCORE.norm>
-0.832086

>  <RMSD>
1.492

$$$$
ligand
 OpenBabel02271912143D
libRbt.so/2013.1/901 2013/11/27
 23 25  0  0  0  0  0  0  0  0999 V2000
   24.8642   -0.0534   28.2747 P   0  0  1  0  0  0  0  0  0  0  0  0
   23.2101    1.9438   28.6361 C   0  0  0  0  0  0  0  0  0  0  0  0
   24.2395    1.3657   27.8455 O   0  0  0  0  0  0  0  0  0  0  0  0
   22.7508    3.1993   27.9297 C   0  0  1  0  0  0  0  0  0  0  0  0
   21.9707    2.9084   26.7706 O   0  0  0  0  0  0  0  0  0  0  0  0
   21.8900    4.0178   28.8772 C   0  0  1  0  0  0  0  0  0  0  0  0
   22.3378    5.3833   28.8222 O   0  0  0  0  0  0  0  0  0  0  0  0
   20.4647    3.8597   28.3624 C   0  0  0  0  0  0  0  0  0  0  0  0
   20.6360    3.4119   26.9133 C   0  0  2  0  0  0  0  0  0  0  0  0
   17.4449    1.2743   23.4812 N   0  0  0  0  0  0  0  0  0  0  0  0
   18.1168    2.4324   23.3764 C   0  0  2  0  0  0  0  0  0  0  0  0
   17.9687    3.1478   22.2372 N   0  0  0  0  0  0  0  0  0  0  0  0
   18.9240    2.8645   24.3752 N   0  0  0  0  0  0  0  0  0  0  0  0
   19.0556    2.1233   25.4945 C   0  0  2  0  0  0  0  0  0  0  0  0
   18.3714    0.9336   25.6184 C   0  0  1  0  0  0  0  0  0  0  0  0
   17.5604    0.5104   24.5826 C   0  0  0  0  0  0  0  0  0  0  0  0
   16.9363   -0.5689   24.6726 O   0  0  0  0  0  0  0  0  0  0  0  0
   18.6697    0.4028   26.8208 N   0  0  0  0  0  0  0  0  0  0  0  0
   19.5271    1.2425   27.4274 C   0  0  0  0  0  0  0  0  0  0  0  0
   19.7445    2.2852   26.6186 N   0  0  1  0  0  0  0  0  0  0  0  0
   23.9288   -1.1208   27.7609 O   0  0  0  0  0  0  0  0  0  0  0  0
   26.2312   -0.0594   27.6301 O   0  5  0  0  0  0  0  0  0  0  0  0
   24.9002    0.0415   29.7760 O   0  0  0  0  0  0  0  0  0  0  0  0
  1  3  1  6  0  0  0
  1 21  1  0  0  0  0
  1 22  1  0  0  0  0
  1 23  2  0  0  0  0
  2  3  1  0  0  0  0
  4  2  1  1  0  0  0
  4  5  1  0  0  0  0
  4  6  1  0  0  0  0
  6  7  1  6  0  0  0
  6  8  1  0  0  0  0
  8  9  1  0  0  0  0
  9  5  1  1  0  0  0
  9 20  1  0  0  0  0
 10 11  1  0  0  0  0
 10 16  1  0  0  0  0
 11 12  1  6  0  0  0
 11 13  1  0  0  0  0
 14 13  1  1  0  0  0
 14 15  1  0  0  0  0
 14 20  1  0  0  0  0
 15 16  1  6  0  0  0
 15 18  1  0  0  0  0
 16 17  2  0  0  0  0
 18 19  1  0  0  0  0
 20 19  1  6  0  0  0
M  CHG  1  22  -1
M  END
>  <CHROM.1>
82.01917766,73.51530746,-175.38413145,-104.47922161,21.20405621,1.68156557
26.77271440,-0.06612376,0.56561317,-2.83624181

>  <Name>
ligand

>  <RI>
416

>  <Rbt.Current_Directory>
/home/itssahil/PROJECTS/Mol_Feturizer/Test_systems_manuscript/rnas/3slm

>  <Rbt.Executable>
rbdock ($Id: //depot/dev/client3/rdock/2013.1/src/exe/rbdock.cxx#4 $)

>  <Rbt.Library>
libRbt.so (2013.1, Build901 2013/11/27)

>  <Rbt.Parameter_File>
/export/apps/rDock/src/rDock_2013.1_src/data/scripts/dock_solv.prm

>  <Rbt.Receptor>
prm/pocket_docking_5.prm

>  <SCORE>
-22.9493

>  <SCORE.INTER>
-18.486

>  <SCORE.INTER.CONST>
1

>  <SCORE.INTER.POLAR>
0

>  <SCORE.INTER.ROT>
4

>  <SCORE.INTER.SOLV>
24.7045

>  <SCORE.INTER.VDW>
-26.8255

>  <SCORE.INTER.norm>
-0.80374

>  <SCORE.INTRA>
-4.46328

>  <SCORE.INTRA.DIHEDRAL>
-5.98167

>  <SCORE.INTRA.DIHEDRAL.0>
8.62657

>  <SCORE.INTRA.POLAR>
0

>  <SCORE.INTRA.POLAR.0>
0

>  <SCORE.INTRA.REPUL>
0

>  <SCORE.INTRA.REPUL.0>
0

>  <SCORE.INTRA.SOLV>
-0.523929

>  <SCORE.INTRA.SOLV.lig_0>
-66.3641

>  <SCORE.INTRA.VDW>
-1.21048

>  <SCORE.INTRA.VDW.0>
0.452231

>  <SCORE.INTRA.norm>
-0.194056

>  <SCORE.RESTR>
0

>  <SCORE.RESTR.CAVITY>
0

>  <SCORE.RESTR.norm>
0

>  <SCORE.SYSTEM>
0

>  <SCORE.SYSTEM.CONST>
0

>  <SCORE.SYSTEM.DIHEDRAL>
0

>  <SCORE.SYSTEM.SOLV>
0

>  <SCORE.SYSTEM.norm>
0

>  <SCORE.heavy>
23

>  <SCORE.norm>
-0.997796

>  <RMSD>
1.493

$$$$
ligand
 OpenBabel02271912143D
libRbt.so/2013.1/901 2013/11/27
 23 25  0  0  0  0  0  0  0  0999 V2000
   22.7080    1.0221   31.9909 P   0  0  1  0  0  0  0  0  0  0  0  0
   21.4595    2.7466   30.4670 C   0  0  0  0  0  0  0  0  0  0  0  0
   22.5413    1.8373   30.6140 O   0  0  0  0  0  0  0  0  0  0  0  0
   21.7494    3.5991   29.2522 C   0  0  1  0  0  0  0  0  0  0  0  0
   21.6024    2.8677   28.0355 O   0  0  0  0  0  0  0  0  0  0  0  0
   20.7743    4.7638   29.2162 C   0  0  1  0  0  0  0  0  0  0  0  0
   21.5222    5.9661   28.9645 O   0  0  0  0  0  0  0  0  0  0  0  0
   19.8064    4.4420   28.0846 C   0  0  0  0  0  0  0  0  0  0  0  0
   20.5526    3.4204   27.2307 C   0  0  2  0  0  0  0  0  0  0  0  0
   17.5711    1.2768   23.6185 N   0  0  0  0  0  0  0  0  0  0  0  0
   18.2601    2.4273   23.5465 C   0  0  2  0  0  0  0  0  0  0  0  0
   18.1939    3.1321   22.3930 N   0  0  0  0  0  0  0  0  0  0  0  0
   19.0046    2.8624   24.5915 N   0  0  0  0  0  0  0  0  0  0  0  0
   19.0554    2.1319   25.7244 C   0  0  2  0  0  0  0  0  0  0  0  0
   18.3525    0.9499   25.8151 C   0  0  1  0  0  0  0  0  0  0  0  0
   17.6067    0.5235   24.7327 C   0  0  0  0  0  0  0  0  0  0  0  0
   16.9673   -0.5489   24.7924 O   0  0  0  0  0  0  0  0  0  0  0  0
   18.5663    0.4291   27.0396 N   0  0  0  0  0  0  0  0  0  0  0  0
   19.3908    1.2670   27.6926 C   0  0  0  0  0  0  0  0  0  0  0  0
   19.6710    2.2991   26.8894 N   0  0  1  0  0  0  0  0  0  0  0  0
   21.4166    0.2755   32.2208 O   0  0  0  0  0  0  0  0  0  0  0  0
   23.9064    0.1345   31.7458 O   0  5  0  0  0  0  0  0  0  0  0  0
   22.9563    2.1155   32.9946 O   0  0  0  0  0  0  0  0  0  0  0  0
  1  3  1  6  0  0  0
  1 21  1  0  0  0  0
  1 22  1  0  0  0  0
  1 23  2  0  0  0  0
  2  3  1  0  0  0  0
  4  2  1  1  0  0  0
  4  5  1  0  0  0  0
  4  6  1  0  0  0  0
  6  7  1  6  0  0  0
  6  8  1  0  0  0  0
  8  9  1  0  0  0  0
  9  5  1  1  0  0  0
  9 20  1  0  0  0  0
 10 11  1  0  0  0  0
 10 16  1  0  0  0  0
 11 12  1  6  0  0  0
 11 13  1  0  0  0  0
 14 13  1  1  0  0  0
 14 15  1  0  0  0  0
 14 20  1  0  0  0  0
 15 16  1  6  0  0  0
 15 18  1  0  0  0  0
 16 17  2  0  0  0  0
 18 19  1  0  0  0  0
 20 19  1  6  0  0  0
M  CHG  1  22  -1
M  END
>  <CHROM.1>
56.23344785,71.98971293,166.09858261,-142.70200422,20.38286486,2.10480935
28.08449826,0.33830195,0.97935188,2.73799083

>  <Name>
ligand

>  <RI>
0

>  <Rbt.Current_Directory>
/home/itssahil/PROJECTS/Mol_Feturizer/Test_systems_manuscript/rnas/3slm

>  <Rbt.Executable>
rbdock ($Id: //depot/dev/client3/rdock/2013.1/src/exe/rbdock.cxx#4 $)

>  <Rbt.Library>
libRbt.so (2013.1, Build901 2013/11/27)

>  <Rbt.Parameter_File>
/export/apps/rDock/src/rDock_2013.1_src/data/scripts/dock_solv.prm

>  <Rbt.Receptor>
prm/blind_docking_60.prm

>  <SCORE>
-21.5278

>  <SCORE.INTER>
-16.334

>  <SCORE.INTER.CONST>
1

>  <SCORE.INTER.POLAR>
0

>  <SCORE.INTER.ROT>
4

>  <SCORE.INTER.SOLV>
27.7889

>  <SCORE.INTER.VDW>
-26.4189

>  <SCORE.INTER.norm>
-0.710172

>  <SCORE.INTRA>
-5.19381

>  <SCORE.INTRA.DIHEDRAL>
-5.93506

>  <SCORE.INTRA.DIHEDRAL.0>
8.62657

>  <SCORE.INTRA.POLAR>
0

>  <SCORE.INTRA.POLAR.0>
0

>  <SCORE.INTRA.REPUL>
0

>  <SCORE.INTRA.REPUL.0>
0

>  <SCORE.INTRA.SOLV>
-0.702279

>  <SCORE.INTRA.SOLV.lig_0>
-66.3641

>  <SCORE.INTRA.VDW>
-1.87514

>  <SCORE.INTRA.VDW.0>
0.452231

>  <SCORE.INTRA.norm>
-0.225818

>  <SCORE.RESTR>
0

>  <SCORE.RESTR.CAVITY>
0

>  <SCORE.RESTR.norm>
0

>  <SCORE.SYSTEM>
0

>  <SCORE.SYSTEM.CONST>
0

>  <SCORE.SYSTEM.DIHEDRAL>
0

>  <SCORE.SYSTEM.SOLV>
0

>  <SCORE.SYSTEM.norm>
0

>  <SCORE.heavy>
23

>  <SCORE.norm>
-0.93599

>  <RMSD>
1.501

$$$$
ligand
 OpenBabel02271912143D
libRbt.so/2013.1/901 2013/11/27
 23 25  0  0  0  0  0  0  0  0999 V2000
   22.7010    1.0096   32.0087 P   0  0  1  0  0  0  0  0  0  0  0  0
   21.4855    2.7622   30.4900 C   0  0  0  0  0  0  0  0  0  0  0  0
   22.5531    1.8361   30.6364 O   0  0  0  0  0  0  0  0  0  0  0  0
   21.7807    3.6003   29.2665 C   0  0  1  0  0  0  0  0  0  0  0  0
   21.6410    2.8540   28.0580 O   0  0  0  0  0  0  0  0  0  0  0  0
   20.8043    4.7631   29.2114 C   0  0  1  0  0  0  0  0  0  0  0  0
   21.5519    5.9633   28.9490 O   0  0  0  0  0  0  0  0  0  0  0  0
   19.8426    4.4263   28.0787 C   0  0  0  0  0  0  0  0  0  0  0  0
   20.5946    3.3954   27.2412 C   0  0  2  0  0  0  0  0  0  0  0  0
   17.5731    1.2443   23.6670 N   0  0  0  0  0  0  0  0  0  0  0  0
   18.2522    2.4003   23.5891 C   0  0  2  0  0  0  0  0  0  0  0  0
   18.1625    3.1094   22.4398 N   0  0  0  0  0  0  0  0  0  0  0  0
   19.0097    2.8367   24.6242 N   0  0  0  0  0  0  0  0  0  0  0  0
   19.0838    2.1019   25.7530 C   0  0  2  0  0  0  0  0  0  0  0  0
   18.3914    0.9142   25.8496 C   0  0  1  0  0  0  0  0  0  0  0  0
   17.6319    0.4866   24.7772 C   0  0  0  0  0  0  0  0  0  0  0  0
   17.0016   -0.5908   24.8423 O   0  0  0  0  0  0  0  0  0  0  0  0
   18.6283    0.3899   27.0683 N   0  0  0  0  0  0  0  0  0  0  0  0
   19.4565    1.2314   27.7120 C   0  0  0  0  0  0  0  0  0  0  0  0
   19.7163    2.2689   26.9090 N   0  0  1  0  0  0  0  0  0  0  0  0
   21.4097    0.2546   32.2104 O   0  0  0  0  0  0  0  0  0  0  0  0
   23.9078    0.1301   31.7759 O   0  5  0  0  0  0  0  0  0  0  0  0
   22.9269    2.0953   33.0259 O   0  0  0  0  0  0  0  0  0  0  0  0
  1  3  1  6  0  0  0
  1 21  1  0  0  0  0
  1 22  1  0  0  0  0
  1 23  2  0  0  0  0
  2  3  1  0  0  0  0
  4  2  1  1  0  0  0
  4  5  1  0  0  0  0
  4  6  1  0  0  0  0
  6  7  1  6  0  0  0
  6  8  1  0  0  0  0
  8  9  1  0  0  0  0
  9  5  1  1  0  0  0
  9 20  1  0  0  0  0
 10 11  1  0  0  0  0
 10 16  1  0  0  0  0
 11 12  1  6  0  0  0
 11 13  1  0  0  0  0
 14 13  1  1  0  0  0
 14 15  1  0  0  0  0
 14 20  1  0  0  0  0
 15 16  1  6  0  0  0
 15 18  1  0  0  0  0
 16 17  2  0  0  0  0
 18 19  1  0  0  0  0
 20 19  1  6  0  0  0
M  CHG  1  22  -1
M  END
>  <CHROM.1>
57.55379308,70.71177979,167.18630254,-144.26224644,20.40118918,2.08576470
28.10696544,0.34108430,0.97864441,2.73188026

>  <Name>
ligand

>  <RI>
0

>  <Rbt.Current_Directory>
/home/itssahil/PROJECTS/Mol_Feturizer/Test_systems_manuscript/rnas/3slm

>  <Rbt.Executable>
rbdock ($Id: //depot/dev/client3/rdock/2013.1/src/exe/rbdock.cxx#4 $)

>  <Rbt.Library>
libRbt.so (2013.1, Build901 2013/11/27)

>  <Rbt.Parameter_File>
/export/apps/rDock/src/rDock_2013.1_src/data/scripts/dock_solv.prm

>  <Rbt.Receptor>
prm/pocket_docking_3.prm

>  <SCORE>
-21.5329

>  <SCORE.INTER>
-16.2385

>  <SCORE.INTER.CONST>
1

>  <SCORE.INTER.POLAR>
0

>  <SCORE.INTER.ROT>
4

>  <SCORE.INTER.SOLV>
27.7695

>  <SCORE.INTER.VDW>
-26.3488

>  <SCORE.INTER.norm>
-0.706022

>  <SCORE.INTRA>
-5.29444

>  <SCORE.INTRA.DIHEDRAL>
-6.17587

>  <SCORE.INTRA.DIHEDRAL.0>
8.62657

>  <SCORE.INTRA.POLAR>
0

>  <SCORE.INTRA.POLAR.0>
0

>  <SCORE.INTRA.REPUL>
0

>  <SCORE.INTRA.REPUL.0>
0

>  <SCORE.INTRA.SOLV>
-0.690845

>  <SCORE.INTRA.SOLV.lig_0>
-66.3641

>  <SCORE.INTRA.VDW>
-1.86108

>  <SCORE.INTRA.VDW.0>
0.452231

>  <SCORE.INTRA.norm>
-0.230193

>  <SCORE.RESTR>
0

>  <SCORE.RESTR.CAVITY>
0

>  <SCORE.RESTR.norm>
0

>  <SCORE.SYSTEM>
0

>  <SCORE.SYSTEM.CONST>
0

>  <SCORE.SYSTEM.DIHEDRAL>
0

>  <SCORE.SYSTEM.SOLV>
0

>  <SCORE.SYSTEM.norm>
0

>  <SCORE.heavy>
23

>  <SCORE.norm>
-0.936215

>  <RMSD>
1.503

$$$$
ligand
 OpenBabel02271912143D
libRbt.so/2013.1/901 2013/11/27
 23 25  0  0  0  0  0  0  0  0999 V2000
   25.3445   -0.3001   28.6799 P   0  0  1  0  0  0  0  0  0  0  0  0
   23.5878    1.0997   27.3346 C   0  0  0  0  0  0  0  0  0  0  0  0
   24.5923    1.0806   28.3393 O   0  0  0  0  0  0  0  0  0  0  0  0
   22.9804    2.4844   27.3310 C   0  0  1  0  0  0  0  0  0  0  0  0
   21.8652    2.5792   26.4454 O   0  0  0  0  0  0  0  0  0  0  0  0
   22.4934    2.8189   28.7308 C   0  0  1  0  0  0  0  0  0  0  0  0
   22.9554    4.1399   29.0617 O   0  0  0  0  0  0  0  0  0  0  0  0
   20.9736    2.7440   28.6556 C   0  0  0  0  0  0  0  0  0  0  0  0
   20.6637    2.8805   27.1672 C   0  0  2  0  0  0  0  0  0  0  0  0
   17.4623    1.3023   23.4535 N   0  0  0  0  0  0  0  0  0  0  0  0
   18.2517    2.3888   23.4584 C   0  0  2  0  0  0  0  0  0  0  0  0
   18.2372    3.1851   22.3642 N   0  0  0  0  0  0  0  0  0  0  0  0
   19.0436    2.6722   24.5207 N   0  0  0  0  0  0  0  0  0  0  0  0
   19.0402    1.8532   25.5926 C   0  0  2  0  0  0  0  0  0  0  0  0
   18.2343    0.7354   25.6041 C   0  0  1  0  0  0  0  0  0  0  0  0
   17.4415    0.4636   24.5053 C   0  0  0  0  0  0  0  0  0  0  0  0
   16.7084   -0.5487   24.4932 O   0  0  0  0  0  0  0  0  0  0  0  0
   18.4132    0.1029   26.7806 N   0  0  0  0  0  0  0  0  0  0  0  0
   19.3169    0.8099   27.4818 C   0  0  0  0  0  0  0  0  0  0  0  0
   19.6808    1.8728   26.7560 N   0  0  1  0  0  0  0  0  0  0  0  0
   25.3732   -0.4276   30.1836 O   0  0  0  0  0  0  0  0  0  0  0  0
   24.5123   -1.3503   27.9808 O   0  5  0  0  0  0  0  0  0  0  0  0
   26.7042   -0.0956   28.0686 O   0  0  0  0  0  0  0  0  0  0  0  0
  1  3  1  6  0  0  0
  1 21  1  0  0  0  0
  1 22  1  0  0  0  0
  1 23  2  0  0  0  0
  2  3  1  0  0  0  0
  4  2  1  1  0  0  0
  4  5  1  0  0  0  0
  4  6  1  0  0  0  0
  6  7  1  6  0  0  0
  6  8  1  0  0  0  0
  8  9  1  0  0  0  0
  9  5  1  6  0  0  0
  9 20  1  0  0  0  0
 10 11  1  0  0  0  0
 10 16  1  0  0  0  0
 11 12  1  6  0  0  0
 11 13  1  0  0  0  0
 14 13  1  1  0  0  0
 14 15  1  0  0  0  0
 14 20  1  0  0  0  0
 15 16  1  6  0  0  0
 15 18  1  0  0  0  0
 16 17  2  0  0  0  0
 18 19  1  0  0  0  0
 20 19  1  6  0  0  0
M  CHG  1  22  -1
M  END
>  <CHROM.1>
-133.69778784,-174.23432926,174.78526730,-75.23203417,21.41045245,1.29416486
26.82925805,0.05280823,0.55625738,-2.99942102

>  <Name>
ligand

>  <RI>
416

>  <Rbt.Current_Directory>
/home/itssahil/PROJECTS/Mol_Feturizer/Test_systems_manuscript/rnas/3slm

>  <Rbt.Executable>
rbdock ($Id: //depot/dev/client3/rdock/2013.1/src/exe/rbdock.cxx#4 $)

>  <Rbt.Library>
libRbt.so (2013.1, Build901 2013/11/27)

>  <Rbt.Parameter_File>
/export/apps/rDock/src/rDock_2013.1_src/data/scripts/dock_solv.prm

>  <Rbt.Receptor>
prm/pocket_docking_4.prm

>  <SCORE>
-18.7744

>  <SCORE.INTER>
-16.4827

>  <SCORE.INTER.CONST>
1

>  <SCORE.INTER.POLAR>
0

>  <SCORE.INTER.ROT>
4

>  <SCORE.INTER.SOLV>
26.9191

>  <SCORE.INTER.VDW>
-26.2282

>  <SCORE.INTER.norm>
-0.71664

>  <SCORE.INTRA>
-2.29172

>  <SCORE.INTRA.DIHEDRAL>
-5.09037

>  <SCORE.INTRA.DIHEDRAL.0>
8.62657

>  <SCORE.INTRA.POLAR>
0

>  <SCORE.INTRA.POLAR.0>
0

>  <SCORE.INTRA.REPUL>
0

>  <SCORE.INTRA.REPUL.0>
0

>  <SCORE.INTRA.SOLV>
0.0635595

>  <SCORE.INTRA.SOLV.lig_0>
-66.3641

>  <SCORE.INTRA.VDW>
0.221685

>  <SCORE.INTRA.VDW.0>
0.452231

>  <SCORE.INTRA.norm>
-0.09964

>  <SCORE.RESTR>
0

>  <SCORE.RESTR.CAVITY>
0

>  <SCORE.RESTR.norm>
0

>  <SCORE.SYSTEM>
0

>  <SCORE.SYSTEM.CONST>
0

>  <SCORE.SYSTEM.DIHEDRAL>
0

>  <SCORE.SYSTEM.SOLV>
0

>  <SCORE.SYSTEM.norm>
0

>  <SCORE.heavy>
23

>  <SCORE.norm>
-0.81628

>  <RMSD>
1.505

$$$$
ligand
 OpenBabel02271912143D
libRbt.so/2013.1/901 2013/11/27
 23 25  0  0  0  0  0  0  0  0999 V2000
   23.2170    2.0154   31.9912 P   0  0  1  0  0  0  0  0  0  0  0  0
   22.7436    2.3306   29.4355 C   0  0  0  0  0  0  0  0  0  0  0  0
   23.1862    2.9105   30.6548 O   0  0  0  0  0  0  0  0  0  0  0  0
   22.5846    3.4528   28.4345 C   0  0  1  0  0  0  0  0  0  0  0  0
   22.0482    2.9938   27.1941 O   0  0  0  0  0  0  0  0  0  0  0  0
   21.6308    4.4924   28.9983 C   0  0  1  0  0  0  0  0  0  0  0  0
   22.2225    5.7899   28.8129 O   0  0  0  0  0  0  0  0  0  0  0  0
   20.3427    4.3294   28.2013 C   0  0  0  0  0  0  0  0  0  0  0  0
   20.7756    3.5998   26.9324 C   0  0  2  0  0  0  0  0  0  0  0  0
   17.7558    1.3836   23.3966 N   0  0  0  0  0  0  0  0  0  0  0  0
   18.4905    2.5012   23.2736 C   0  0  2  0  0  0  0  0  0  0  0  0
   18.4660    3.1455   22.0837 N   0  0  0  0  0  0  0  0  0  0  0  0
   19.2388    2.9622   24.3047 N   0  0  0  0  0  0  0  0  0  0  0  0
   19.2471    2.2917   25.4752 C   0  0  2  0  0  0  0  0  0  0  0  0
   18.4972    1.1444   25.6182 C   0  0  1  0  0  0  0  0  0  0  0  0
   17.7483    0.6900   24.5493 C   0  0  0  0  0  0  0  0  0  0  0  0
   17.0664   -0.3521   24.6565 O   0  0  0  0  0  0  0  0  0  0  0  0
   18.6755    0.6817   26.8714 N   0  0  0  0  0  0  0  0  0  0  0  0
   19.5243    1.5207   27.4908 C   0  0  0  0  0  0  0  0  0  0  0  0
   19.8547    2.4969   26.6384 N   0  0  1  0  0  0  0  0  0  0  0  0
   21.8548    1.3798   32.1281 O   0  0  0  0  0  0  0  0  0  0  0  0
   24.3409    1.0349   31.7470 O   0  5  0  0  0  0  0  0  0  0  0  0
   23.5167    3.0295   33.0617 O   0  0  0  0  0  0  0  0  0  0  0  0
  1  3  1  6  0  0  0
  1 21  1  0  0  0  0
  1 22  1  0  0  0  0
  1 23  2  0  0  0  0
  2  3  1  0  0  0  0
  4  2  1  1  0  0  0
  4  5  1  0  0  0  0
  4  6  1  0  0  0  0
  6  7  1  6  0  0  0
  6  8  1  0  0  0  0
  8  9  1  0  0  0  0
  9  5  1  1  0  0  0
  9 20  1  0  0  0  0
 10 11  1  0  0  0  0
 10 16  1  0  0  0  0
 11 12  1  6  0  0  0
 11 13  1  0  0  0  0
 14 13  1  1  0  0  0
 14 15  1  0  0  0  0
 14 20  1  0  0  0  0
 15 16  1  6  0  0  0
 15 18  1  0  0  0  0
 16 17  2  0  0  0  0
 18 19  1  0  0  0  0
 20 19  1  6  0  0  0
M  CHG  1  22  -1
M  END
>  <CHROM.1>
-51.45743240,-175.75268190,169.90074575,-115.77766768,20.80408195,2.41654507
27.85350454,0.48073937,0.89653881,2.44556336

>  <Name>
ligand

>  <RI>
416

>  <Rbt.Current_Directory>
/home/itssahil/PROJECTS/Mol_Feturizer/Test_systems_manuscript/rnas/3slm

>  <Rbt.Executable>
rbdock ($Id: //depot/dev/client3/rdock/2013.1/src/exe/rbdock.cxx#4 $)

>  <Rbt.Library>
libRbt.so (2013.1, Build901 2013/11/27)

>  <Rbt.Parameter_File>
/export/apps/rDock/src/rDock_2013.1_src/data/scripts/dock_solv.prm

>  <Rbt.Receptor>
prm/pocket_docking_6.prm

>  <SCORE>
-22.5232

>  <SCORE.INTER>
-17.3508

>  <SCORE.INTER.CONST>
1

>  <SCORE.INTER.POLAR>
0

>  <SCORE.INTER.ROT>
4

>  <SCORE.INTER.SOLV>
32.1979

>  <SCORE.INTER.VDW>
-28.5665

>  <SCORE.INTER.norm>
-0.754383

>  <SCORE.INTRA>
-5.17651

>  <SCORE.INTRA.DIHEDRAL>
-6.74487

>  <SCORE.INTRA.DIHEDRAL.0>
8.62657

>  <SCORE.INTRA.POLAR>
0

>  <SCORE.INTRA.POLAR.0>
0

>  <SCORE.INTRA.REPUL>
0

>  <SCORE.INTRA.REPUL.0>
0

>  <SCORE.INTRA.SOLV>
-0.565839

>  <SCORE.INTRA.SOLV.lig_0>
-66.3641

>  <SCORE.INTRA.VDW>
-1.52116

>  <SCORE.INTRA.VDW.0>
0.452231

>  <SCORE.INTRA.norm>
-0.225066

>  <SCORE.RESTR>
0.00412644

>  <SCORE.RESTR.CAVITY>
0.00412644

>  <SCORE.RESTR.norm>
0.00017941

>  <SCORE.SYSTEM>
0

>  <SCORE.SYSTEM.CONST>
0

>  <SCORE.SYSTEM.DIHEDRAL>
0

>  <SCORE.SYSTEM.SOLV>
0

>  <SCORE.SYSTEM.norm>
0

>  <SCORE.heavy>
23

>  <SCORE.norm>
-0.979269

>  <RMSD>
1.506

$$$$
ligand
 OpenBabel02271912143D
libRbt.so/2013.1/901 2013/11/27
 23 25  0  0  0  0  0  0  0  0999 V2000
   25.0294    0.2102   28.1764 P   0  0  1  0  0  0  0  0  0  0  0  0
   23.2217    2.0618   28.5751 C   0  0  0  0  0  0  0  0  0  0  0  0
   24.3063    1.5933   27.7859 O   0  0  0  0  0  0  0  0  0  0  0  0
   22.7128    3.3325   27.9325 C   0  0  1  0  0  0  0  0  0  0  0  0
   21.9359    3.0697   26.7645 O   0  0  0  0  0  0  0  0  0  0  0  0
   21.8296    4.0728   28.9226 C   0  0  1  0  0  0  0  0  0  0  0  0
   22.2278    5.4546   28.9315 O   0  0  0  0  0  0  0  0  0  0  0  0
   20.4076    3.8882   28.4080 C   0  0  0  0  0  0  0  0  0  0  0  0
   20.5850    3.5171   26.9381 C   0  0  2  0  0  0  0  0  0  0  0  0
   17.5032    1.4017   23.3941 N   0  0  0  0  0  0  0  0  0  0  0  0
   18.1400    2.5828   23.3375 C   0  0  2  0  0  0  0  0  0  0  0  0
   17.9834    3.3320   22.2213 N   0  0  0  0  0  0  0  0  0  0  0  0
   18.9214    3.0049   24.3607 N   0  0  0  0  0  0  0  0  0  0  0  0
   19.0626    2.2302   25.4559 C   0  0  2  0  0  0  0  0  0  0  0  0
   18.4141    1.0164   25.5305 C   0  0  1  0  0  0  0  0  0  0  0  0
   17.6292    0.6044   24.4704 C   0  0  0  0  0  0  0  0  0  0  0  0
   17.0379   -0.4960   24.5156 O   0  0  0  0  0  0  0  0  0  0  0  0
   18.7143    0.4541   26.7179 N   0  0  0  0  0  0  0  0  0  0  0  0
   19.5380    1.2984   27.3638 C   0  0  0  0  0  0  0  0  0  0  0  0
   19.7326    2.3744   26.5937 N   0  0  1  0  0  0  0  0  0  0  0  0
   26.3520    0.1832   27.4497 O   0  0  0  0  0  0  0  0  0  0  0  0
   25.1462    0.2727   29.6820 O   0  5  0  0  0  0  0  0  0  0  0  0
   24.0529   -0.8238   27.6848 O   0  0  0  0  0  0  0  0  0  0  0  0
  1  3  1  6  0  0  0
  1 21  1  0  0  0  0
  1 22  1  0  0  0  0
  1 23  2  0  0  0  0
  2  3  1  0  0  0  0
  4  2  1  1  0  0  0
  4  5  1  0  0  0  0
  4  6  1  0  0  0  0
  6  7  1  6  0  0  0
  6  8  1  0  0  0  0
  8  9  1  0  0  0  0
  9  5  1  1  0  0  0
  9 20  1  0  0  0  0
 10 11  1  0  0  0  0
 10 16  1  0  0  0  0
 11 12  1  6  0  0  0
 11 13  1  0  0  0  0
 14 13  1  1  0  0  0
 14 15  1  0  0  0  0
 14 20  1  0  0  0  0
 15 16  1  6  0  0  0
 15 18  1  0  0  0  0
 16 17  2  0  0  0  0
 18 19  1  0  0  0  0
 20 19  1  6  0  0  0
M  CHG  1  22  -1
M  END
>  <CHROM.1>
-163.52568022,76.14714317,-177.37536942,-103.11939707,21.24532206,1.82586202
26.72196446,-0.11871361,0.54904407,-2.75798731

>  <Name>
ligand

>  <RI>
416

>  <Rbt.Current_Directory>
/home/itssahil/PROJECTS/Mol_Feturizer/Test_systems_manuscript/rnas/3slm

>  <Rbt.Executable>
rbdock ($Id: //depot/dev/client3/rdock/2013.1/src/exe/rbdock.cxx#4 $)

>  <Rbt.Library>
libRbt.so (2013.1, Build901 2013/11/27)

>  <Rbt.Parameter_File>
/export/apps/rDock/src/rDock_2013.1_src/data/scripts/dock_solv.prm

>  <Rbt.Receptor>
prm/pocket_docking_5.prm

>  <SCORE>
-22.092

>  <SCORE.INTER>
-17.6352

>  <SCORE.INTER.CONST>
1

>  <SCORE.INTER.POLAR>
0

>  <SCORE.INTER.ROT>
4

>  <SCORE.INTER.SOLV>
27.0816

>  <SCORE.INTER.VDW>
-27.0507

>  <SCORE.INTER.norm>
-0.766749

>  <SCORE.INTRA>
-4.4568

>  <SCORE.INTRA.DIHEDRAL>
-6.0987

>  <SCORE.INTRA.DIHEDRAL.0>
8.62657

>  <SCORE.INTRA.POLAR>
0

>  <SCORE.INTRA.POLAR.0>
0

>  <SCORE.INTRA.REPUL>
0

>  <SCORE.INTRA.REPUL.0>
0

>  <SCORE.INTRA.SOLV>
-0.0917717

>  <SCORE.INTRA.SOLV.lig_0>
-66.3641

>  <SCORE.INTRA.VDW>
-1.36157

>  <SCORE.INTRA.VDW.0>
0.452231

>  <SCORE.INTRA.norm>
-0.193774

>  <SCORE.RESTR>
0

>  <SCORE.RESTR.CAVITY>
0

>  <SCORE.RESTR.norm>
0

>  <SCORE.SYSTEM>
0

>  <SCORE.SYSTEM.CONST>
0

>  <SCORE.SYSTEM.DIHEDRAL>
0

>  <SCORE.SYSTEM.SOLV>
0

>  <SCORE.SYSTEM.norm>
0

>  <SCORE.heavy>
23

>  <SCORE.norm>
-0.960523

>  <RMSD>
1.516

$$$$
ligand
 OpenBabel02271912143D
libRbt.so/2013.1/901 2013/11/27
 23 25  0  0  0  0  0  0  0  0999 V2000
   23.1813    2.0201   31.9966 P   0  0  1  0  0  0  0  0  0  0  0  0
   22.7188    2.3347   29.4387 C   0  0  0  0  0  0  0  0  0  0  0  0
   23.1643    2.9124   30.6580 O   0  0  0  0  0  0  0  0  0  0  0  0
   22.5823    3.4552   28.4326 C   0  0  1  0  0  0  0  0  0  0  0  0
   22.0594    2.9969   27.1862 O   0  0  0  0  0  0  0  0  0  0  0  0
   21.6289    4.5037   28.9804 C   0  0  1  0  0  0  0  0  0  0  0  0
   22.2331    5.7961   28.7997 O   0  0  0  0  0  0  0  0  0  0  0  0
   20.3506    4.3484   28.1662 C   0  0  0  0  0  0  0  0  0  0  0  0
   20.7952    3.6119   26.9053 C   0  0  2  0  0  0  0  0  0  0  0  0
   17.6995    1.4877   23.3788 N   0  0  0  0  0  0  0  0  0  0  0  0
   18.4289    2.6101   23.2705 C   0  0  2  0  0  0  0  0  0  0  0  0
   18.3760    3.2873   22.0999 N   0  0  0  0  0  0  0  0  0  0  0  0
   19.1999    3.0441   24.2967 N   0  0  0  0  0  0  0  0  0  0  0  0
   19.2363    2.3412   25.4474 C   0  0  2  0  0  0  0  0  0  0  0  0
   18.4920    1.1884   25.5754 C   0  0  1  0  0  0  0  0  0  0  0  0
   17.7197    0.7621   24.5116 C   0  0  0  0  0  0  0  0  0  0  0  0
   17.0424   -0.2843   24.6051 O   0  0  0  0  0  0  0  0  0  0  0  0
   18.6999    0.6913   26.8107 N   0  0  0  0  0  0  0  0  0  0  0  0
   19.5611    1.5148   27.4338 C   0  0  0  0  0  0  0  0  0  0  0  0
   19.8699    2.5153   26.6017 N   0  0  1  0  0  0  0  0  0  0  0  0
   21.8129    1.3972   32.1290 O   0  0  0  0  0  0  0  0  0  0  0  0
   24.2973    1.0290   31.7594 O   0  5  0  0  0  0  0  0  0  0  0  0
   23.4856    3.0340   33.0661 O   0  0  0  0  0  0  0  0  0  0  0  0
  1  3  1  6  0  0  0
  1 21  1  0  0  0  0
  1 22  1  0  0  0  0
  1 23  2  0  0  0  0
  2  3  1  0  0  0  0
  4  2  1  1  0  0  0
  4  5  1  0  0  0  0
  4  6  1  0  0  0  0
  6  7  1  6  0  0  0
  6  8  1  0  0  0  0
  8  9  1  0  0  0  0
  9  5  1  1  0  0  0
  9 20  1  0  0  0  0
 10 11  1  0  0  0  0
 10 16  1  0  0  0  0
 11 12  1  6  0  0  0
 11 13  1  0  0  0  0
 14 13  1  1  0  0  0
 14 15  1  0  0  0  0
 14 20  1  0  0  0  0
 15 16  1  6  0  0  0
 15 18  1  0  0  0  0
 16 17  2  0  0  0  0
 18 19  1  0  0  0  0
 20 19  1  6  0  0  0
M  CHG  1  22  -1
M  END
>  <CHROM.1>
-51.31095633,-176.43028043,170.19534559,-118.57750901,20.78565948,2.44752758
27.83810450,0.48654745,0.89468999,2.44996621

>  <Name>
ligand

>  <RI>
416

>  <Rbt.Current_Directory>
/home/itssahil/PROJECTS/Mol_Feturizer/Test_systems_manuscript/rnas/3slm

>  <Rbt.Executable>
rbdock ($Id: //depot/dev/client3/rdock/2013.1/src/exe/rbdock.cxx#4 $)

>  <Rbt.Library>
libRbt.so (2013.1, Build901 2013/11/27)

>  <Rbt.Parameter_File>
/export/apps/rDock/src/rDock_2013.1_src/data/scripts/dock_solv.prm

>  <Rbt.Receptor>
prm/pocket_docking_6.prm

>  <SCORE>
-22.6538

>  <SCORE.INTER>
-17.4104

>  <SCORE.INTER.CONST>
1

>  <SCORE.INTER.POLAR>
0

>  <SCORE.INTER.ROT>
4

>  <SCORE.INTER.SOLV>
31.9785

>  <SCORE.INTER.VDW>
-28.5331

>  <SCORE.INTER.norm>
-0.756972

>  <SCORE.INTRA>
-5.24339

>  <SCORE.INTRA.DIHEDRAL>
-6.77889

>  <SCORE.INTRA.DIHEDRAL.0>
8.62657

>  <SCORE.INTRA.POLAR>
0

>  <SCORE.INTRA.POLAR.0>
0

>  <SCORE.INTRA.REPUL>
0

>  <SCORE.INTRA.REPUL.0>
0

>  <SCORE.INTRA.SOLV>
-0.569167

>  <SCORE.INTRA.SOLV.lig_0>
-66.3641

>  <SCORE.INTRA.VDW>
-1.56936

>  <SCORE.INTRA.VDW.0>
0.452231

>  <SCORE.INTRA.norm>
-0.227974

>  <SCORE.RESTR>
0

>  <SCORE.RESTR.CAVITY>
0

>  <SCORE.RESTR.norm>
0

>  <SCORE.SYSTEM>
0

>  <SCORE.SYSTEM.CONST>
0

>  <SCORE.SYSTEM.DIHEDRAL>
0

>  <SCORE.SYSTEM.SOLV>
0

>  <SCORE.SYSTEM.norm>
0

>  <SCORE.heavy>
23

>  <SCORE.norm>
-0.984946

>  <RMSD>
1.521

$$$$
ligand
 OpenBabel02271912143D
libRbt.so/2013.1/901 2013/11/27
 23 25  0  0  0  0  0  0  0  0999 V2000
   23.3297    1.8691   31.6822 P   0  0  1  0  0  0  0  0  0  0  0  0
   20.9415    2.4334   30.7693 C   0  0  0  0  0  0  0  0  0  0  0  0
   21.9162    1.4375   31.0467 O   0  0  0  0  0  0  0  0  0  0  0  0
   21.4393    3.2341   29.5871 C   0  0  1  0  0  0  0  0  0  0  0  0
   21.4125    2.4779   28.3770 O   0  0  0  0  0  0  0  0  0  0  0  0
   20.5473    4.4493   29.3969 C   0  0  1  0  0  0  0  0  0  0  0  0
   21.3909    5.6009   29.2230 O   0  0  0  0  0  0  0  0  0  0  0  0
   19.7209    4.1496   28.1526 C   0  0  0  0  0  0  0  0  0  0  0  0
   20.5128    3.0648   27.4276 C   0  0  2  0  0  0  0  0  0  0  0  0
   17.6186    1.1913   23.6007 N   0  0  0  0  0  0  0  0  0  0  0  0
   18.3342    2.3276   23.6163 C   0  0  2  0  0  0  0  0  0  0  0  0
   18.3249    3.0955   22.5019 N   0  0  0  0  0  0  0  0  0  0  0  0
   19.0497    2.6877   24.7092 N   0  0  0  0  0  0  0  0  0  0  0  0
   19.0438    1.8955   25.8011 C   0  0  2  0  0  0  0  0  0  0  0  0
   18.3129    0.7272   25.8018 C   0  0  1  0  0  0  0  0  0  0  0  0
   17.5978    0.3778   24.6720 C   0  0  0  0  0  0  0  0  0  0  0  0
   16.9337   -0.6809   24.6501 O   0  0  0  0  0  0  0  0  0  0  0  0
   18.4711    0.1356   27.0023 N   0  0  0  0  0  0  0  0  0  0  0  0
   19.2892    0.9172   27.7290 C   0  0  0  0  0  0  0  0  0  0  0  0
   19.6203    1.9847   26.9944 N   0  0  1  0  0  0  0  0  0  0  0  0
   24.0060    2.7735   30.6808 O   0  0  0  0  0  0  0  0  0  0  0  0
   22.9539    2.5463   32.9800 O   0  5  0  0  0  0  0  0  0  0  0  0
   24.0271    0.5483   31.8653 O   0  0  0  0  0  0  0  0  0  0  0  0
  1  3  1  6  0  0  0
  1 21  1  0  0  0  0
  1 22  1  0  0  0  0
  1 23  2  0  0  0  0
  2  3  1  0  0  0  0
  4  2  1  1  0  0  0
  4  5  1  0  0  0  0
  4  6  1  0  0  0  0
  6  7  1  6  0  0  0
  6  8  1  0  0  0  0
  8  9  1  0  0  0  0
  9  5  1  1  0  0  0
  9 20  1  0  0  0  0
 10 11  1  0  0  0  0
 10 16  1  0  0  0  0
 11 12  1  6  0  0  0
 11 13  1  0  0  0  0
 14 13  1  1  0  0  0
 14 15  1  0  0  0  0
 14 20  1  0  0  0  0
 15 16  1  6  0  0  0
 15 18  1  0  0  0  0
 16 17  2  0  0  0  0
 18 19  1  0  0  0  0
 20 19  1  6  0  0  0
M  CHG  1  22  -1
M  END
>  <CHROM.1>
-62.38706516,69.82130764,71.11904710,-150.20132153,20.47387483,2.13955172
28.08854880,0.13988085,0.95911941,2.83925146

>  <Name>
ligand

>  <RI>
0

>  <Rbt.Current_Directory>
/home/itssahil/PROJECTS/Mol_Feturizer/Test_systems_manuscript/rnas/3slm

>  <Rbt.Executable>
rbdock ($Id: //depot/dev/client3/rdock/2013.1/src/exe/rbdock.cxx#4 $)

>  <Rbt.Library>
libRbt.so (2013.1, Build901 2013/11/27)

>  <Rbt.Parameter_File>
/export/apps/rDock/src/rDock_2013.1_src/data/scripts/dock_solv.prm

>  <Rbt.Receptor>
prm/pocket_docking_3.prm

>  <SCORE>
-22.1128

>  <SCORE.INTER>
-17.2644

>  <SCORE.INTER.CONST>
1

>  <SCORE.INTER.POLAR>
0

>  <SCORE.INTER.ROT>
4

>  <SCORE.INTER.SOLV>
27.5535

>  <SCORE.INTER.VDW>
-26.9608

>  <SCORE.INTER.norm>
-0.750625

>  <SCORE.INTRA>
-4.84845

>  <SCORE.INTRA.DIHEDRAL>
-6.4249

>  <SCORE.INTRA.DIHEDRAL.0>
8.62657

>  <SCORE.INTRA.POLAR>
0

>  <SCORE.INTRA.POLAR.0>
0

>  <SCORE.INTRA.REPUL>
0

>  <SCORE.INTRA.REPUL.0>
0

>  <SCORE.INTRA.SOLV>
0.391055

>  <SCORE.INTRA.SOLV.lig_0>
-66.3641

>  <SCORE.INTRA.VDW>
-1.83153

>  <SCORE.INTRA.VDW.0>
0.452231

>  <SCORE.INTRA.norm>
-0.210802

>  <SCORE.RESTR>
0

>  <SCORE.RESTR.CAVITY>
0

>  <SCORE.RESTR.norm>
0

>  <SCORE.SYSTEM>
0

>  <SCORE.SYSTEM.CONST>
0

>  <SCORE.SYSTEM.DIHEDRAL>
0

>  <SCORE.SYSTEM.SOLV>
0

>  <SCORE.SYSTEM.norm>
0

>  <SCORE.heavy>
23

>  <SCORE.norm>
-0.961427

>  <RMSD>
1.528

$$$$
ligand
 OpenBabel02271912143D
libRbt.so/2013.1/901 2013/11/27
 23 25  0  0  0  0  0  0  0  0999 V2000
   22.5998    1.0058   32.0551 P   0  0  1  0  0  0  0  0  0  0  0  0
   21.3658    2.7183   30.5059 C   0  0  0  0  0  0  0  0  0  0  0  0
   22.4190    1.7761   30.6543 O   0  0  0  0  0  0  0  0  0  0  0  0
   21.6840    3.5623   29.2922 C   0  0  1  0  0  0  0  0  0  0  0  0
   21.5545    2.8254   28.0769 O   0  0  0  0  0  0  0  0  0  0  0  0
   20.7178    4.7333   29.2321 C   0  0  1  0  0  0  0  0  0  0  0  0
   21.4785    5.9291   28.9880 O   0  0  0  0  0  0  0  0  0  0  0  0
   19.7688    4.4121   28.0844 C   0  0  0  0  0  0  0  0  0  0  0  0
   20.5236    3.3808   27.2499 C   0  0  2  0  0  0  0  0  0  0  0  0
   17.5622    1.2597   23.6081 N   0  0  0  0  0  0  0  0  0  0  0  0
   18.2556    2.4081   23.5451 C   0  0  2  0  0  0  0  0  0  0  0  0
   18.2006    3.1169   22.3936 N   0  0  0  0  0  0  0  0  0  0  0  0
   18.9937    2.8371   24.5973 N   0  0  0  0  0  0  0  0  0  0  0  0
   19.0334    2.1026   25.7280 C   0  0  2  0  0  0  0  0  0  0  0  0
   18.3259    0.9228   25.8094 C   0  0  1  0  0  0  0  0  0  0  0  0
   17.5868    0.5025   24.7199 C   0  0  0  0  0  0  0  0  0  0  0  0
   16.9432   -0.5678   24.7712 O   0  0  0  0  0  0  0  0  0  0  0  0
   18.5286    0.3971   27.0337 N   0  0  0  0  0  0  0  0  0  0  0  0
   19.3509    1.2300   27.6957 C   0  0  0  0  0  0  0  0  0  0  0  0
   19.6408    2.2638   26.8982 N   0  0  1  0  0  0  0  0  0  0  0  0
   21.3146    0.2589   32.3170 O   0  0  0  0  0  0  0  0  0  0  0  0
   23.8022    0.1182   31.8301 O   0  5  0  0  0  0  0  0  0  0  0  0
   22.8476    2.1318   33.0222 O   0  0  0  0  0  0  0  0  0  0  0  0
  1  3  1  6  0  0  0
  1 21  1  0  0  0  0
  1 22  1  0  0  0  0
  1 23  2  0  0  0  0
  2  3  1  0  0  0  0
  4  2  1  1  0  0  0
  4  5  1  0  0  0  0
  4  6  1  0  0  0  0
  6  7  1  6  0  0  0
  6  8  1  0  0  0  0
  8  9  1  0  0  0  0
  9  5  1  1  0  0  0
  9 20  1  0  0  0  0
 10 11  1  0  0  0  0
 10 16  1  0  0  0  0
 11 12  1  6  0  0  0
 11 13  1  0  0  0  0
 14 13  1  1  0  0  0
 14 15  1  0  0  0  0
 14 20  1  0  0  0  0
 15 16  1  6  0  0  0
 15 18  1  0  0  0  0
 16 17  2  0  0  0  0
 18 19  1  0  0  0  0
 20 19  1  6  0  0  0
M  CHG  1  22  -1
M  END
>  <CHROM.1>
59.02128143,70.29359118,163.24459329,-143.52535713,20.32849170,2.07867988
28.10803716,0.35646398,0.98906620,2.71965701

>  <Name>
ligand

>  <RI>
0

>  <Rbt.Current_Directory>
/home/itssahil/PROJECTS/Mol_Feturizer/Test_systems_manuscript/rnas/3slm

>  <Rbt.Executable>
rbdock ($Id: //depot/dev/client3/rdock/2013.1/src/exe/rbdock.cxx#4 $)

>  <Rbt.Library>
libRbt.so (2013.1, Build901 2013/11/27)

>  <Rbt.Parameter_File>
/export/apps/rDock/src/rDock_2013.1_src/data/scripts/dock_solv.prm

>  <Rbt.Receptor>
prm/pocket_docking_3.prm

>  <SCORE>
-21.5166

>  <SCORE.INTER>
-16.4762

>  <SCORE.INTER.CONST>
1

>  <SCORE.INTER.POLAR>
0

>  <SCORE.INTER.ROT>
4

>  <SCORE.INTER.SOLV>
27.9327

>  <SCORE.INTER.VDW>
-26.5617

>  <SCORE.INTER.norm>
-0.716358

>  <SCORE.INTRA>
-5.04035

>  <SCORE.INTRA.DIHEDRAL>
-5.69395

>  <SCORE.INTRA.DIHEDRAL.0>
8.62657

>  <SCORE.INTRA.POLAR>
0

>  <SCORE.INTRA.POLAR.0>
0

>  <SCORE.INTRA.REPUL>
0

>  <SCORE.INTRA.REPUL.0>
0

>  <SCORE.INTRA.SOLV>
-0.661482

>  <SCORE.INTRA.SOLV.lig_0>
-66.3641

>  <SCORE.INTRA.VDW>
-1.86263

>  <SCORE.INTRA.VDW.0>
0.452231

>  <SCORE.INTRA.norm>
-0.219146

>  <SCORE.RESTR>
0

>  <SCORE.RESTR.CAVITY>
0

>  <SCORE.RESTR.norm>
0

>  <SCORE.SYSTEM>
0

>  <SCORE.SYSTEM.CONST>
0

>  <SCORE.SYSTEM.DIHEDRAL>
0

>  <SCORE.SYSTEM.SOLV>
0

>  <SCORE.SYSTEM.norm>
0

>  <SCORE.heavy>
23

>  <SCORE.norm>
-0.935503

>  <RMSD>
1.529

$$$$
ligand
 OpenBabel02271912143D
libRbt.so/2013.1/901 2013/11/27
 23 25  0  0  0  0  0  0  0  0999 V2000
   23.5222    2.4615   31.5526 P   0  0  1  0  0  0  0  0  0  0  0  0
   21.5481    1.7905   29.9690 C   0  0  0  0  0  0  0  0  0  0  0  0
   21.9538    2.3299   31.2193 O   0  0  0  0  0  0  0  0  0  0  0  0
   21.7892    2.8529   28.9204 C   0  0  1  0  0  0  0  0  0  0  0  0
   21.5422    2.3702   27.6002 O   0  0  0  0  0  0  0  0  0  0  0  0
   20.8526    4.0227   29.1714 C   0  0  1  0  0  0  0  0  0  0  0  0
   21.6224    5.2354   29.1013 O   0  0  0  0  0  0  0  0  0  0  0  0
   19.8055    3.9425   28.0677 C   0  0  0  0  0  0  0  0  0  0  0  0
   20.4627    3.0875   26.9875 C   0  0  2  0  0  0  0  0  0  0  0  0
   17.5636    1.4884   23.0416 N   0  0  0  0  0  0  0  0  0  0  0  0
   18.3374    2.5841   23.1087 C   0  0  2  0  0  0  0  0  0  0  0  0
   18.3942    3.3850   22.0193 N   0  0  0  0  0  0  0  0  0  0  0  0
   19.0452    2.8720   24.2276 N   0  0  0  0  0  0  0  0  0  0  0  0
   18.9724    2.0483   25.2934 C   0  0  2  0  0  0  0  0  0  0  0  0
   18.1814    0.9210   25.2413 C   0  0  1  0  0  0  0  0  0  0  0  0
   17.4753    0.6449   24.0859 C   0  0  0  0  0  0  0  0  0  0  0  0
   16.7573   -0.3759   24.0160 O   0  0  0  0  0  0  0  0  0  0  0  0
   18.2804    0.2854   26.4256 N   0  0  0  0  0  0  0  0  0  0  0  0
   19.1213    0.9999   27.1942 C   0  0  0  0  0  0  0  0  0  0  0  0
   19.5250    2.0701   26.5011 N   0  0  1  0  0  0  0  0  0  0  0  0
   24.1271    3.3436   30.4877 O   0  0  0  0  0  0  0  0  0  0  0  0
   23.5505    3.0535   32.9430 O   0  5  0  0  0  0  0  0  0  0  0  0
   23.9946    1.0342   31.4897 O   0  0  0  0  0  0  0  0  0  0  0  0
  1  3  1  6  0  0  0
  1 21  1  0  0  0  0
  1 22  1  0  0  0  0
  1 23  2  0  0  0  0
  2  3  1  0  0  0  0
  4  2  1  1  0  0  0
  4  5  1  0  0  0  0
  4  6  1  0  0  0  0
  6  7  1  6  0  0  0
  6  8  1  0  0  0  0
  8  9  1  0  0  0  0
  9  5  1  1  0  0  0
  9 20  1  0  0  0  0
 10 11  1  0  0  0  0
 10 16  1  0  0  0  0
 11 12  1  6  0  0  0
 11 13  1  0  0  0  0
 14 13  1  1  0  0  0
 14 15  1  0  0  0  0
 14 20  1  0  0  0  0
 15 16  1  6  0  0  0
 15 18  1  0  0  0  0
 16 17  2  0  0  0  0
 18 19  1  0  0  0  0
 20 19  1  6  0  0  0
M  CHG  1  22  -1
M  END
>  <CHROM.1>
59.04328085,174.06497247,-74.95428251,-132.93302763,20.55706610,2.31104661
27.69479939,0.32210936,0.92142745,2.58941754

>  <Name>
ligand

>  <RI>
0

>  <Rbt.Current_Directory>
/home/itssahil/PROJECTS/Mol_Feturizer/Test_systems_manuscript/rnas/3slm

>  <Rbt.Executable>
rbdock ($Id: //depot/dev/client3/rdock/2013.1/src/exe/rbdock.cxx#4 $)

>  <Rbt.Library>
libRbt.so (2013.1, Build901 2013/11/27)

>  <Rbt.Parameter_File>
/export/apps/rDock/src/rDock_2013.1_src/data/scripts/dock_solv.prm

>  <Rbt.Receptor>
prm/blind_docking_60.prm

>  <SCORE>
-22.2173

>  <SCORE.INTER>
-17.4575

>  <SCORE.INTER.CONST>
1

>  <SCORE.INTER.POLAR>
0

>  <SCORE.INTER.ROT>
4

>  <SCORE.INTER.SOLV>
29.2445

>  <SCORE.INTER.VDW>
-27.6532

>  <SCORE.INTER.norm>
-0.759023

>  <SCORE.INTRA>
-4.75976

>  <SCORE.INTRA.DIHEDRAL>
-6.21235

>  <SCORE.INTRA.DIHEDRAL.0>
8.62657

>  <SCORE.INTRA.POLAR>
0

>  <SCORE.INTRA.POLAR.0>
0

>  <SCORE.INTRA.REPUL>
0

>  <SCORE.INTRA.REPUL.0>
0

>  <SCORE.INTRA.SOLV>
0.519887

>  <SCORE.INTRA.SOLV.lig_0>
-66.3641

>  <SCORE.INTRA.VDW>
-1.91353

>  <SCORE.INTRA.VDW.0>
0.452231

>  <SCORE.INTRA.norm>
-0.206946

>  <SCORE.RESTR>
0

>  <SCORE.RESTR.CAVITY>
0

>  <SCORE.RESTR.norm>
0

>  <SCORE.SYSTEM>
0

>  <SCORE.SYSTEM.CONST>
0

>  <SCORE.SYSTEM.DIHEDRAL>
0

>  <SCORE.SYSTEM.SOLV>
0

>  <SCORE.SYSTEM.norm>
0

>  <SCORE.heavy>
23

>  <SCORE.norm>
-0.965969

>  <RMSD>
1.536

$$$$
ligand
 OpenBabel02271912143D
libRbt.so/2013.1/901 2013/11/27
 23 25  0  0  0  0  0  0  0  0999 V2000
   23.0382    1.4907   31.7918 P   0  0  1  0  0  0  0  0  0  0  0  0
   20.7734    2.4604   30.9056 C   0  0  0  0  0  0  0  0  0  0  0  0
   21.5780    1.3131   31.1402 O   0  0  0  0  0  0  0  0  0  0  0  0
   21.3780    3.2032   29.7355 C   0  0  1  0  0  0  0  0  0  0  0  0
   21.3895    2.4138   28.5465 O   0  0  0  0  0  0  0  0  0  0  0  0
   20.5560    4.4507   29.4585 C   0  0  1  0  0  0  0  0  0  0  0  0
   21.4607    5.5581   29.3064 O   0  0  0  0  0  0  0  0  0  0  0  0
   19.7932    4.1516   28.1740 C   0  0  0  0  0  0  0  0  0  0  0  0
   20.5767    3.0119   27.5282 C   0  0  2  0  0  0  0  0  0  0  0  0
   17.6825    1.2635   23.6425 N   0  0  0  0  0  0  0  0  0  0  0  0
   18.4255    2.3816   23.6824 C   0  0  2  0  0  0  0  0  0  0  0  0
   18.4480    3.1648   22.5790 N   0  0  0  0  0  0  0  0  0  0  0  0
   19.1367    2.7087   24.7884 N   0  0  0  0  0  0  0  0  0  0  0  0
   19.0986    1.9019   25.8688 C   0  0  2  0  0  0  0  0  0  0  0  0
   18.3394    0.7520   25.8446 C   0  0  1  0  0  0  0  0  0  0  0  0
   17.6292    0.4360   24.7020 C   0  0  0  0  0  0  0  0  0  0  0  0
   16.9398   -0.6056   24.6575 O   0  0  0  0  0  0  0  0  0  0  0  0
   18.4690    0.1401   27.0384 N   0  0  0  0  0  0  0  0  0  0  0  0
   19.2974    0.8912   27.7853 C   0  0  0  0  0  0  0  0  0  0  0  0
   19.6631    1.9602   27.0697 N   0  0  1  0  0  0  0  0  0  0  0  0
   22.8904    2.4439   32.9527 O   0  0  0  0  0  0  0  0  0  0  0  0
   23.4350    0.0863   32.1847 O   0  5  0  0  0  0  0  0  0  0  0  0
   23.8430    2.0535   30.6516 O   0  0  0  0  0  0  0  0  0  0  0  0
  1  3  1  6  0  0  0
  1 21  1  0  0  0  0
  1 22  1  0  0  0  0
  1 23  2  0  0  0  0
  2  3  1  0  0  0  0
  4  2  1  1  0  0  0
  4  5  1  0  0  0  0
  4  6  1  0  0  0  0
  6  7  1  6  0  0  0
  6  8  1  0  0  0  0
  8  9  1  0  0  0  0
  9  5  1  1  0  0  0
  9 20  1  0  0  0  0
 10 11  1  0  0  0  0
 10 16  1  0  0  0  0
 11 12  1  6  0  0  0
 11 13  1  0  0  0  0
 14 13  1  1  0  0  0
 14 15  1  0  0  0  0
 14 20  1  0  0  0  0
 15 16  1  6  0  0  0
 15 18  1  0  0  0  0
 16 17  2  0  0  0  0
 18 19  1  0  0  0  0
 20 19  1  6  0  0  0
M  CHG  1  22  -1
M  END
>  <CHROM.1>
45.64195769,61.22764217,72.47731149,-154.10544470,20.41234332,2.04540368
28.16793869,0.20906565,0.98428652,2.81165882

>  <Name>
ligand

>  <RI>
0

>  <Rbt.Current_Directory>
/home/itssahil/PROJECTS/Mol_Feturizer/Test_systems_manuscript/rnas/3slm

>  <Rbt.Executable>
rbdock ($Id: //depot/dev/client3/rdock/2013.1/src/exe/rbdock.cxx#4 $)

>  <Rbt.Library>
libRbt.so (2013.1, Build901 2013/11/27)

>  <Rbt.Parameter_File>
/export/apps/rDock/src/rDock_2013.1_src/data/scripts/dock_solv.prm

>  <Rbt.Receptor>
prm/pocket_docking_3.prm

>  <SCORE>
-22.8274

>  <SCORE.INTER>
-18.5695

>  <SCORE.INTER.CONST>
1

>  <SCORE.INTER.POLAR>
0

>  <SCORE.INTER.ROT>
4

>  <SCORE.INTER.SOLV>
23.7994

>  <SCORE.INTER.VDW>
-26.5795

>  <SCORE.INTER.norm>
-0.80737

>  <SCORE.INTRA>
-4.2579

>  <SCORE.INTRA.DIHEDRAL>
-6.32077

>  <SCORE.INTRA.DIHEDRAL.0>
8.62657

>  <SCORE.INTRA.POLAR>
0

>  <SCORE.INTRA.POLAR.0>
0

>  <SCORE.INTRA.REPUL>
0

>  <SCORE.INTRA.REPUL.0>
0

>  <SCORE.INTRA.SOLV>
1.49641

>  <SCORE.INTRA.SOLV.lig_0>
-66.3641

>  <SCORE.INTRA.VDW>
-1.84572

>  <SCORE.INTRA.VDW.0>
0.452231

>  <SCORE.INTRA.norm>
-0.185126

>  <SCORE.RESTR>
0

>  <SCORE.RESTR.CAVITY>
0

>  <SCORE.RESTR.norm>
0

>  <SCORE.SYSTEM>
0

>  <SCORE.SYSTEM.CONST>
0

>  <SCORE.SYSTEM.DIHEDRAL>
0

>  <SCORE.SYSTEM.SOLV>
0

>  <SCORE.SYSTEM.norm>
0

>  <SCORE.heavy>
23

>  <SCORE.norm>
-0.992497

>  <RMSD>
1.541

$$$$
ligand
 OpenBabel02271912143D
libRbt.so/2013.1/901 2013/11/27
 23 25  0  0  0  0  0  0  0  0999 V2000
   23.6260    2.2669   31.4097 P   0  0  1  0  0  0  0  0  0  0  0  0
   21.5214    1.7751   29.9318 C   0  0  0  0  0  0  0  0  0  0  0  0
   22.0350    2.2405   31.1721 O   0  0  0  0  0  0  0  0  0  0  0  0
   21.7763    2.8553   28.9048 C   0  0  1  0  0  0  0  0  0  0  0  0
   21.5398    2.3974   27.5739 O   0  0  0  0  0  0  0  0  0  0  0  0
   20.8419    4.0240   29.1682 C   0  0  1  0  0  0  0  0  0  0  0  0
   21.6168    5.2348   29.1271 O   0  0  0  0  0  0  0  0  0  0  0  0
   19.8048    3.9678   28.0535 C   0  0  0  0  0  0  0  0  0  0  0  0
   20.4688    3.1298   26.9642 C   0  0  2  0  0  0  0  0  0  0  0  0
   17.6281    1.5941   22.9512 N   0  0  0  0  0  0  0  0  0  0  0  0
   18.4093    2.6827   23.0433 C   0  0  2  0  0  0  0  0  0  0  0  0
   18.4920    3.4940   21.9633 N   0  0  0  0  0  0  0  0  0  0  0  0
   19.0992    2.9536   24.1775 N   0  0  0  0  0  0  0  0  0  0  0  0
   19.0008    2.1199   25.2334 C   0  0  2  0  0  0  0  0  0  0  0  0
   18.2019    0.9997   25.1557 C   0  0  1  0  0  0  0  0  0  0  0  0
   17.5144    0.7409   23.9852 C   0  0  0  0  0  0  0  0  0  0  0  0
   16.7896   -0.2732   23.8922 O   0  0  0  0  0  0  0  0  0  0  0  0
   18.2746    0.3515   26.3351 N   0  0  0  0  0  0  0  0  0  0  0  0
   19.1074    1.0513   27.1257 C   0  0  0  0  0  0  0  0  0  0  0  0
   19.5319    2.1251   26.4508 N   0  0  1  0  0  0  0  0  0  0  0  0
   23.8493    2.5993   32.8649 O   0  0  0  0  0  0  0  0  0  0  0  0
   24.0769    0.8808   31.0102 O   0  5  0  0  0  0  0  0  0  0  0  0
   24.0829    3.3494   30.4695 O   0  0  0  0  0  0  0  0  0  0  0  0
  1  3  1  6  0  0  0
  1 21  1  0  0  0  0
  1 22  1  0  0  0  0
  1 23  2  0  0  0  0
  2  3  1  0  0  0  0
  4  2  1  1  0  0  0
  4  5  1  0  0  0  0
  4  6  1  0  0  0  0
  6  7  1  6  0  0  0
  6  8  1  0  0  0  0
  8  9  1  0  0  0  0
  9  5  1  1  0  0  0
  9 20  1  0  0  0  0
 10 11  1  0  0  0  0
 10 16  1  0  0  0  0
 11 12  1  6  0  0  0
 11 13  1  0  0  0  0
 14 13  1  1  0  0  0
 14 15  1  0  0  0  0
 14 20  1  0  0  0  0
 15 16  1  6  0  0  0
 15 18  1  0  0  0  0
 16 17  2  0  0  0  0
 18 19  1  0  0  0  0
 20 19  1  6  0  0  0
M  CHG  1  22  -1
M  END
>  <CHROM.1>
-171.49198705,168.58084969,-74.31877659,-132.22274489,20.59963467,2.30025573
27.61558935,0.29620631,0.91882677,2.65211135

>  <Name>
ligand

>  <RI>
0

>  <Rbt.Current_Directory>
/home/itssahil/PROJECTS/Mol_Feturizer/Test_systems_manuscript/rnas/3slm

>  <Rbt.Executable>
rbdock ($Id: //depot/dev/client3/rdock/2013.1/src/exe/rbdock.cxx#4 $)

>  <Rbt.Library>
libRbt.so (2013.1, Build901 2013/11/27)

>  <Rbt.Parameter_File>
/export/apps/rDock/src/rDock_2013.1_src/data/scripts/dock_solv.prm

>  <Rbt.Receptor>
prm/pocket_docking_3.prm

>  <SCORE>
-21.0022

>  <SCORE.INTER>
-17.7454

>  <SCORE.INTER.CONST>
1

>  <SCORE.INTER.POLAR>
0

>  <SCORE.INTER.ROT>
4

>  <SCORE.INTER.SOLV>
26.3095

>  <SCORE.INTER.VDW>
-26.8667

>  <SCORE.INTER.norm>
-0.771537

>  <SCORE.INTRA>
-3.2568

>  <SCORE.INTRA.DIHEDRAL>
-5.83505

>  <SCORE.INTRA.DIHEDRAL.0>
8.62657

>  <SCORE.INTRA.POLAR>
0

>  <SCORE.INTRA.POLAR.0>
0

>  <SCORE.INTRA.REPUL>
0

>  <SCORE.INTRA.REPUL.0>
0

>  <SCORE.INTRA.SOLV>
2.98631

>  <SCORE.INTRA.SOLV.lig_0>
-66.3641

>  <SCORE.INTRA.VDW>
-1.83243

>  <SCORE.INTRA.VDW.0>
0.452231

>  <SCORE.INTRA.norm>
-0.1416

>  <SCORE.RESTR>
0

>  <SCORE.RESTR.CAVITY>
0

>  <SCORE.RESTR.norm>
0

>  <SCORE.SYSTEM>
0

>  <SCORE.SYSTEM.CONST>
0

>  <SCORE.SYSTEM.DIHEDRAL>
0

>  <SCORE.SYSTEM.SOLV>
0

>  <SCORE.SYSTEM.norm>
0

>  <SCORE.heavy>
23

>  <SCORE.norm>
-0.913137

>  <RMSD>
1.544

$$$$
ligand
 OpenBabel02271912143D
libRbt.so/2013.1/901 2013/11/27
 23 25  0  0  0  0  0  0  0  0999 V2000
   23.4049    1.9912   31.6486 P   0  0  1  0  0  0  0  0  0  0  0  0
   20.9881    2.4639   30.7592 C   0  0  0  0  0  0  0  0  0  0  0  0
   22.0056    1.5070   31.0194 O   0  0  0  0  0  0  0  0  0  0  0  0
   21.4406    3.2930   29.5784 C   0  0  1  0  0  0  0  0  0  0  0  0
   21.4172    2.5499   28.3602 O   0  0  0  0  0  0  0  0  0  0  0  0
   20.5078    4.4815   29.4171 C   0  0  1  0  0  0  0  0  0  0  0  0
   21.3117    5.6610   29.2427 O   0  0  0  0  0  0  0  0  0  0  0  0
   19.6703    4.1697   28.1831 C   0  0  0  0  0  0  0  0  0  0  0  0
   20.4836    3.1185   27.4326 C   0  0  2  0  0  0  0  0  0  0  0  0
   17.6372    1.1657   23.6095 N   0  0  0  0  0  0  0  0  0  0  0  0
   18.3243    2.3196   23.6228 C   0  0  2  0  0  0  0  0  0  0  0  0
   18.2960    3.0846   22.5068 N   0  0  0  0  0  0  0  0  0  0  0  0
   19.0305    2.6995   24.7150 N   0  0  0  0  0  0  0  0  0  0  0  0
   19.0442    1.9098   25.8085 C   0  0  2  0  0  0  0  0  0  0  0  0
   18.3427    0.7236   25.8115 C   0  0  1  0  0  0  0  0  0  0  0  0
   17.6365    0.3542   24.6825 C   0  0  0  0  0  0  0  0  0  0  0  0
   16.9990   -0.7208   24.6627 O   0  0  0  0  0  0  0  0  0  0  0  0
   18.5154    0.1386   27.0133 N   0  0  0  0  0  0  0  0  0  0  0  0
   19.3137    0.9418   27.7384 C   0  0  0  0  0  0  0  0  0  0  0  0
   19.6183    2.0157   27.0016 N   0  0  1  0  0  0  0  0  0  0  0  0
   24.0063    2.9793   30.6790 O   0  0  0  0  0  0  0  0  0  0  0  0
   23.0180    2.5843   32.9838 O   0  5  0  0  0  0  0  0  0  0  0  0
   24.1814    0.7067   31.7559 O   0  0  0  0  0  0  0  0  0  0  0  0
  1  3  1  6  0  0  0
  1 21  1  0  0  0  0
  1 22  1  0  0  0  0
  1 23  2  0  0  0  0
  2  3  1  0  0  0  0
  4  2  1  1  0  0  0
  4  5  1  0  0  0  0
  4  6  1  0  0  0  0
  6  7  1  6  0  0  0
  6  8  1  0  0  0  0
  8  9  1  0  0  0  0
  9  5  1  1  0  0  0
  9 20  1  0  0  0  0
 10 11  1  0  0  0  0
 10 16  1  0  0  0  0
 11 12  1  6  0  0  0
 11 13  1  0  0  0  0
 14 13  1  1  0  0  0
 14 15  1  0  0  0  0
 14 20  1  0  0  0  0
 15 16  1  6  0  0  0
 15 18  1  0  0  0  0
 16 17  2  0  0  0  0
 18 19  1  0  0  0  0
 20 19  1  6  0  0  0
M  CHG  1  22  -1
M  END
>  <CHROM.1>
-59.95306397,70.53188580,71.30959452,-148.91538745,20.49550675,2.18534532
28.08443127,0.08597774,0.95768057,2.88655269

>  <Name>
ligand

>  <RI>
0

>  <Rbt.Current_Directory>
/home/itssahil/PROJECTS/Mol_Feturizer/Test_systems_manuscript/rnas/3slm

>  <Rbt.Executable>
rbdock ($Id: //depot/dev/client3/rdock/2013.1/src/exe/rbdock.cxx#4 $)

>  <Rbt.Library>
libRbt.so (2013.1, Build901 2013/11/27)

>  <Rbt.Parameter_File>
/export/apps/rDock/src/rDock_2013.1_src/data/scripts/dock_solv.prm

>  <Rbt.Receptor>
prm/pocket_docking_3.prm

>  <SCORE>
-22.2454

>  <SCORE.INTER>
-17.4303

>  <SCORE.INTER.CONST>
1

>  <SCORE.INTER.POLAR>
0

>  <SCORE.INTER.ROT>
4

>  <SCORE.INTER.SOLV>
27.7364

>  <SCORE.INTER.VDW>
-27.1323

>  <SCORE.INTER.norm>
-0.757837

>  <SCORE.INTRA>
-4.8151

>  <SCORE.INTRA.DIHEDRAL>
-6.36002

>  <SCORE.INTRA.DIHEDRAL.0>
8.62657

>  <SCORE.INTRA.POLAR>
0

>  <SCORE.INTRA.POLAR.0>
0

>  <SCORE.INTRA.REPUL>
0

>  <SCORE.INTRA.REPUL.0>
0

>  <SCORE.INTRA.SOLV>
0.362332

>  <SCORE.INTRA.SOLV.lig_0>
-66.3641

>  <SCORE.INTRA.VDW>
-1.81626

>  <SCORE.INTRA.VDW.0>
0.452231

>  <SCORE.INTRA.norm>
-0.209352

>  <SCORE.RESTR>
0

>  <SCORE.RESTR.CAVITY>
0

>  <SCORE.RESTR.norm>
0

>  <SCORE.SYSTEM>
0

>  <SCORE.SYSTEM.CONST>
0

>  <SCORE.SYSTEM.DIHEDRAL>
0

>  <SCORE.SYSTEM.SOLV>
0

>  <SCORE.SYSTEM.norm>
0

>  <SCORE.heavy>
23

>  <SCORE.norm>
-0.96719

>  <RMSD>
1.545

$$$$
ligand
 OpenBabel02271912143D
libRbt.so/2013.1/901 2013/11/27
 23 25  0  0  0  0  0  0  0  0999 V2000
   23.3476    1.9933   31.6236 P   0  0  1  0  0  0  0  0  0  0  0  0
   20.9400    2.5762   30.7755 C   0  0  0  0  0  0  0  0  0  0  0  0
   21.9226    1.5757   31.0046 O   0  0  0  0  0  0  0  0  0  0  0  0
   21.3994    3.3959   29.5908 C   0  0  1  0  0  0  0  0  0  0  0  0
   21.4144    2.6340   28.3841 O   0  0  0  0  0  0  0  0  0  0  0  0
   20.4470    4.5631   29.3928 C   0  0  1  0  0  0  0  0  0  0  0  0
   21.2311    5.7555   29.2157 O   0  0  0  0  0  0  0  0  0  0  0  0
   19.6402    4.2160   28.1479 C   0  0  0  0  0  0  0  0  0  0  0  0
   20.4884    3.1698   27.4299 C   0  0  2  0  0  0  0  0  0  0  0  0
   17.6902    1.1416   23.6104 N   0  0  0  0  0  0  0  0  0  0  0  0
   18.3449    2.3142   23.6235 C   0  0  2  0  0  0  0  0  0  0  0  0
   18.2930    3.0792   22.5083 N   0  0  0  0  0  0  0  0  0  0  0  0
   19.0423    2.7128   24.7146 N   0  0  0  0  0  0  0  0  0  0  0  0
   19.0802    1.9227   25.8074 C   0  0  2  0  0  0  0  0  0  0  0  0
   18.4120    0.7174   25.8107 C   0  0  1  0  0  0  0  0  0  0  0  0
   17.7143    0.3295   24.6827 C   0  0  0  0  0  0  0  0  0  0  0  0
   17.1070   -0.7629   24.6631 O   0  0  0  0  0  0  0  0  0  0  0  0
   18.6034    0.1364   27.0116 N   0  0  0  0  0  0  0  0  0  0  0  0
   19.3804    0.9610   27.7359 C   0  0  0  0  0  0  0  0  0  0  0  0
   19.6534    2.0436   26.9995 N   0  0  1  0  0  0  0  0  0  0  0  0
   23.9761    2.9729   30.6626 O   0  0  0  0  0  0  0  0  0  0  0  0
   23.0008    2.5789   32.9732 O   0  5  0  0  0  0  0  0  0  0  0  0
   24.0734    0.6774   31.7001 O   0  0  0  0  0  0  0  0  0  0  0  0
  1  3  1  6  0  0  0
  1 21  1  0  0  0  0
  1 22  1  0  0  0  0
  1 23  2  0  0  0  0
  2  3  1  0  0  0  0
  4  2  1  1  0  0  0
  4  5  1  0  0  0  0
  4  6  1  0  0  0  0
  6  7  1  6  0  0  0
  6  8  1  0  0  0  0
  8  9  1  0  0  0  0
  9  5  1  1  0  0  0
  9 20  1  0  0  0  0
 10 11  1  0  0  0  0
 10 16  1  0  0  0  0
 11 12  1  6  0  0  0
 11 13  1  0  0  0  0
 14 13  1  1  0  0  0
 14 15  1  0  0  0  0
 14 20  1  0  0  0  0
 15 16  1  6  0  0  0
 15 18  1  0  0  0  0
 16 17  2  0  0  0  0
 18 19  1  0  0  0  0
 20 19  1  6  0  0  0
M  CHG  1  22  -1
M  END
>  <CHROM.1>
-60.07419423,66.05286193,72.14393202,-150.53364824,20.49044542,2.20905161
28.07590777,0.04256084,0.97014725,2.93530788

>  <Name>
ligand

>  <RI>
0

>  <Rbt.Current_Directory>
/home/itssahil/PROJECTS/Mol_Feturizer/Test_systems_manuscript/rnas/3slm

>  <Rbt.Executable>
rbdock ($Id: //depot/dev/client3/rdock/2013.1/src/exe/rbdock.cxx#4 $)

>  <Rbt.Library>
libRbt.so (2013.1, Build901 2013/11/27)

>  <Rbt.Parameter_File>
/export/apps/rDock/src/rDock_2013.1_src/data/scripts/dock_solv.prm

>  <Rbt.Receptor>
prm/pocket_docking_3.prm

>  <SCORE>
-22.1878

>  <SCORE.INTER>
-17.2583

>  <SCORE.INTER.CONST>
1

>  <SCORE.INTER.POLAR>
0

>  <SCORE.INTER.ROT>
4

>  <SCORE.INTER.SOLV>
27.3611

>  <SCORE.INTER.VDW>
-26.8925

>  <SCORE.INTER.norm>
-0.750359

>  <SCORE.INTRA>
-4.92956

>  <SCORE.INTRA.DIHEDRAL>
-6.53034

>  <SCORE.INTRA.DIHEDRAL.0>
8.62657

>  <SCORE.INTRA.POLAR>
0

>  <SCORE.INTRA.POLAR.0>
0

>  <SCORE.INTRA.REPUL>
0

>  <SCORE.INTRA.REPUL.0>
0

>  <SCORE.INTRA.SOLV>
0.353638

>  <SCORE.INTRA.SOLV.lig_0>
-66.3641

>  <SCORE.INTRA.VDW>
-1.84121

>  <SCORE.INTRA.VDW.0>
0.452231

>  <SCORE.INTRA.norm>
-0.214329

>  <SCORE.RESTR>
0

>  <SCORE.RESTR.CAVITY>
0

>  <SCORE.RESTR.norm>
0

>  <SCORE.SYSTEM>
0

>  <SCORE.SYSTEM.CONST>
0

>  <SCORE.SYSTEM.DIHEDRAL>
0

>  <SCORE.SYSTEM.SOLV>
0

>  <SCORE.SYSTEM.norm>
0

>  <SCORE.heavy>
23

>  <SCORE.norm>
-0.964688

>  <RMSD>
1.560

$$$$
ligand
 OpenBabel02271912143D
libRbt.so/2013.1/901 2013/11/27
 23 25  0  0  0  0  0  0  0  0999 V2000
   23.8908    1.2833   28.4346 P   0  0  1  0  0  0  0  0  0  0  0  0
   22.9858    3.6546   27.7916 C   0  0  0  0  0  0  0  0  0  0  0  0
   22.6925    2.3394   28.2422 O   0  0  0  0  0  0  0  0  0  0  0  0
   21.7289    4.4786   27.9576 C   0  0  1  0  0  0  0  0  0  0  0  0
   20.6857    4.0486   27.0837 O   0  0  0  0  0  0  0  0  0  0  0  0
   21.2272    4.3405   29.3851 C   0  0  1  0  0  0  0  0  0  0  0  0
   20.9236    5.6554   29.8820 O   0  0  0  0  0  0  0  0  0  0  0  0
   19.9863    3.4614   29.2912 C   0  0  0  0  0  0  0  0  0  0  0  0
   19.5593    3.5689   27.8297 C   0  0  2  0  0  0  0  0  0  0  0  0
   17.9634    0.8915   23.7289 N   0  0  0  0  0  0  0  0  0  0  0  0
   18.1079    2.2219   23.8430 C   0  0  2  0  0  0  0  0  0  0  0  0
   17.8167    2.9838   22.7630 N   0  0  0  0  0  0  0  0  0  0  0  0
   18.5405    2.7810   24.9988 N   0  0  0  0  0  0  0  0  0  0  0  0
   18.8297    1.9922   26.0542 C   0  0  2  0  0  0  0  0  0  0  0  0
   18.6848    0.6254   25.9540 C   0  0  1  0  0  0  0  0  0  0  0  0
   18.2495    0.0785   24.7619 C   0  0  0  0  0  0  0  0  0  0  0  0
   18.1176   -1.1593   24.6485 O   0  0  0  0  0  0  0  0  0  0  0  0
   19.0283    0.0805   27.1378 N   0  0  0  0  0  0  0  0  0  0  0  0
   19.3861    1.0880   27.9534 C   0  0  0  0  0  0  0  0  0  0  0  0
   19.2513    2.2409   27.2890 N   0  0  1  0  0  0  0  0  0  0  0  0
   24.6238    1.2029   27.1176 O   0  0  0  0  0  0  0  0  0  0  0  0
   24.7067    1.8608   29.5682 O   0  5  0  0  0  0  0  0  0  0  0  0
   23.1613    0.0172   28.7940 O   0  0  0  0  0  0  0  0  0  0  0  0
  1  3  1  6  0  0  0
  1 21  1  0  0  0  0
  1 22  1  0  0  0  0
  1 23  2  0  0  0  0
  2  3  1  0  0  0  0
  4  2  1  1  0  0  0
  4  5  1  0  0  0  0
  4  6  1  0  0  0  0
  6  7  1  6  0  0  0
  6  8  1  0  0  0  0
  8  9  1  0  0  0  0
  9  5  1  6  0  0  0
  9 20  1  0  0  0  0
 10 11  1  0  0  0  0
 10 16  1  0  0  0  0
 11 12  1  6  0  0  0
 11 13  1  0  0  0  0
 14 13  1  1  0  0  0
 14 15  1  0  0  0  0
 14 20  1  0  0  0  0
 15 16  1  6  0  0  0
 15 18  1  0  0  0  0
 16 17  2  0  0  0  0
 18 19  1  0  0  0  0
 20 19  1  6  0  0  0
M  CHG  1  22  -1
M  END
>  <CHROM.1>
-55.51719192,-66.85187537,-169.48205488,-64.97126660,20.73168323,2.12294360
27.11432068,-0.47505290,0.55398220,-2.66362601

>  <Name>
ligand

>  <RI>
0

>  <Rbt.Current_Directory>
/home/itssahil/PROJECTS/Mol_Feturizer/Test_systems_manuscript/rnas/3slm

>  <Rbt.Executable>
rbdock ($Id: //depot/dev/client3/rdock/2013.1/src/exe/rbdock.cxx#4 $)

>  <Rbt.Library>
libRbt.so (2013.1, Build901 2013/11/27)

>  <Rbt.Parameter_File>
/export/apps/rDock/src/rDock_2013.1_src/data/scripts/dock_solv.prm

>  <Rbt.Receptor>
prm/pocket_docking_3.prm

>  <SCORE>
-21.2445

>  <SCORE.INTER>
-16.7496

>  <SCORE.INTER.CONST>
1

>  <SCORE.INTER.POLAR>
0

>  <SCORE.INTER.ROT>
4

>  <SCORE.INTER.SOLV>
26.1009

>  <SCORE.INTER.VDW>
-26.1334

>  <SCORE.INTER.norm>
-0.728244

>  <SCORE.INTRA>
-4.4955

>  <SCORE.INTRA.DIHEDRAL>
-6.7029

>  <SCORE.INTRA.DIHEDRAL.0>
8.62657

>  <SCORE.INTRA.POLAR>
0

>  <SCORE.INTRA.POLAR.0>
0

>  <SCORE.INTRA.REPUL>
0

>  <SCORE.INTRA.REPUL.0>
0

>  <SCORE.INTRA.SOLV>
-0.0641934

>  <SCORE.INTRA.SOLV.lig_0>
-66.3641

>  <SCORE.INTRA.VDW>
-1.11196

>  <SCORE.INTRA.VDW.0>
0.452231

>  <SCORE.INTRA.norm>
-0.195457

>  <SCORE.RESTR>
0.000580533

>  <SCORE.RESTR.CAVITY>
0.000580533

>  <SCORE.RESTR.norm>
2.52406e-05

>  <SCORE.SYSTEM>
0

>  <SCORE.SYSTEM.CONST>
0

>  <SCORE.SYSTEM.DIHEDRAL>
0

>  <SCORE.SYSTEM.SOLV>
0

>  <SCORE.SYSTEM.norm>
0

>  <SCORE.heavy>
23

>  <SCORE.norm>
-0.923676

>  <RMSD>
1.561

$$$$
ligand
 OpenBabel02271912143D
libRbt.so/2013.1/901 2013/11/27
 23 25  0  0  0  0  0  0  0  0999 V2000
   23.7876    1.1973   28.4322 P   0  0  1  0  0  0  0  0  0  0  0  0
   23.0095    3.6603   28.0042 C   0  0  0  0  0  0  0  0  0  0  0  0
   22.7019    2.3799   28.5377 O   0  0  0  0  0  0  0  0  0  0  0  0
   21.7622    4.5074   28.1183 C   0  0  1  0  0  0  0  0  0  0  0  0
   20.7463    4.0929   27.2056 O   0  0  0  0  0  0  0  0  0  0  0  0
   21.2026    4.3839   29.5255 C   0  0  1  0  0  0  0  0  0  0  0  0
   20.9037    5.7059   30.0060 O   0  0  0  0  0  0  0  0  0  0  0  0
   19.9507    3.5269   29.3858 C   0  0  0  0  0  0  0  0  0  0  0  0
   19.5831    3.6365   27.9084 C   0  0  2  0  0  0  0  0  0  0  0  0
   18.0309    0.9804   23.7770 N   0  0  0  0  0  0  0  0  0  0  0  0
   18.1851    2.3092   23.8960 C   0  0  2  0  0  0  0  0  0  0  0  0
   17.9180    3.0756   22.8130 N   0  0  0  0  0  0  0  0  0  0  0  0
   18.6036    2.8625   25.0598 N   0  0  0  0  0  0  0  0  0  0  0  0
   18.8689    2.0694   26.1182 C   0  0  2  0  0  0  0  0  0  0  0  0
   18.7138    0.7041   26.0131 C   0  0  1  0  0  0  0  0  0  0  0  0
   18.2932    0.1630   24.8130 C   0  0  0  0  0  0  0  0  0  0  0  0
   18.1525   -1.0734   24.6950 O   0  0  0  0  0  0  0  0  0  0  0  0
   19.0333    0.1541   27.2012 N   0  0  0  0  0  0  0  0  0  0  0  0
   19.3865    1.1570   28.0245 C   0  0  0  0  0  0  0  0  0  0  0  0
   19.2725    2.3122   27.3601 N   0  0  1  0  0  0  0  0  0  0  0  0
   24.0033    0.9261   26.9631 O   0  0  0  0  0  0  0  0  0  0  0  0
   24.9983    1.7493   29.1488 O   0  5  0  0  0  0  0  0  0  0  0  0
   23.1146    0.0646   29.1593 O   0  0  0  0  0  0  0  0  0  0  0  0
  1  3  1  1  0  0  0
  1 21  1  0  0  0  0
  1 22  1  0  0  0  0
  1 23  2  0  0  0  0
  2  3  1  0  0  0  0
  4  2  1  1  0  0  0
  4  5  1  0  0  0  0
  4  6  1  0  0  0  0
  6  7  1  6  0  0  0
  6  8  1  0  0  0  0
  8  9  1  0  0  0  0
  9  5  1  6  0  0  0
  9 20  1  0  0  0  0
 10 11  1  0  0  0  0
 10 16  1  0  0  0  0
 11 12  1  6  0  0  0
 11 13  1  0  0  0  0
 14 13  1  1  0  0  0
 14 15  1  0  0  0  0
 14 20  1  0  0  0  0
 15 16  1  6  0  0  0
 15 18  1  0  0  0  0
 16 17  2  0  0  0  0
 18 19  1  0  0  0  0
 20 19  1  6  0  0  0
M  CHG  1  22  -1
M  END
>  <CHROM.1>
-62.98394107,-71.01180613,174.16103271,-66.42307432,20.72669560,2.14854287
27.18175932,-0.48692047,0.56845879,-2.64378450

>  <Name>
ligand

>  <RI>
416

>  <Rbt.Current_Directory>
/home/itssahil/PROJECTS/Mol_Feturizer/Test_systems_manuscript/rnas/3slm

>  <Rbt.Executable>
rbdock ($Id: //depot/dev/client3/rdock/2013.1/src/exe/rbdock.cxx#4 $)

>  <Rbt.Library>
libRbt.so (2013.1, Build901 2013/11/27)

>  <Rbt.Parameter_File>
/export/apps/rDock/src/rDock_2013.1_src/data/scripts/dock_solv.prm

>  <Rbt.Receptor>
prm/pocket_docking_2.prm

>  <SCORE>
-20.1572

>  <SCORE.INTER>
-16.2878

>  <SCORE.INTER.CONST>
1

>  <SCORE.INTER.POLAR>
0

>  <SCORE.INTER.ROT>
4

>  <SCORE.INTER.SOLV>
26.2056

>  <SCORE.INTER.VDW>
-25.8604

>  <SCORE.INTER.norm>
-0.708164

>  <SCORE.INTRA>
-4.52315

>  <SCORE.INTRA.DIHEDRAL>
-6.84566

>  <SCORE.INTRA.DIHEDRAL.0>
8.62657

>  <SCORE.INTRA.POLAR>
0

>  <SCORE.INTRA.POLAR.0>
0

>  <SCORE.INTRA.REPUL>
0

>  <SCORE.INTRA.REPUL.0>
0

>  <SCORE.INTRA.SOLV>
-0.25546

>  <SCORE.INTRA.SOLV.lig_0>
-66.3641

>  <SCORE.INTRA.VDW>
-0.972588

>  <SCORE.INTRA.VDW.0>
0.452231

>  <SCORE.INTRA.norm>
-0.196659

>  <SCORE.RESTR>
0.653746

>  <SCORE.RESTR.CAVITY>
0.653746

>  <SCORE.RESTR.norm>
0.0284237

>  <SCORE.SYSTEM>
0

>  <SCORE.SYSTEM.CONST>
0

>  <SCORE.SYSTEM.DIHEDRAL>
0

>  <SCORE.SYSTEM.SOLV>
0

>  <SCORE.SYSTEM.norm>
0

>  <SCORE.heavy>
23

>  <SCORE.norm>
-0.876399

>  <RMSD>
1.564

$$$$
ligand
 OpenBabel02271912143D
libRbt.so/2013.1/901 2013/11/27
 23 25  0  0  0  0  0  0  0  0999 V2000
   23.1510    2.0907   32.0906 P   0  0  1  0  0  0  0  0  0  0  0  0
   22.5921    2.4558   29.5589 C   0  0  0  0  0  0  0  0  0  0  0  0
   23.0026    3.0292   30.7924 O   0  0  0  0  0  0  0  0  0  0  0  0
   22.4176    3.5878   28.5717 C   0  0  1  0  0  0  0  0  0  0  0  0
   21.9298    3.1303   27.3109 O   0  0  0  0  0  0  0  0  0  0  0  0
   21.4126    4.5830   29.1268 C   0  0  1  0  0  0  0  0  0  0  0  0
   21.9611    5.9039   28.9769 O   0  0  0  0  0  0  0  0  0  0  0  0
   20.1518    4.3868   28.2942 C   0  0  0  0  0  0  0  0  0  0  0  0
   20.6430    3.6943   27.0258 C   0  0  2  0  0  0  0  0  0  0  0  0
   17.7343    1.4701   23.4030 N   0  0  0  0  0  0  0  0  0  0  0  0
   18.4217    2.6209   23.3205 C   0  0  2  0  0  0  0  0  0  0  0  0
   18.3752    3.3021   22.1520 N   0  0  0  0  0  0  0  0  0  0  0  0
   19.1456    3.0790   24.3702 N   0  0  0  0  0  0  0  0  0  0  0  0
   19.1772    2.3715   25.5183 C   0  0  2  0  0  0  0  0  0  0  0  0
   18.4756    1.1897   25.6198 C   0  0  1  0  0  0  0  0  0  0  0  0
   17.7511    0.7394   24.5326 C   0  0  0  0  0  0  0  0  0  0  0  0
   17.1133   -0.3333   24.6020 O   0  0  0  0  0  0  0  0  0  0  0  0
   18.6679    0.6942   26.8583 N   0  0  0  0  0  0  0  0  0  0  0  0
   19.4781    1.5474   27.5094 C   0  0  0  0  0  0  0  0  0  0  0  0
   19.7706    2.5639   26.6909 N   0  0  1  0  0  0  0  0  0  0  0  0
   21.8390    1.3648   32.2626 O   0  0  0  0  0  0  0  0  0  0  0  0
   24.3214    1.1936   31.7596 O   0  5  0  0  0  0  0  0  0  0  0  0
   23.4361    3.0831   33.1853 O   0  0  0  0  0  0  0  0  0  0  0  0
  1  3  1  6  0  0  0
  1 21  1  0  0  0  0
  1 22  1  0  0  0  0
  1 23  2  0  0  0  0
  2  3  1  0  0  0  0
  4  2  1  1  0  0  0
  4  5  1  0  0  0  0
  4  6  1  0  0  0  0
  6  7  1  6  0  0  0
  6  8  1  0  0  0  0
  8  9  1  0  0  0  0
  9  5  1  1  0  0  0
  9 20  1  0  0  0  0
 10 11  1  0  0  0  0
 10 16  1  0  0  0  0
 11 12  1  6  0  0  0
 11 13  1  0  0  0  0
 14 13  1  1  0  0  0
 14 15  1  0  0  0  0
 14 20  1  0  0  0  0
 15 16  1  6  0  0  0
 15 18  1  0  0  0  0
 16 17  2  0  0  0  0
 18 19  1  0  0  0  0
 20 19  1  6  0  0  0
M  CHG  1  22  -1
M  END
>  <CHROM.1>
-53.94176965,-176.65134813,174.73908101,-117.33121455,20.71496829,2.50013949
27.92575271,0.42426178,0.93112964,2.52323391

>  <Name>
ligand

>  <RI>
416

>  <Rbt.Current_Directory>
/home/itssahil/PROJECTS/Mol_Feturizer/Test_systems_manuscript/rnas/3slm

>  <Rbt.Executable>
rbdock ($Id: //depot/dev/client3/rdock/2013.1/src/exe/rbdock.cxx#4 $)

>  <Rbt.Library>
libRbt.so (2013.1, Build901 2013/11/27)

>  <Rbt.Parameter_File>
/export/apps/rDock/src/rDock_2013.1_src/data/scripts/dock_solv.prm

>  <Rbt.Receptor>
prm/pocket_docking_5.prm

>  <SCORE>
-22.712

>  <SCORE.INTER>
-17.29

>  <SCORE.INTER.CONST>
1

>  <SCORE.INTER.POLAR>
0

>  <SCORE.INTER.ROT>
4

>  <SCORE.INTER.SOLV>
32.3758

>  <SCORE.INTER.VDW>
-28.5852

>  <SCORE.INTER.norm>
-0.751737

>  <SCORE.INTRA>
-5.42206

>  <SCORE.INTRA.DIHEDRAL>
-7.18298

>  <SCORE.INTRA.DIHEDRAL.0>
8.62657

>  <SCORE.INTRA.POLAR>
0

>  <SCORE.INTRA.POLAR.0>
0

>  <SCORE.INTRA.REPUL>
0

>  <SCORE.INTRA.REPUL.0>
0

>  <SCORE.INTRA.SOLV>
-0.55179

>  <SCORE.INTRA.SOLV.lig_0>
-66.3641

>  <SCORE.INTRA.VDW>
-1.55467

>  <SCORE.INTRA.VDW.0>
0.452231

>  <SCORE.INTRA.norm>
-0.235742

>  <SCORE.RESTR>
0

>  <SCORE.RESTR.CAVITY>
0

>  <SCORE.RESTR.norm>
0

>  <SCORE.SYSTEM>
0

>  <SCORE.SYSTEM.CONST>
0

>  <SCORE.SYSTEM.DIHEDRAL>
0

>  <SCORE.SYSTEM.SOLV>
0

>  <SCORE.SYSTEM.norm>
0

>  <SCORE.heavy>
23

>  <SCORE.norm>
-0.987479

>  <RMSD>
1.571

$$$$
ligand
 OpenBabel02271912143D
libRbt.so/2013.1/901 2013/11/27
 23 25  0  0  0  0  0  0  0  0999 V2000
   23.0031    1.4753   31.8093 P   0  0  1  0  0  0  0  0  0  0  0  0
   20.7074    2.4261   30.9840 C   0  0  0  0  0  0  0  0  0  0  0  0
   21.5213    1.2841   31.2127 O   0  0  0  0  0  0  0  0  0  0  0  0
   21.3237    3.1963   29.8378 C   0  0  1  0  0  0  0  0  0  0  0  0
   21.3919    2.4182   28.6433 O   0  0  0  0  0  0  0  0  0  0  0  0
   20.4744    4.4222   29.5473 C   0  0  1  0  0  0  0  0  0  0  0  0
   21.3509    5.5563   29.4304 O   0  0  0  0  0  0  0  0  0  0  0  0
   19.7577    4.1130   28.2389 C   0  0  0  0  0  0  0  0  0  0  0  0
   20.5918    3.0019   27.6069 C   0  0  2  0  0  0  0  0  0  0  0  0
   17.8108    1.2377   23.6463 N   0  0  0  0  0  0  0  0  0  0  0  0
   18.5127    2.3803   23.7202 C   0  0  2  0  0  0  0  0  0  0  0  0
   18.5207    3.1880   22.6343 N   0  0  0  0  0  0  0  0  0  0  0  0
   19.1978    2.7081   24.8422 N   0  0  0  0  0  0  0  0  0  0  0  0
   19.1753    1.8768   25.9044 C   0  0  2  0  0  0  0  0  0  0  0  0
   18.4583    0.7014   25.8453 C   0  0  1  0  0  0  0  0  0  0  0  0
   17.7741    0.3856   24.6868 C   0  0  0  0  0  0  0  0  0  0  0  0
   17.1231   -0.6787   24.6107 O   0  0  0  0  0  0  0  0  0  0  0  0
   18.5949    0.0683   27.0272 N   0  0  0  0  0  0  0  0  0  0  0  0
   19.3864    0.8318   27.8011 C   0  0  0  0  0  0  0  0  0  0  0  0
   19.7224    1.9287   27.1136 N   0  0  1  0  0  0  0  0  0  0  0  0
   22.8988    2.4709   32.9390 O   0  0  0  0  0  0  0  0  0  0  0  0
   23.4047    0.0833   32.2399 O   0  5  0  0  0  0  0  0  0  0  0  0
   23.7730    1.9909   30.6237 O   0  0  0  0  0  0  0  0  0  0  0  0
  1  3  1  6  0  0  0
  1 21  1  0  0  0  0
  1 22  1  0  0  0  0
  1 23  2  0  0  0  0
  2  3  1  0  0  0  0
  4  2  1  1  0  0  0
  4  5  1  0  0  0  0
  4  6  1  0  0  0  0
  6  7  1  6  0  0  0
  6  8  1  0  0  0  0
  8  9  1  0  0  0  0
  9  5  1  1  0  0  0
  9 20  1  0  0  0  0
 10 11  1  0  0  0  0
 10 16  1  0  0  0  0
 11 12  1  6  0  0  0
 11 13  1  0  0  0  0
 14 13  1  1  0  0  0
 14 15  1  0  0  0  0
 14 20  1  0  0  0  0
 15 16  1  6  0  0  0
 15 18  1  0  0  0  0
 16 17  2  0  0  0  0
 18 19  1  0  0  0  0
 20 19  1  6  0  0  0
M  CHG  1  22  -1
M  END
>  <CHROM.1>
44.59202768,59.94674818,68.74547937,-155.36326682,20.43357884,2.02178072
28.20664037,0.14981106,1.00990911,2.88189484

>  <Name>
ligand

>  <RI>
0

>  <Rbt.Current_Directory>
/home/itssahil/PROJECTS/Mol_Feturizer/Test_systems_manuscript/rnas/3slm

>  <Rbt.Executable>
rbdock ($Id: //depot/dev/client3/rdock/2013.1/src/exe/rbdock.cxx#4 $)

>  <Rbt.Library>
libRbt.so (2013.1, Build901 2013/11/27)

>  <Rbt.Parameter_File>
/export/apps/rDock/src/rDock_2013.1_src/data/scripts/dock_solv.prm

>  <Rbt.Receptor>
prm/pocket_docking_3.prm

>  <SCORE>
-22.755

>  <SCORE.INTER>
-18.4966

>  <SCORE.INTER.CONST>
1

>  <SCORE.INTER.POLAR>
0

>  <SCORE.INTER.ROT>
4

>  <SCORE.INTER.SOLV>
23.6319

>  <SCORE.INTER.VDW>
-26.475

>  <SCORE.INTER.norm>
-0.804199

>  <SCORE.INTRA>
-4.25841

>  <SCORE.INTRA.DIHEDRAL>
-6.65302

>  <SCORE.INTRA.DIHEDRAL.0>
8.62657

>  <SCORE.INTRA.POLAR>
0

>  <SCORE.INTRA.POLAR.0>
0

>  <SCORE.INTRA.REPUL>
0

>  <SCORE.INTRA.REPUL.0>
0

>  <SCORE.INTRA.SOLV>
1.67387

>  <SCORE.INTRA.SOLV.lig_0>
-66.3641

>  <SCORE.INTRA.VDW>
-1.76884

>  <SCORE.INTRA.VDW.0>
0.452231

>  <SCORE.INTRA.norm>
-0.185148

>  <SCORE.RESTR>
0

>  <SCORE.RESTR.CAVITY>
0

>  <SCORE.RESTR.norm>
0

>  <SCORE.SYSTEM>
0

>  <SCORE.SYSTEM.CONST>
0

>  <SCORE.SYSTEM.DIHEDRAL>
0

>  <SCORE.SYSTEM.SOLV>
0

>  <SCORE.SYSTEM.norm>
0

>  <SCORE.heavy>
23

>  <SCORE.norm>
-0.989347

>  <RMSD>
1.572

$$$$
ligand
 OpenBabel02271912143D
libRbt.so/2013.1/901 2013/11/27
 23 25  0  0  0  0  0  0  0  0999 V2000
   23.1404    1.6384   31.7516 P   0  0  1  0  0  0  0  0  0  0  0  0
   20.8059    2.4949   30.9320 C   0  0  0  0  0  0  0  0  0  0  0  0
   21.6538    1.3847   31.1915 O   0  0  0  0  0  0  0  0  0  0  0  0
   21.3923    3.2447   29.7570 C   0  0  1  0  0  0  0  0  0  0  0  0
   21.3924    2.4597   28.5651 O   0  0  0  0  0  0  0  0  0  0  0  0
   20.5612    4.4894   29.4950 C   0  0  1  0  0  0  0  0  0  0  0  0
   21.4589    5.6015   29.3356 O   0  0  0  0  0  0  0  0  0  0  0  0
   19.7837    4.1915   28.2191 C   0  0  0  0  0  0  0  0  0  0  0  0
   20.5641    3.0577   27.5594 C   0  0  2  0  0  0  0  0  0  0  0  0
   17.6545    1.2930   23.6926 N   0  0  0  0  0  0  0  0  0  0  0  0
   18.3965    2.4119   23.7253 C   0  0  2  0  0  0  0  0  0  0  0  0
   18.4133    3.1914   22.6191 N   0  0  0  0  0  0  0  0  0  0  0  0
   19.1122    2.7436   24.8270 N   0  0  0  0  0  0  0  0  0  0  0  0
   19.0799    1.9404   25.9103 C   0  0  2  0  0  0  0  0  0  0  0  0
   18.3218    0.7897   25.8935 C   0  0  1  0  0  0  0  0  0  0  0  0
   17.6068    0.4691   24.7551 C   0  0  0  0  0  0  0  0  0  0  0  0
   16.9183   -0.5735   24.7173 O   0  0  0  0  0  0  0  0  0  0  0  0
   18.4573    0.1820   27.0887 N   0  0  0  0  0  0  0  0  0  0  0  0
   19.2882    0.9366   27.8294 C   0  0  0  0  0  0  0  0  0  0  0  0
   19.6496    2.0035   27.1085 N   0  0  1  0  0  0  0  0  0  0  0  0
   23.9337    2.2638   30.6301 O   0  0  0  0  0  0  0  0  0  0  0  0
   22.9306    2.5409   32.9457 O   0  5  0  0  0  0  0  0  0  0  0  0
   23.5997    0.2513   32.1110 O   0  0  0  0  0  0  0  0  0  0  0  0
  1  3  1  6  0  0  0
  1 21  1  0  0  0  0
  1 22  1  0  0  0  0
  1 23  2  0  0  0  0
  2  3  1  0  0  0  0
  4  2  1  1  0  0  0
  4  5  1  0  0  0  0
  4  6  1  0  0  0  0
  6  7  1  6  0  0  0
  6  8  1  0  0  0  0
  8  9  1  0  0  0  0
  9  5  1  1  0  0  0
  9 20  1  0  0  0  0
 10 11  1  0  0  0  0
 10 16  1  0  0  0  0
 11 12  1  6  0  0  0
 11 13  1  0  0  0  0
 14 13  1  1  0  0  0
 14 15  1  0  0  0  0
 14 20  1  0  0  0  0
 15 16  1  6  0  0  0
 15 18  1  0  0  0  0
 16 17  2  0  0  0  0
 18 19  1  0  0  0  0
 20 19  1  6  0  0  0
M  CHG  1  22  -1
M  END
>  <CHROM.1>
-69.64965091,63.88066361,67.91011533,-153.45295282,20.43132095,2.11182095
28.19041574,0.18897791,0.97198775,2.81827517

>  <Name>
ligand

>  <RI>
0

>  <Rbt.Current_Directory>
/home/itssahil/PROJECTS/Mol_Feturizer/Test_systems_manuscript/rnas/3slm

>  <Rbt.Executable>
rbdock ($Id: //depot/dev/client3/rdock/2013.1/src/exe/rbdock.cxx#4 $)

>  <Rbt.Library>
libRbt.so (2013.1, Build901 2013/11/27)

>  <Rbt.Parameter_File>
/export/apps/rDock/src/rDock_2013.1_src/data/scripts/dock_solv.prm

>  <Rbt.Receptor>
prm/pocket_docking_3.prm

>  <SCORE>
-21.9293

>  <SCORE.INTER>
-17.0088

>  <SCORE.INTER.CONST>
1

>  <SCORE.INTER.POLAR>
0

>  <SCORE.INTER.ROT>
4

>  <SCORE.INTER.SOLV>
27.4069

>  <SCORE.INTER.VDW>
-26.7415

>  <SCORE.INTER.norm>
-0.739512

>  <SCORE.INTRA>
-4.92056

>  <SCORE.INTRA.DIHEDRAL>
-6.87462

>  <SCORE.INTRA.DIHEDRAL.0>
8.62657

>  <SCORE.INTRA.POLAR>
0

>  <SCORE.INTRA.POLAR.0>
0

>  <SCORE.INTRA.REPUL>
0

>  <SCORE.INTRA.REPUL.0>
0

>  <SCORE.INTRA.SOLV>
0.599438

>  <SCORE.INTRA.SOLV.lig_0>
-66.3641

>  <SCORE.INTRA.VDW>
-1.78297

>  <SCORE.INTRA.VDW.0>
0.452231

>  <SCORE.INTRA.norm>
-0.213937

>  <SCORE.RESTR>
0

>  <SCORE.RESTR.CAVITY>
0

>  <SCORE.RESTR.norm>
0

>  <SCORE.SYSTEM>
0

>  <SCORE.SYSTEM.CONST>
0

>  <SCORE.SYSTEM.DIHEDRAL>
0

>  <SCORE.SYSTEM.SOLV>
0

>  <SCORE.SYSTEM.norm>
0

>  <SCORE.heavy>
23

>  <SCORE.norm>
-0.953449

>  <RMSD>
1.579

$$$$
ligand
 OpenBabel02271912143D
libRbt.so/2013.1/901 2013/11/27
 23 25  0  0  0  0  0  0  0  0999 V2000
   23.0880    1.5988   31.8075 P   0  0  1  0  0  0  0  0  0  0  0  0
   20.7879    2.5230   30.9644 C   0  0  0  0  0  0  0  0  0  0  0  0
   21.6133    1.3906   31.1990 O   0  0  0  0  0  0  0  0  0  0  0  0
   21.3790    3.2768   29.7944 C   0  0  1  0  0  0  0  0  0  0  0  0
   21.4081    2.4867   28.6062 O   0  0  0  0  0  0  0  0  0  0  0  0
   20.5325    4.5072   29.5150 C   0  0  1  0  0  0  0  0  0  0  0  0
   21.4149    5.6325   29.3631 O   0  0  0  0  0  0  0  0  0  0  0  0
   19.7777    4.1916   28.2298 C   0  0  0  0  0  0  0  0  0  0  0  0
   20.5849    3.0673   27.5862 C   0  0  2  0  0  0  0  0  0  0  0  0
   17.6627    1.3016   23.7294 N   0  0  0  0  0  0  0  0  0  0  0  0
   18.3730    2.4405   23.7744 C   0  0  2  0  0  0  0  0  0  0  0  0
   18.3492    3.2432   22.6851 N   0  0  0  0  0  0  0  0  0  0  0  0
   19.0973    2.7692   24.8713 N   0  0  0  0  0  0  0  0  0  0  0  0
   19.1057    1.9428   25.9374 C   0  0  2  0  0  0  0  0  0  0  0  0
   18.3805    0.7714   25.9079 C   0  0  1  0  0  0  0  0  0  0  0  0
   17.6561    0.4544   24.7745 C   0  0  0  0  0  0  0  0  0  0  0  0
   16.9969   -0.6064   24.7252 O   0  0  0  0  0  0  0  0  0  0  0  0
   18.5531    0.1428   27.0875 N   0  0  0  0  0  0  0  0  0  0  0  0
   19.3744    0.9051   27.8308 C   0  0  0  0  0  0  0  0  0  0  0  0
   19.6934    1.9970   27.1274 N   0  0  1  0  0  0  0  0  0  0  0  0
   22.9586    2.5706   32.9551 O   0  0  0  0  0  0  0  0  0  0  0  0
   23.5141    0.2069   32.2140 O   0  5  0  0  0  0  0  0  0  0  0  0
   23.8541    2.1515   30.6362 O   0  0  0  0  0  0  0  0  0  0  0  0
  1  3  1  6  0  0  0
  1 21  1  0  0  0  0
  1 22  1  0  0  0  0
  1 23  2  0  0  0  0
  2  3  1  0  0  0  0
  4  2  1  1  0  0  0
  4  5  1  0  0  0  0
  4  6  1  0  0  0  0
  6  7  1  6  0  0  0
  6  8  1  0  0  0  0
  8  9  1  0  0  0  0
  9  5  1  1  0  0  0
  9 20  1  0  0  0  0
 10 11  1  0  0  0  0
 10 16  1  0  0  0  0
 11 12  1  6  0  0  0
 11 13  1  0  0  0  0
 14 13  1  1  0  0  0
 14 15  1  0  0  0  0
 14 20  1  0  0  0  0
 15 16  1  6  0  0  0
 15 18  1  0  0  0  0
 16 17  2  0  0  0  0
 18 19  1  0  0  0  0
 20 19  1  6  0  0  0
M  CHG  1  22  -1
M  END
>  <CHROM.1>
45.73462170,61.08081458,70.55394702,-155.85456783,20.42852703,2.10762674
28.22075847,0.16188033,0.98256760,2.85738916

>  <Name>
ligand

>  <RI>
0

>  <Rbt.Current_Directory>
/home/itssahil/PROJECTS/Mol_Feturizer/Test_systems_manuscript/rnas/3slm

>  <Rbt.Executable>
rbdock ($Id: //depot/dev/client3/rdock/2013.1/src/exe/rbdock.cxx#4 $)

>  <Rbt.Library>
libRbt.so (2013.1, Build901 2013/11/27)

>  <Rbt.Parameter_File>
/export/apps/rDock/src/rDock_2013.1_src/data/scripts/dock_solv.prm

>  <Rbt.Receptor>
prm/pocket_docking_3.prm

>  <SCORE>
-22.9154

>  <SCORE.INTER>
-18.6852

>  <SCORE.INTER.CONST>
1

>  <SCORE.INTER.POLAR>
0

>  <SCORE.INTER.ROT>
4

>  <SCORE.INTER.SOLV>
24.038

>  <SCORE.INTER.VDW>
-26.7361

>  <SCORE.INTER.norm>
-0.812398

>  <SCORE.INTRA>
-4.23548

>  <SCORE.INTRA.DIHEDRAL>
-6.53301

>  <SCORE.INTRA.DIHEDRAL.0>
8.62657

>  <SCORE.INTRA.POLAR>
0

>  <SCORE.INTRA.POLAR.0>
0

>  <SCORE.INTRA.REPUL>
0

>  <SCORE.INTRA.REPUL.0>
0

>  <SCORE.INTRA.SOLV>
1.59403

>  <SCORE.INTRA.SOLV.lig_0>
-66.3641

>  <SCORE.INTRA.VDW>
-1.76599

>  <SCORE.INTRA.VDW.0>
0.452231

>  <SCORE.INTRA.norm>
-0.184151

>  <SCORE.RESTR>
0.00522145

>  <SCORE.RESTR.CAVITY>
0.00522145

>  <SCORE.RESTR.norm>
0.000227019

>  <SCORE.SYSTEM>
0

>  <SCORE.SYSTEM.CONST>
0

>  <SCORE.SYSTEM.DIHEDRAL>
0

>  <SCORE.SYSTEM.SOLV>
0

>  <SCORE.SYSTEM.norm>
0

>  <SCORE.heavy>
23

>  <SCORE.norm>
-0.996322

>  <RMSD>
1.584

$$$$
ligand
 OpenBabel02271912143D
libRbt.so/2013.1/901 2013/11/27
 23 25  0  0  0  0  0  0  0  0999 V2000
   23.8954    1.5201   28.6772 P   0  0  1  0  0  0  0  0  0  0  0  0
   23.1079    3.9828   28.2644 C   0  0  0  0  0  0  0  0  0  0  0  0
   22.7552    2.6538   28.6222 O   0  0  0  0  0  0  0  0  0  0  0  0
   21.8498    4.8183   28.3382 C   0  0  1  0  0  0  0  0  0  0  0  0
   20.8539    4.3716   27.4186 O   0  0  0  0  0  0  0  0  0  0  0  0
   21.2680    4.7208   29.7385 C   0  0  1  0  0  0  0  0  0  0  0  0
   20.9468    6.0501   30.1832 O   0  0  0  0  0  0  0  0  0  0  0  0
   20.0280    3.8469   29.5979 C   0  0  0  0  0  0  0  0  0  0  0  0
   19.6841    3.9184   28.1125 C   0  0  2  0  0  0  0  0  0  0  0  0
   18.2024    1.1537   24.0268 N   0  0  0  0  0  0  0  0  0  0  0  0
   18.3362    2.4868   24.1189 C   0  0  2  0  0  0  0  0  0  0  0  0
   18.0662    3.2263   23.0181 N   0  0  0  0  0  0  0  0  0  0  0  0
   18.7378    3.0705   25.2738 N   0  0  0  0  0  0  0  0  0  0  0  0
   19.0065    2.3037   26.3506 C   0  0  2  0  0  0  0  0  0  0  0  0
   18.8722    0.9344   26.2731 C   0  0  1  0  0  0  0  0  0  0  0  0
   18.4687    0.3622   25.0816 C   0  0  0  0  0  0  0  0  0  0  0  0
   18.3470   -0.8784   24.9887 O   0  0  0  0  0  0  0  0  0  0  0  0
   19.1907    0.4142   27.4749 N   0  0  0  0  0  0  0  0  0  0  0  0
   19.5229    1.4392   28.2794 C   0  0  0  0  0  0  0  0  0  0  0  0
   19.3971    2.5784   27.5900 N   0  0  1  0  0  0  0  0  0  0  0  0
   25.0224    2.0684   29.5182 O   0  0  0  0  0  0  0  0  0  0  0  0
   23.1923    0.3253   29.2790 O   0  5  0  0  0  0  0  0  0  0  0  0
   24.2583    1.3454   27.2273 O   0  0  0  0  0  0  0  0  0  0  0  0
  1  3  1  1  0  0  0
  1 21  1  0  0  0  0
  1 22  1  0  0  0  0
  1 23  2  0  0  0  0
  2  3  1  0  0  0  0
  4  2  1  1  0  0  0
  4  5  1  0  0  0  0
  4  6  1  0  0  0  0
  6  7  1  6  0  0  0
  6  8  1  0  0  0  0
  8  9  1  0  0  0  0
  9  5  1  6  0  0  0
  9 20  1  0  0  0  0
 10 11  1  0  0  0  0
 10 16  1  0  0  0  0
 11 12  1  6  0  0  0
 11 13  1  0  0  0  0
 14 13  1  1  0  0  0
 14 15  1  0  0  0  0
 14 20  1  0  0  0  0
 15 16  1  6  0  0  0
 15 18  1  0  0  0  0
 16 17  2  0  0  0  0
 18 19  1  0  0  0  0
 20 19  1  6  0  0  0
M  CHG  1  22  -1
M  END
>  <CHROM.1>
50.59423714,-61.95254673,-178.40229999,-67.00330827,20.84611197,2.42160889
27.41151440,-0.51088493,0.56417021,-2.64720722

>  <Name>
ligand

>  <RI>
416

>  <Rbt.Current_Directory>
/home/itssahil/PROJECTS/Mol_Feturizer/Test_systems_manuscript/rnas/3slm

>  <Rbt.Executable>
rbdock ($Id: //depot/dev/client3/rdock/2013.1/src/exe/rbdock.cxx#4 $)

>  <Rbt.Library>
libRbt.so (2013.1, Build901 2013/11/27)

>  <Rbt.Parameter_File>
/export/apps/rDock/src/rDock_2013.1_src/data/scripts/dock_solv.prm

>  <Rbt.Receptor>
prm/pocket_docking_5.prm

>  <SCORE>
-22.3348

>  <SCORE.INTER>
-17.2411

>  <SCORE.INTER.CONST>
1

>  <SCORE.INTER.POLAR>
0

>  <SCORE.INTER.ROT>
4

>  <SCORE.INTER.SOLV>
25.4728

>  <SCORE.INTER.VDW>
-26.2516

>  <SCORE.INTER.norm>
-0.749612

>  <SCORE.INTRA>
-5.09368

>  <SCORE.INTRA.DIHEDRAL>
-7.29561

>  <SCORE.INTRA.DIHEDRAL.0>
8.62657

>  <SCORE.INTRA.POLAR>
0

>  <SCORE.INTRA.POLAR.0>
0

>  <SCORE.INTRA.REPUL>
0

>  <SCORE.INTRA.REPUL.0>
0

>  <SCORE.INTRA.SOLV>
-0.354398

>  <SCORE.INTRA.SOLV.lig_0>
-66.3641

>  <SCORE.INTRA.VDW>
-1.26867

>  <SCORE.INTRA.VDW.0>
0.452231

>  <SCORE.INTRA.norm>
-0.221464

>  <SCORE.RESTR>
0

>  <SCORE.RESTR.CAVITY>
0

>  <SCORE.RESTR.norm>
0

>  <SCORE.SYSTEM>
0

>  <SCORE.SYSTEM.CONST>
0

>  <SCORE.SYSTEM.DIHEDRAL>
0

>  <SCORE.SYSTEM.SOLV>
0

>  <SCORE.SYSTEM.norm>
0

>  <SCORE.heavy>
23

>  <SCORE.norm>
-0.971076

>  <RMSD>
1.585

$$$$
ligand
 OpenBabel02271912143D
libRbt.so/2013.1/901 2013/11/27
 23 25  0  0  0  0  0  0  0  0999 V2000
   23.9289    1.2719   28.3984 P   0  0  1  0  0  0  0  0  0  0  0  0
   23.0086    3.6782   27.9313 C   0  0  0  0  0  0  0  0  0  0  0  0
   22.7212    2.3253   28.2567 O   0  0  0  0  0  0  0  0  0  0  0  0
   21.7428    4.4743   28.1557 C   0  0  1  0  0  0  0  0  0  0  0  0
   20.6888    4.0635   27.2854 O   0  0  0  0  0  0  0  0  0  0  0  0
   21.2723    4.2699   29.5859 C   0  0  1  0  0  0  0  0  0  0  0  0
   20.9587    5.5584   30.1423 O   0  0  0  0  0  0  0  0  0  0  0  0
   20.0434    3.3755   29.4802 C   0  0  0  0  0  0  0  0  0  0  0  0
   19.5853    3.5357   28.0330 C   0  0  2  0  0  0  0  0  0  0  0  0
   18.0711    0.9925   23.8174 N   0  0  0  0  0  0  0  0  0  0  0  0
   18.2150    2.3183   23.9765 C   0  0  2  0  0  0  0  0  0  0  0  0
   17.9472    3.1146   22.9155 N   0  0  0  0  0  0  0  0  0  0  0  0
   18.6243    2.8397   25.1582 N   0  0  0  0  0  0  0  0  0  0  0  0
   18.8905    2.0174   26.1938 C   0  0  2  0  0  0  0  0  0  0  0  0
   18.7459    0.6547   26.0474 C   0  0  1  0  0  0  0  0  0  0  0  0
   18.3347    0.1466   24.8299 C   0  0  0  0  0  0  0  0  0  0  0  0
   18.2036   -1.0867   24.6746 O   0  0  0  0  0  0  0  0  0  0  0  0
   19.0642    0.0719   27.2202 N   0  0  0  0  0  0  0  0  0  0  0  0
   19.4063    1.0525   28.0745 C   0  0  0  0  0  0  0  0  0  0  0  0
   19.2868    2.2260   27.4443 N   0  0  1  0  0  0  0  0  0  0  0  0
   24.7403    1.3575   27.1285 O   0  0  0  0  0  0  0  0  0  0  0  0
   24.6633    1.7245   29.6394 O   0  5  0  0  0  0  0  0  0  0  0  0
   23.2073   -0.0384   28.5627 O   0  0  0  0  0  0  0  0  0  0  0  0
  1  3  1  6  0  0  0
  1 21  1  0  0  0  0
  1 22  1  0  0  0  0
  1 23  2  0  0  0  0
  2  3  1  0  0  0  0
  4  2  1  6  0  0  0
  4  5  1  0  0  0  0
  4  6  1  0  0  0  0
  6  7  1  6  0  0  0
  6  8  1  0  0  0  0
  8  9  1  0  0  0  0
  9  5  1  6  0  0  0
  9 20  1  0  0  0  0
 10 11  1  0  0  0  0
 10 16  1  0  0  0  0
 11 12  1  6  0  0  0
 11 13  1  0  0  0  0
 14 13  1  1  0  0  0
 14 15  1  0  0  0  0
 14 20  1  0  0  0  0
 15 16  1  6  0  0  0
 15 18  1  0  0  0  0
 16 17  2  0  0  0  0
 18 19  1  0  0  0  0
 20 19  1  6  0  0  0
M  CHG  1  22  -1
M  END
>  <CHROM.1>
-53.16513332,-63.41184320,-168.18013516,-62.38397045,20.78250363,2.12981176
27.21013223,-0.50421047,0.53004782,-2.60252322

>  <Name>
ligand

>  <RI>
0

>  <Rbt.Current_Directory>
/home/itssahil/PROJECTS/Mol_Feturizer/Test_systems_manuscript/rnas/3slm

>  <Rbt.Executable>
rbdock ($Id: //depot/dev/client3/rdock/2013.1/src/exe/rbdock.cxx#4 $)

>  <Rbt.Library>
libRbt.so (2013.1, Build901 2013/11/27)

>  <Rbt.Parameter_File>
/export/apps/rDock/src/rDock_2013.1_src/data/scripts/dock_solv.prm

>  <Rbt.Receptor>
prm/pocket_docking_3.prm

>  <SCORE>
-21.5039

>  <SCORE.INTER>
-16.9389

>  <SCORE.INTER.CONST>
1

>  <SCORE.INTER.POLAR>
0

>  <SCORE.INTER.ROT>
4

>  <SCORE.INTER.SOLV>
26.1829

>  <SCORE.INTER.VDW>
-26.2869

>  <SCORE.INTER.norm>
-0.736473

>  <SCORE.INTRA>
-4.56497

>  <SCORE.INTRA.DIHEDRAL>
-6.63817

>  <SCORE.INTRA.DIHEDRAL.0>
8.62657

>  <SCORE.INTRA.POLAR>
0

>  <SCORE.INTRA.POLAR.0>
0

>  <SCORE.INTRA.REPUL>
0

>  <SCORE.INTRA.REPUL.0>
0

>  <SCORE.INTRA.SOLV>
-0.0559541

>  <SCORE.INTRA.SOLV.lig_0>
-66.3641

>  <SCORE.INTRA.VDW>
-1.21791

>  <SCORE.INTRA.VDW.0>
0.452231

>  <SCORE.INTRA.norm>
-0.198477

>  <SCORE.RESTR>
0

>  <SCORE.RESTR.CAVITY>
0

>  <SCORE.RESTR.norm>
0

>  <SCORE.SYSTEM>
0

>  <SCORE.SYSTEM.CONST>
0

>  <SCORE.SYSTEM.DIHEDRAL>
0

>  <SCORE.SYSTEM.SOLV>
0

>  <SCORE.SYSTEM.norm>
0

>  <SCORE.heavy>
23

>  <SCORE.norm>
-0.93495

>  <RMSD>
1.605

$$$$
ligand
 OpenBabel02271912143D
libRbt.so/2013.1/901 2013/11/27
 23 25  0  0  0  0  0  0  0  0999 V2000
   23.9261    1.2543   28.3965 P   0  0  1  0  0  0  0  0  0  0  0  0
   23.0234    3.6813   28.0091 C   0  0  0  0  0  0  0  0  0  0  0  0
   22.7265    2.3214   28.2942 O   0  0  0  0  0  0  0  0  0  0  0  0
   21.7519    4.4731   28.2161 C   0  0  1  0  0  0  0  0  0  0  0  0
   20.7125    4.0611   27.3291 O   0  0  0  0  0  0  0  0  0  0  0  0
   21.2604    4.2641   29.6385 C   0  0  1  0  0  0  0  0  0  0  0  0
   20.9345    5.5503   30.1930 O   0  0  0  0  0  0  0  0  0  0  0  0
   20.0361    3.3662   29.5123 C   0  0  0  0  0  0  0  0  0  0  0  0
   19.5994    3.5282   28.0587 C   0  0  2  0  0  0  0  0  0  0  0  0
   18.1096    0.9940   23.8290 N   0  0  0  0  0  0  0  0  0  0  0  0
   18.2403    2.3203   23.9956 C   0  0  2  0  0  0  0  0  0  0  0  0
   17.9643    3.1198   22.9392 N   0  0  0  0  0  0  0  0  0  0  0  0
   18.6446    2.8391   25.1802 N   0  0  0  0  0  0  0  0  0  0  0  0
   18.9194    2.0135   26.2110 C   0  0  2  0  0  0  0  0  0  0  0  0
   18.7883    0.6504   26.0569 C   0  0  1  0  0  0  0  0  0  0  0  0
   18.3819    0.1451   24.8366 C   0  0  0  0  0  0  0  0  0  0  0  0
   18.2631   -1.0886   24.6743 O   0  0  0  0  0  0  0  0  0  0  0  0
   19.1127    0.0642   27.2263 N   0  0  0  0  0  0  0  0  0  0  0  0
   19.4452    1.0432   28.0861 C   0  0  0  0  0  0  0  0  0  0  0  0
   19.3139    2.2190   27.4626 N   0  0  1  0  0  0  0  0  0  0  0  0
   24.7304    1.3713   27.1247 O   0  0  0  0  0  0  0  0  0  0  0  0
   24.6718    1.6634   29.6458 O   0  5  0  0  0  0  0  0  0  0  0  0
   23.1946   -0.0543   28.5261 O   0  0  0  0  0  0  0  0  0  0  0  0
  1  3  1  6  0  0  0
  1 21  1  0  0  0  0
  1 22  1  0  0  0  0
  1 23  2  0  0  0  0
  2  3  1  0  0  0  0
  4  2  1  6  0  0  0
  4  5  1  0  0  0  0
  4  6  1  0  0  0  0
  6  7  1  6  0  0  0
  6  8  1  0  0  0  0
  8  9  1  0  0  0  0
  9  5  1  6  0  0  0
  9 20  1  0  0  0  0
 10 11  1  0  0  0  0
 10 16  1  0  0  0  0
 11 12  1  6  0  0  0
 11 13  1  0  0  0  0
 14 13  1  1  0  0  0
 14 15  1  0  0  0  0
 14 20  1  0  0  0  0
 15 16  1  6  0  0  0
 15 18  1  0  0  0  0
 16 17  2  0  0  0  0
 18 19  1  0  0  0  0
 20 19  1  6  0  0  0
M  CHG  1  22  -1
M  END
>  <CHROM.1>
-53.23944340,-61.95154797,-170.21481253,-63.36934451,20.79804053,2.12271062
27.23001991,-0.51571209,0.52973037,-2.58838294

>  <Name>
ligand

>  <RI>
0

>  <Rbt.Current_Directory>
/home/itssahil/PROJECTS/Mol_Feturizer/Test_systems_manuscript/rnas/3slm

>  <Rbt.Executable>
rbdock ($Id: //depot/dev/client3/rdock/2013.1/src/exe/rbdock.cxx#4 $)

>  <Rbt.Library>
libRbt.so (2013.1, Build901 2013/11/27)

>  <Rbt.Parameter_File>
/export/apps/rDock/src/rDock_2013.1_src/data/scripts/dock_solv.prm

>  <Rbt.Receptor>
prm/pocket_docking_3.prm

>  <SCORE>
-21.4524

>  <SCORE.INTER>
-16.6815

>  <SCORE.INTER.CONST>
1

>  <SCORE.INTER.POLAR>
0

>  <SCORE.INTER.ROT>
4

>  <SCORE.INTER.SOLV>
26.1923

>  <SCORE.INTER.VDW>
-26.1184

>  <SCORE.INTER.norm>
-0.725282

>  <SCORE.INTRA>
-4.77096

>  <SCORE.INTRA.DIHEDRAL>
-6.87629

>  <SCORE.INTRA.DIHEDRAL.0>
8.62657

>  <SCORE.INTRA.POLAR>
0

>  <SCORE.INTRA.POLAR.0>
0

>  <SCORE.INTRA.REPUL>
0

>  <SCORE.INTRA.REPUL.0>
0

>  <SCORE.INTRA.SOLV>
-0.0903436

>  <SCORE.INTRA.SOLV.lig_0>
-66.3641

>  <SCORE.INTRA.VDW>
-1.28764

>  <SCORE.INTRA.VDW.0>
0.452231

>  <SCORE.INTRA.norm>
-0.207433

>  <SCORE.RESTR>
0

>  <SCORE.RESTR.CAVITY>
0

>  <SCORE.RESTR.norm>
0

>  <SCORE.SYSTEM>
0

>  <SCORE.SYSTEM.CONST>
0

>  <SCORE.SYSTEM.DIHEDRAL>
0

>  <SCORE.SYSTEM.SOLV>
0

>  <SCORE.SYSTEM.norm>
0

>  <SCORE.heavy>
23

>  <SCORE.norm>
-0.932715

>  <RMSD>
1.613

$$$$
ligand
 OpenBabel02271912143D
libRbt.so/2013.1/901 2013/11/27
 23 25  0  0  0  0  0  0  0  0999 V2000
   23.8739    1.5727   28.6713 P   0  0  1  0  0  0  0  0  0  0  0  0
   23.0824    4.0397   28.2937 C   0  0  0  0  0  0  0  0  0  0  0  0
   22.7324    2.7059   28.6359 O   0  0  0  0  0  0  0  0  0  0  0  0
   21.8170    4.8658   28.3487 C   0  0  1  0  0  0  0  0  0  0  0  0
   20.8345    4.4052   27.4217 O   0  0  0  0  0  0  0  0  0  0  0  0
   21.2213    4.7730   29.7434 C   0  0  1  0  0  0  0  0  0  0  0  0
   20.8851    6.1027   30.1758 O   0  0  0  0  0  0  0  0  0  0  0  0
   19.9896    3.8885   29.5957 C   0  0  0  0  0  0  0  0  0  0  0  0
   19.6610    3.9474   28.1063 C   0  0  2  0  0  0  0  0  0  0  0  0
   18.2250    1.1458   24.0294 N   0  0  0  0  0  0  0  0  0  0  0  0
   18.3447    2.4808   24.1148 C   0  0  2  0  0  0  0  0  0  0  0  0
   18.0719    3.2115   23.0089 N   0  0  0  0  0  0  0  0  0  0  0  0
   18.7354    3.0747   25.2683 N   0  0  0  0  0  0  0  0  0  0  0  0
   19.0074    2.3165   26.3503 C   0  0  2  0  0  0  0  0  0  0  0  0
   18.8875    0.9454   26.2796 C   0  0  1  0  0  0  0  0  0  0  0  0
   18.4950    0.3627   25.0895 C   0  0  0  0  0  0  0  0  0  0  0  0
   18.3864   -0.8795   25.0028 O   0  0  0  0  0  0  0  0  0  0  0  0
   19.2062    0.4349   27.4854 N   0  0  0  0  0  0  0  0  0  0  0  0
   19.5244    1.4676   28.2858 C   0  0  0  0  0  0  0  0  0  0  0  0
   19.3899    2.6018   27.5898 N   0  0  1  0  0  0  0  0  0  0  0  0
   24.9959    2.1033   29.5302 O   0  0  0  0  0  0  0  0  0  0  0  0
   23.1693    0.3638   29.2425 O   0  5  0  0  0  0  0  0  0  0  0  0
   24.2444    1.4310   27.2197 O   0  0  0  0  0  0  0  0  0  0  0  0
  1  3  1  1  0  0  0
  1 21  1  0  0  0  0
  1 22  1  0  0  0  0
  1 23  2  0  0  0  0
  2  3  1  0  0  0  0
  4  2  1  1  0  0  0
  4  5  1  0  0  0  0
  4  6  1  0  0  0  0
  6  7  1  6  0  0  0
  6  8  1  0  0  0  0
  8  9  1  0  0  0  0
  9  5  1  6  0  0  0
  9 20  1  0  0  0  0
 10 11  1  0  0  0  0
 10 16  1  0  0  0  0
 11 12  1  6  0  0  0
 11 13  1  0  0  0  0
 14 13  1  1  0  0  0
 14 15  1  0  0  0  0
 14 20  1  0  0  0  0
 15 16  1  6  0  0  0
 15 18  1  0  0  0  0
 16 17  2  0  0  0  0
 18 19  1  0  0  0  0
 20 19  1  6  0  0  0
M  CHG  1  22  -1
M  END
>  <CHROM.1>
51.37255236,-61.04213654,-179.85391180,-67.39951924,20.83482204,2.45202246
27.41255138,-0.52772451,0.56180164,-2.64115098

>  <Name>
ligand

>  <RI>
416

>  <Rbt.Current_Directory>
/home/itssahil/PROJECTS/Mol_Feturizer/Test_systems_manuscript/rnas/3slm

>  <Rbt.Executable>
rbdock ($Id: //depot/dev/client3/rdock/2013.1/src/exe/rbdock.cxx#4 $)

>  <Rbt.Library>
libRbt.so (2013.1, Build901 2013/11/27)

>  <Rbt.Parameter_File>
/export/apps/rDock/src/rDock_2013.1_src/data/scripts/dock_solv.prm

>  <Rbt.Receptor>
prm/pocket_docking_6.prm

>  <SCORE>
-22.3488

>  <SCORE.INTER>
-17.2015

>  <SCORE.INTER.CONST>
1

>  <SCORE.INTER.POLAR>
0

>  <SCORE.INTER.ROT>
4

>  <SCORE.INTER.SOLV>
25.4635

>  <SCORE.INTER.VDW>
-26.2221

>  <SCORE.INTER.norm>
-0.74789

>  <SCORE.INTRA>
-5.14734

>  <SCORE.INTRA.DIHEDRAL>
-7.3399

>  <SCORE.INTRA.DIHEDRAL.0>
8.62657

>  <SCORE.INTRA.POLAR>
0

>  <SCORE.INTRA.POLAR.0>
0

>  <SCORE.INTRA.REPUL>
0

>  <SCORE.INTRA.REPUL.0>
0

>  <SCORE.INTRA.SOLV>
-0.343223

>  <SCORE.INTRA.SOLV.lig_0>
-66.3641

>  <SCORE.INTRA.VDW>
-1.30578

>  <SCORE.INTRA.VDW.0>
0.452231

>  <SCORE.INTRA.norm>
-0.223798

>  <SCORE.RESTR>
0

>  <SCORE.RESTR.CAVITY>
0

>  <SCORE.RESTR.norm>
0

>  <SCORE.SYSTEM>
0

>  <SCORE.SYSTEM.CONST>
0

>  <SCORE.SYSTEM.DIHEDRAL>
0

>  <SCORE.SYSTEM.SOLV>
0

>  <SCORE.SYSTEM.norm>
0

>  <SCORE.heavy>
23

>  <SCORE.norm>
-0.971687

>  <RMSD>
1.616

$$$$
ligand
 OpenBabel02271912143D
libRbt.so/2013.1/901 2013/11/27
 23 25  0  0  0  0  0  0  0  0999 V2000
   24.1601    1.0321   27.9749 P   0  0  1  0  0  0  0  0  0  0  0  0
   22.8502    2.7030   29.5071 C   0  0  0  0  0  0  0  0  0  0  0  0
   24.1088    2.2053   29.0746 O   0  0  0  0  0  0  0  0  0  0  0  0
   22.4734    3.8393   28.5833 C   0  0  1  0  0  0  0  0  0  0  0  0
   21.9384    3.3705   27.3460 O   0  0  0  0  0  0  0  0  0  0  0  0
   21.4134    4.6966   29.2541 C   0  0  1  0  0  0  0  0  0  0  0  0
   21.7998    6.0750   29.1168 O   0  0  0  0  0  0  0  0  0  0  0  0
   20.1187    4.3865   28.5134 C   0  0  0  0  0  0  0  0  0  0  0  0
   20.5787    3.7949   27.1838 C   0  0  2  0  0  0  0  0  0  0  0  0
   17.7402    1.3276   23.6642 N   0  0  0  0  0  0  0  0  0  0  0  0
   18.3012    2.5442   23.5693 C   0  0  2  0  0  0  0  0  0  0  0  0
   18.1283    3.2314   22.4164 N   0  0  0  0  0  0  0  0  0  0  0  0
   19.0247    3.0614   24.5915 N   0  0  0  0  0  0  0  0  0  0  0  0
   19.1844    2.3468   25.7244 C   0  0  2  0  0  0  0  0  0  0  0  0
   18.6134    1.0977   25.8383 C   0  0  1  0  0  0  0  0  0  0  0  0
   17.8867    0.5887   24.7788 C   0  0  0  0  0  0  0  0  0  0  0  0
   17.3662   -0.5449   24.8597 O   0  0  0  0  0  0  0  0  0  0  0  0
   18.9156    0.6093   27.0575 N   0  0  0  0  0  0  0  0  0  0  0  0
   19.6648    1.5334   27.6845 C   0  0  0  0  0  0  0  0  0  0  0  0
   19.8115    2.5848   26.8709 N   0  0  1  0  0  0  0  0  0  0  0  0
   25.5808    0.5239   27.9379 O   0  0  0  0  0  0  0  0  0  0  0  0
   23.1497    0.0235   28.4710 O   0  5  0  0  0  0  0  0  0  0  0  0
   23.7430    1.7413   26.7149 O   0  0  0  0  0  0  0  0  0  0  0  0
  1  3  1  1  0  0  0
  1 21  1  0  0  0  0
  1 22  1  0  0  0  0
  1 23  2  0  0  0  0
  2  3  1  0  0  0  0
  4  2  1  1  0  0  0
  4  5  1  0  0  0  0
  4  6  1  0  0  0  0
  6  7  1  6  0  0  0
  6  8  1  0  0  0  0
  8  9  1  0  0  0  0
  9  5  1  1  0  0  0
  9 20  1  0  0  0  0
 10 11  1  0  0  0  0
 10 16  1  0  0  0  0
 11 12  1  6  0  0  0
 11 13  1  0  0  0  0
 14 13  1  1  0  0  0
 14 15  1  0  0  0  0
 14 20  1  0  0  0  0
 15 16  1  6  0  0  0
 15 18  1  0  0  0  0
 16 17  2  0  0  0  0
 18 19  1  0  0  0  0
 20 19  1  6  0  0  0
M  CHG  1  22  -1
M  END
>  <CHROM.1>
-168.31853237,79.64318966,-89.43723386,-115.11073080,21.01711289,2.21990302
26.93144215,-0.33739211,0.55854796,-2.70420394

>  <Name>
ligand

>  <RI>
0

>  <Rbt.Current_Directory>
/home/itssahil/PROJECTS/Mol_Feturizer/Test_systems_manuscript/rnas/3slm

>  <Rbt.Executable>
rbdock ($Id: //depot/dev/client3/rdock/2013.1/src/exe/rbdock.cxx#4 $)

>  <Rbt.Library>
libRbt.so (2013.1, Build901 2013/11/27)

>  <Rbt.Parameter_File>
/export/apps/rDock/src/rDock_2013.1_src/data/scripts/dock_solv.prm

>  <Rbt.Receptor>
prm/pocket_docking_3.prm

>  <SCORE>
-18.9163

>  <SCORE.INTER>
-17.3163

>  <SCORE.INTER.CONST>
1

>  <SCORE.INTER.POLAR>
0

>  <SCORE.INTER.ROT>
4

>  <SCORE.INTER.SOLV>
27.6011

>  <SCORE.INTER.VDW>
-27.0112

>  <SCORE.INTER.norm>
-0.752883

>  <SCORE.INTRA>
-1.59997

>  <SCORE.INTRA.DIHEDRAL>
-2.42609

>  <SCORE.INTRA.DIHEDRAL.0>
8.62657

>  <SCORE.INTRA.POLAR>
0

>  <SCORE.INTRA.POLAR.0>
0

>  <SCORE.INTRA.REPUL>
0

>  <SCORE.INTRA.REPUL.0>
0

>  <SCORE.INTRA.SOLV>
3.28418

>  <SCORE.INTRA.SOLV.lig_0>
-66.3641

>  <SCORE.INTRA.VDW>
-2.02901

>  <SCORE.INTRA.VDW.0>
0.452231

>  <SCORE.INTRA.norm>
-0.0695639

>  <SCORE.RESTR>
0

>  <SCORE.RESTR.CAVITY>
0

>  <SCORE.RESTR.norm>
0

>  <SCORE.SYSTEM>
0

>  <SCORE.SYSTEM.CONST>
0

>  <SCORE.SYSTEM.DIHEDRAL>
0

>  <SCORE.SYSTEM.SOLV>
0

>  <SCORE.SYSTEM.norm>
0

>  <SCORE.heavy>
23

>  <SCORE.norm>
-0.822447

>  <RMSD>
1.619

$$$$
ligand
 OpenBabel02271912143D
libRbt.so/2013.1/901 2013/11/27
 23 25  0  0  0  0  0  0  0  0999 V2000
   23.2739    2.3871   31.9581 P   0  0  1  0  0  0  0  0  0  0  0  0
   21.3159    1.8360   30.3095 C   0  0  0  0  0  0  0  0  0  0  0  0
   21.7184    2.4046   31.5479 O   0  0  0  0  0  0  0  0  0  0  0  0
   21.6239    2.8472   29.2282 C   0  0  1  0  0  0  0  0  0  0  0  0
   21.4580    2.3016   27.9199 O   0  0  0  0  0  0  0  0  0  0  0  0
   20.6764    4.0271   29.3645 C   0  0  1  0  0  0  0  0  0  0  0  0
   21.4519    5.2355   29.2842 O   0  0  0  0  0  0  0  0  0  0  0  0
   19.6994    3.8934   28.2031 C   0  0  0  0  0  0  0  0  0  0  0  0
   20.4202    2.9880   27.2079 C   0  0  2  0  0  0  0  0  0  0  0  0
   17.4961    1.3835   23.2826 N   0  0  0  0  0  0  0  0  0  0  0  0
   18.2279    2.5067   23.3637 C   0  0  2  0  0  0  0  0  0  0  0  0
   18.2285    3.3386   22.2963 N   0  0  0  0  0  0  0  0  0  0  0  0
   18.9493    2.7918   24.4746 N   0  0  0  0  0  0  0  0  0  0  0  0
   18.9332    1.9371   25.5181 C   0  0  2  0  0  0  0  0  0  0  0  0
   18.1858    0.7812   25.4515 C   0  0  1  0  0  0  0  0  0  0  0  0
   17.4647    0.5089   24.3045 C   0  0  0  0  0  0  0  0  0  0  0  0
   16.7856   -0.5372   24.2216 O   0  0  0  0  0  0  0  0  0  0  0  0
   18.3366    0.1180   26.6150 N   0  0  0  0  0  0  0  0  0  0  0  0
   19.1663    0.8440   27.3849 C   0  0  0  0  0  0  0  0  0  0  0  0
   19.5120    1.9479   26.7136 N   0  0  1  0  0  0  0  0  0  0  0  0
   24.0283    3.0932   30.8579 O   0  0  0  0  0  0  0  0  0  0  0  0
   23.3068    3.0972   33.2919 O   0  5  0  0  0  0  0  0  0  0  0  0
   23.5766    0.9157   32.0450 O   0  0  0  0  0  0  0  0  0  0  0  0
  1  3  1  6  0  0  0
  1 21  1  0  0  0  0
  1 22  1  0  0  0  0
  1 23  2  0  0  0  0
  2  3  1  0  0  0  0
  4  2  1  1  0  0  0
  4  5  1  0  0  0  0
  4  6  1  0  0  0  0
  6  7  1  6  0  0  0
  6  8  1  0  0  0  0
  8  9  1  0  0  0  0
  9  5  1  1  0  0  0
  9 20  1  0  0  0  0
 10 11  1  0  0  0  0
 10 16  1  0  0  0  0
 11 12  1  6  0  0  0
 11 13  1  0  0  0  0
 14 13  1  1  0  0  0
 14 15  1  0  0  0  0
 14 20  1  0  0  0  0
 15 16  1  6  0  0  0
 15 18  1  0  0  0  0
 16 17  2  0  0  0  0
 18 19  1  0  0  0  0
 20 19  1  6  0  0  0
M  CHG  1  22  -1
M  END
>  <CHROM.1>
57.26515661,170.68518131,-79.33076373,-139.81943292,20.43267600,2.23433043
27.97450636,0.29259071,0.95809589,2.63121623

>  <Name>
ligand

>  <RI>
416

>  <Rbt.Current_Directory>
/home/itssahil/PROJECTS/Mol_Feturizer/Test_systems_manuscript/rnas/3slm

>  <Rbt.Executable>
rbdock ($Id: //depot/dev/client3/rdock/2013.1/src/exe/rbdock.cxx#4 $)

>  <Rbt.Library>
libRbt.so (2013.1, Build901 2013/11/27)

>  <Rbt.Parameter_File>
/export/apps/rDock/src/rDock_2013.1_src/data/scripts/dock_solv.prm

>  <Rbt.Receptor>
prm/pocket_docking_5.prm

>  <SCORE>
-21.7543

>  <SCORE.INTER>
-17.2516

>  <SCORE.INTER.CONST>
1

>  <SCORE.INTER.POLAR>
0

>  <SCORE.INTER.ROT>
4

>  <SCORE.INTER.SOLV>
30.1922

>  <SCORE.INTER.VDW>
-27.8318

>  <SCORE.INTER.norm>
-0.75007

>  <SCORE.INTRA>
-4.50267

>  <SCORE.INTRA.DIHEDRAL>
-5.36745

>  <SCORE.INTRA.DIHEDRAL.0>
8.62657

>  <SCORE.INTRA.POLAR>
0

>  <SCORE.INTRA.POLAR.0>
0

>  <SCORE.INTRA.REPUL>
0

>  <SCORE.INTRA.REPUL.0>
0

>  <SCORE.INTRA.SOLV>
0.304435

>  <SCORE.INTRA.SOLV.lig_0>
-66.3641

>  <SCORE.INTRA.VDW>
-1.97116

>  <SCORE.INTRA.VDW.0>
0.452231

>  <SCORE.INTRA.norm>
-0.195768

>  <SCORE.RESTR>
0

>  <SCORE.RESTR.CAVITY>
0

>  <SCORE.RESTR.norm>
0

>  <SCORE.SYSTEM>
0

>  <SCORE.SYSTEM.CONST>
0

>  <SCORE.SYSTEM.DIHEDRAL>
0

>  <SCORE.SYSTEM.SOLV>
0

>  <SCORE.SYSTEM.norm>
0

>  <SCORE.heavy>
23

>  <SCORE.norm>
-0.945838

>  <RMSD>
1.627

$$$$
ligand
 OpenBabel02271912143D
libRbt.so/2013.1/901 2013/11/27
 23 25  0  0  0  0  0  0  0  0999 V2000
   23.4134    2.1892   31.7052 P   0  0  1  0  0  0  0  0  0  0  0  0
   20.9951    2.5867   30.7835 C   0  0  0  0  0  0  0  0  0  0  0  0
   22.0307    1.6590   31.0764 O   0  0  0  0  0  0  0  0  0  0  0  0
   21.4449    3.4026   29.5925 C   0  0  1  0  0  0  0  0  0  0  0  0
   21.4335    2.6416   28.3852 O   0  0  0  0  0  0  0  0  0  0  0  0
   20.5018    4.5798   29.4099 C   0  0  1  0  0  0  0  0  0  0  0  0
   21.2955    5.7642   29.2216 O   0  0  0  0  0  0  0  0  0  0  0  0
   19.6725    4.2423   28.1773 C   0  0  0  0  0  0  0  0  0  0  0  0
   20.4987    3.1879   27.4455 C   0  0  2  0  0  0  0  0  0  0  0  0
   17.6715    1.1621   23.6461 N   0  0  0  0  0  0  0  0  0  0  0  0
   18.3457    2.3236   23.6465 C   0  0  2  0  0  0  0  0  0  0  0  0
   18.3080    3.0762   22.5223 N   0  0  0  0  0  0  0  0  0  0  0  0
   19.0484    2.7232   24.7338 N   0  0  0  0  0  0  0  0  0  0  0  0
   19.0718    1.9455   25.8358 C   0  0  2  0  0  0  0  0  0  0  0  0
   18.3835    0.7517   25.8523 C   0  0  1  0  0  0  0  0  0  0  0  0
   17.6807    0.3622   24.7279 C   0  0  0  0  0  0  0  0  0  0  0  0
   17.0553   -0.7200   24.7203 O   0  0  0  0  0  0  0  0  0  0  0  0
   18.5637    0.1817   27.0602 N   0  0  0  0  0  0  0  0  0  0  0  0
   19.3535    1.0016   27.7759 C   0  0  0  0  0  0  0  0  0  0  0  0
   19.6454    2.0708   27.0272 N   0  0  1  0  0  0  0  0  0  0  0  0
   24.0464    3.0956   30.6776 O   0  0  0  0  0  0  0  0  0  0  0  0
   22.9909    2.8878   32.9771 O   0  5  0  0  0  0  0  0  0  0  0  0
   24.1811    0.9159   31.9370 O   0  0  0  0  0  0  0  0  0  0  0  0
  1  3  1  6  0  0  0
  1 21  1  0  0  0  0
  1 22  1  0  0  0  0
  1 23  2  0  0  0  0
  2  3  1  0  0  0  0
  4  2  1  1  0  0  0
  4  5  1  0  0  0  0
  4  6  1  0  0  0  0
  6  7  1  6  0  0  0
  6  8  1  0  0  0  0
  8  9  1  0  0  0  0
  9  5  1  1  0  0  0
  9 20  1  0  0  0  0
 10 11  1  0  0  0  0
 10 16  1  0  0  0  0
 11 12  1  6  0  0  0
 11 13  1  0  0  0  0
 14 13  1  1  0  0  0
 14 15  1  0  0  0  0
 14 20  1  0  0  0  0
 15 16  1  6  0  0  0
 15 18  1  0  0  0  0
 16 17  2  0  0  0  0
 18 19  1  0  0  0  0
 20 19  1  6  0  0  0
M  CHG  1  22  -1
M  END
>  <CHROM.1>
-63.57894122,71.54126778,70.88687858,-149.28908278,20.51348439,2.27728527
28.11689082,0.07414589,0.96347381,2.87743775

>  <Name>
ligand

>  <RI>
0

>  <Rbt.Current_Directory>
/home/itssahil/PROJECTS/Mol_Feturizer/Test_systems_manuscript/rnas/3slm

>  <Rbt.Executable>
rbdock ($Id: //depot/dev/client3/rdock/2013.1/src/exe/rbdock.cxx#4 $)

>  <Rbt.Library>
libRbt.so (2013.1, Build901 2013/11/27)

>  <Rbt.Parameter_File>
/export/apps/rDock/src/rDock_2013.1_src/data/scripts/dock_solv.prm

>  <Rbt.Receptor>
prm/pocket_docking_8.prm

>  <SCORE>
-22.4716

>  <SCORE.INTER>
-17.6799

>  <SCORE.INTER.CONST>
1

>  <SCORE.INTER.POLAR>
0

>  <SCORE.INTER.ROT>
4

>  <SCORE.INTER.SOLV>
28.5499

>  <SCORE.INTER.VDW>
-27.5699

>  <SCORE.INTER.norm>
-0.768693

>  <SCORE.INTRA>
-4.79164

>  <SCORE.INTRA.DIHEDRAL>
-6.31272

>  <SCORE.INTRA.DIHEDRAL.0>
8.62657

>  <SCORE.INTRA.POLAR>
0

>  <SCORE.INTRA.POLAR.0>
0

>  <SCORE.INTRA.REPUL>
0

>  <SCORE.INTRA.REPUL.0>
0

>  <SCORE.INTRA.SOLV>
0.418695

>  <SCORE.INTRA.SOLV.lig_0>
-66.3641

>  <SCORE.INTRA.VDW>
-1.84463

>  <SCORE.INTRA.VDW.0>
0.452231

>  <SCORE.INTRA.norm>
-0.208332

>  <SCORE.RESTR>
0

>  <SCORE.RESTR.CAVITY>
0

>  <SCORE.RESTR.norm>
0

>  <SCORE.SYSTEM>
0

>  <SCORE.SYSTEM.CONST>
0

>  <SCORE.SYSTEM.DIHEDRAL>
0

>  <SCORE.SYSTEM.SOLV>
0

>  <SCORE.SYSTEM.norm>
0

>  <SCORE.heavy>
23

>  <SCORE.norm>
-0.977025

>  <RMSD>
1.627

$$$$
ligand
 OpenBabel02271912143D
libRbt.so/2013.1/901 2013/11/27
 23 25  0  0  0  0  0  0  0  0999 V2000
   23.3354    2.0987   31.8008 P   0  0  1  0  0  0  0  0  0  0  0  0
   20.9395    2.5996   30.8712 C   0  0  0  0  0  0  0  0  0  0  0  0
   21.9234    1.6259   31.1918 O   0  0  0  0  0  0  0  0  0  0  0  0
   21.4491    3.3798   29.6804 C   0  0  1  0  0  0  0  0  0  0  0  0
   21.4494    2.5979   28.4864 O   0  0  0  0  0  0  0  0  0  0  0  0
   20.5489    4.5819   29.4497 C   0  0  1  0  0  0  0  0  0  0  0  0
   21.3843    5.7378   29.2649 O   0  0  0  0  0  0  0  0  0  0  0  0
   19.7459    4.2478   28.1988 C   0  0  0  0  0  0  0  0  0  0  0  0
   20.5599    3.1556   27.5101 C   0  0  2  0  0  0  0  0  0  0  0  0
   17.6510    1.2335   23.7186 N   0  0  0  0  0  0  0  0  0  0  0  0
   18.3419    2.3852   23.7284 C   0  0  2  0  0  0  0  0  0  0  0  0
   18.2992    3.1569   22.6174 N   0  0  0  0  0  0  0  0  0  0  0  0
   19.0653    2.7567   24.8121 N   0  0  0  0  0  0  0  0  0  0  0  0
   19.0929    1.9605   25.9007 C   0  0  2  0  0  0  0  0  0  0  0  0
   18.3879    0.7765   25.9073 C   0  0  1  0  0  0  0  0  0  0  0  0
   17.6639    0.4158   24.7868 C   0  0  0  0  0  0  0  0  0  0  0  0
   17.0229   -0.6572   24.7703 O   0  0  0  0  0  0  0  0  0  0  0  0
   18.5767    0.1840   27.1030 N   0  0  0  0  0  0  0  0  0  0  0  0
   19.3881    0.9806   27.8207 C   0  0  0  0  0  0  0  0  0  0  0  0
   19.6849    2.0578   27.0857 N   0  0  1  0  0  0  0  0  0  0  0  0
   24.0139    2.9354   30.7436 O   0  0  0  0  0  0  0  0  0  0  0  0
   22.9565    2.8599   33.0503 O   0  5  0  0  0  0  0  0  0  0  0  0
   24.0325    0.7930   32.0721 O   0  0  0  0  0  0  0  0  0  0  0  0
  1  3  1  6  0  0  0
  1 21  1  0  0  0  0
  1 22  1  0  0  0  0
  1 23  2  0  0  0  0
  2  3  1  0  0  0  0
  4  2  1  1  0  0  0
  4  5  1  0  0  0  0
  4  6  1  0  0  0  0
  6  7  1  6  0  0  0
  6  8  1  0  0  0  0
  8  9  1  0  0  0  0
  9  5  1  1  0  0  0
  9 20  1  0  0  0  0
 10 11  1  0  0  0  0
 10 16  1  0  0  0  0
 11 12  1  6  0  0  0
 11 13  1  0  0  0  0
 14 13  1  1  0  0  0
 14 15  1  0  0  0  0
 14 20  1  0  0  0  0
 15 16  1  6  0  0  0
 15 18  1  0  0  0  0
 16 17  2  0  0  0  0
 18 19  1  0  0  0  0
 20 19  1  6  0  0  0
M  CHG  1  22  -1
M  END
>  <CHROM.1>
-63.58781309,70.24848116,69.14942844,-152.60252212,20.50270172,2.26316934
28.19002068,0.11924357,0.96641165,2.84164379

>  <Name>
ligand

>  <RI>
0

>  <Rbt.Current_Directory>
/home/itssahil/PROJECTS/Mol_Feturizer/Test_systems_manuscript/rnas/3slm

>  <Rbt.Executable>
rbdock ($Id: //depot/dev/client3/rdock/2013.1/src/exe/rbdock.cxx#4 $)

>  <Rbt.Library>
libRbt.so (2013.1, Build901 2013/11/27)

>  <Rbt.Parameter_File>
/export/apps/rDock/src/rDock_2013.1_src/data/scripts/dock_solv.prm

>  <Rbt.Receptor>
prm/pocket_docking_7.prm

>  <SCORE>
-22.4877

>  <SCORE.INTER>
-17.6907

>  <SCORE.INTER.CONST>
1

>  <SCORE.INTER.POLAR>
0

>  <SCORE.INTER.ROT>
4

>  <SCORE.INTER.SOLV>
28.8168

>  <SCORE.INTER.VDW>
-27.6661

>  <SCORE.INTER.norm>
-0.769161

>  <SCORE.INTRA>
-4.797

>  <SCORE.INTRA.DIHEDRAL>
-6.57425

>  <SCORE.INTRA.DIHEDRAL.0>
8.62657

>  <SCORE.INTRA.POLAR>
0

>  <SCORE.INTRA.POLAR.0>
0

>  <SCORE.INTRA.REPUL>
0

>  <SCORE.INTRA.REPUL.0>
0

>  <SCORE.INTRA.SOLV>
0.465181

>  <SCORE.INTRA.SOLV.lig_0>
-66.3641

>  <SCORE.INTRA.VDW>
-1.74247

>  <SCORE.INTRA.VDW.0>
0.452231

>  <SCORE.INTRA.norm>
-0.208565

>  <SCORE.RESTR>
0

>  <SCORE.RESTR.CAVITY>
0

>  <SCORE.RESTR.norm>
0

>  <SCORE.SYSTEM>
0

>  <SCORE.SYSTEM.CONST>
0

>  <SCORE.SYSTEM.DIHEDRAL>
0

>  <SCORE.SYSTEM.SOLV>
0

>  <SCORE.SYSTEM.norm>
0

>  <SCORE.heavy>
23

>  <SCORE.norm>
-0.977726

>  <RMSD>
1.649

$$$$
ligand
 OpenBabel02271912143D
libRbt.so/2013.1/901 2013/11/27
 23 25  0  0  0  0  0  0  0  0999 V2000
   23.7982    1.4393   28.8357 P   0  0  1  0  0  0  0  0  0  0  0  0
   23.1090    3.9246   28.3849 C   0  0  0  0  0  0  0  0  0  0  0  0
   22.6916    2.5884   28.6280 O   0  0  0  0  0  0  0  0  0  0  0  0
   21.8699    4.7912   28.3871 C   0  0  1  0  0  0  0  0  0  0  0  0
   20.9058    4.3519   27.4308 O   0  0  0  0  0  0  0  0  0  0  0  0
   21.2233    4.7331   29.7608 C   0  0  1  0  0  0  0  0  0  0  0  0
   20.9154    6.0776   30.1678 O   0  0  0  0  0  0  0  0  0  0  0  0
   19.9696    3.8867   29.5788 C   0  0  0  0  0  0  0  0  0  0  0  0
   19.6950    3.9395   28.0783 C   0  0  2  0  0  0  0  0  0  0  0  0
   18.1681    1.1564   24.0218 N   0  0  0  0  0  0  0  0  0  0  0  0
   18.3073    2.4896   24.1050 C   0  0  2  0  0  0  0  0  0  0  0  0
   18.0303    3.2237   23.0022 N   0  0  0  0  0  0  0  0  0  0  0  0
   18.7210    3.0786   25.2529 N   0  0  0  0  0  0  0  0  0  0  0  0
   18.9964    2.3171   26.3318 C   0  0  2  0  0  0  0  0  0  0  0  0
   18.8566    0.9478   26.2634 C   0  0  1  0  0  0  0  0  0  0  0  0
   18.4408    0.3701   25.0789 C   0  0  0  0  0  0  0  0  0  0  0  0
   18.3140   -0.8705   24.9943 O   0  0  0  0  0  0  0  0  0  0  0  0
   19.1838    0.4334   27.4654 N   0  0  0  0  0  0  0  0  0  0  0  0
   19.5266    1.4619   28.2610 C   0  0  0  0  0  0  0  0  0  0  0  0
   19.3988    2.5976   27.5661 N   0  0  1  0  0  0  0  0  0  0  0  0
   23.0548    0.1377   29.0132 O   0  0  0  0  0  0  0  0  0  0  0  0
   24.6382    1.5116   27.5813 O   0  5  0  0  0  0  0  0  0  0  0  0
   24.5180    1.8936   30.0766 O   0  0  0  0  0  0  0  0  0  0  0  0
  1  3  1  6  0  0  0
  1 21  1  0  0  0  0
  1 22  1  0  0  0  0
  1 23  2  0  0  0  0
  2  3  1  0  0  0  0
  4  2  1  1  0  0  0
  4  5  1  0  0  0  0
  4  6  1  0  0  0  0
  6  7  1  6  0  0  0
  6  8  1  0  0  0  0
  8  9  1  0  0  0  0
  9  5  1  6  0  0  0
  9 20  1  0  0  0  0
 10 11  1  0  0  0  0
 10 16  1  0  0  0  0
 11 12  1  6  0  0  0
 11 13  1  0  0  0  0
 14 13  1  1  0  0  0
 14 15  1  0  0  0  0
 14 20  1  0  0  0  0
 15 16  1  6  0  0  0
 15 18  1  0  0  0  0
 16 17  2  0  0  0  0
 18 19  1  0  0  0  0
 20 19  1  6  0  0  0
M  CHG  1  22  -1
M  END
>  <CHROM.1>
-177.66925434,-56.71688648,-173.80125267,-70.39202568,20.81189074,2.40620473
27.45700027,-0.48934159,0.60425811,-2.67693931

>  <Name>
ligand

>  <RI>
0

>  <Rbt.Current_Directory>
/home/itssahil/PROJECTS/Mol_Feturizer/Test_systems_manuscript/rnas/3slm

>  <Rbt.Executable>
rbdock ($Id: //depot/dev/client3/rdock/2013.1/src/exe/rbdock.cxx#4 $)

>  <Rbt.Library>
libRbt.so (2013.1, Build901 2013/11/27)

>  <Rbt.Parameter_File>
/export/apps/rDock/src/rDock_2013.1_src/data/scripts/dock_solv.prm

>  <Rbt.Receptor>
prm/blind_docking_40.prm

>  <SCORE>
-21.4905

>  <SCORE.INTER>
-16.7096

>  <SCORE.INTER.CONST>
1

>  <SCORE.INTER.POLAR>
0

>  <SCORE.INTER.ROT>
4

>  <SCORE.INTER.SOLV>
25.4217

>  <SCORE.INTER.VDW>
-25.8803

>  <SCORE.INTER.norm>
-0.726505

>  <SCORE.INTRA>
-4.78091

>  <SCORE.INTRA.DIHEDRAL>
-7.217

>  <SCORE.INTRA.DIHEDRAL.0>
8.62657

>  <SCORE.INTRA.POLAR>
0

>  <SCORE.INTRA.POLAR.0>
0

>  <SCORE.INTRA.REPUL>
0

>  <SCORE.INTRA.REPUL.0>
0

>  <SCORE.INTRA.SOLV>
0.41881

>  <SCORE.INTRA.SOLV.lig_0>
-66.3641

>  <SCORE.INTRA.VDW>
-1.38181

>  <SCORE.INTRA.VDW.0>
0.452231

>  <SCORE.INTRA.norm>
-0.207866

>  <SCORE.RESTR>
0

>  <SCORE.RESTR.CAVITY>
0

>  <SCORE.RESTR.norm>
0

>  <SCORE.SYSTEM>
0

>  <SCORE.SYSTEM.CONST>
0

>  <SCORE.SYSTEM.DIHEDRAL>
0

>  <SCORE.SYSTEM.SOLV>
0

>  <SCORE.SYSTEM.norm>
0

>  <SCORE.heavy>
23

>  <SCORE.norm>
-0.934371

>  <RMSD>
1.655

$$$$
ligand
 OpenBabel02271912143D
libRbt.so/2013.1/901 2013/11/27
 23 25  0  0  0  0  0  0  0  0999 V2000
   23.7831    1.4110   28.7107 P   0  0  1  0  0  0  0  0  0  0  0  0
   23.1011    3.9180   28.3864 C   0  0  0  0  0  0  0  0  0  0  0  0
   22.6801    2.5699   28.5414 O   0  0  0  0  0  0  0  0  0  0  0  0
   21.8591    4.7804   28.3833 C   0  0  1  0  0  0  0  0  0  0  0  0
   20.9029    4.3412   27.4192 O   0  0  0  0  0  0  0  0  0  0  0  0
   21.2036    4.7155   29.7525 C   0  0  1  0  0  0  0  0  0  0  0  0
   20.8885    6.0575   30.1620 O   0  0  0  0  0  0  0  0  0  0  0  0
   19.9540    3.8656   29.5593 C   0  0  0  0  0  0  0  0  0  0  0  0
   19.6892    3.9226   28.0572 C   0  0  2  0  0  0  0  0  0  0  0  0
   18.1666    1.1513   23.9910 N   0  0  0  0  0  0  0  0  0  0  0  0
   18.2963    2.4850   24.0812 C   0  0  2  0  0  0  0  0  0  0  0  0
   18.0094    3.2232   22.9838 N   0  0  0  0  0  0  0  0  0  0  0  0
   18.7102    3.0705   25.2309 N   0  0  0  0  0  0  0  0  0  0  0  0
   18.9956    2.3049   26.3043 C   0  0  2  0  0  0  0  0  0  0  0  0
   18.8658    0.9350   26.2286 C   0  0  1  0  0  0  0  0  0  0  0  0
   18.4495    0.3610   25.0424 C   0  0  0  0  0  0  0  0  0  0  0  0
   18.3315   -0.8800   24.9512 O   0  0  0  0  0  0  0  0  0  0  0  0
   19.2016    0.4163   27.4263 N   0  0  0  0  0  0  0  0  0  0  0  0
   19.5399    1.4428   28.2264 C   0  0  0  0  0  0  0  0  0  0  0  0
   19.4009    2.5814   27.5386 N   0  0  1  0  0  0  0  0  0  0  0  0
   23.0356    0.1063   28.8424 O   0  0  0  0  0  0  0  0  0  0  0  0
   24.6248    1.5240   27.4605 O   0  5  0  0  0  0  0  0  0  0  0  0
   24.5027    1.8203   29.9672 O   0  0  0  0  0  0  0  0  0  0  0  0
  1  3  1  6  0  0  0
  1 21  1  0  0  0  0
  1 22  1  0  0  0  0
  1 23  2  0  0  0  0
  2  3  1  0  0  0  0
  4  2  1  1  0  0  0
  4  5  1  0  0  0  0
  4  6  1  0  0  0  0
  6  7  1  6  0  0  0
  6  8  1  0  0  0  0
  8  9  1  0  0  0  0
  9  5  1  6  0  0  0
  9 20  1  0  0  0  0
 10 11  1  0  0  0  0
 10 16  1  0  0  0  0
 11 12  1  6  0  0  0
 11 13  1  0  0  0  0
 14 13  1  1  0  0  0
 14 15  1  0  0  0  0
 14 20  1  0  0  0  0
 15 16  1  6  0  0  0
 15 18  1  0  0  0  0
 16 17  2  0  0  0  0
 18 19  1  0  0  0  0
 20 19  1  6  0  0  0
M  CHG  1  22  -1
M  END
>  <CHROM.1>
-179.61274890,-53.26499464,-174.74660177,-71.05914983,20.80492212,2.38967186
27.40660860,-0.50423445,0.59151828,-2.65655088

>  <Name>
ligand

>  <RI>
0

>  <Rbt.Current_Directory>
/home/itssahil/PROJECTS/Mol_Feturizer/Test_systems_manuscript/rnas/3slm

>  <Rbt.Executable>
rbdock ($Id: //depot/dev/client3/rdock/2013.1/src/exe/rbdock.cxx#4 $)

>  <Rbt.Library>
libRbt.so (2013.1, Build901 2013/11/27)

>  <Rbt.Parameter_File>
/export/apps/rDock/src/rDock_2013.1_src/data/scripts/dock_solv.prm

>  <Rbt.Receptor>
prm/blind_docking_40.prm

>  <SCORE>
-21.5145

>  <SCORE.INTER>
-16.6482

>  <SCORE.INTER.CONST>
1

>  <SCORE.INTER.POLAR>
0

>  <SCORE.INTER.ROT>
4

>  <SCORE.INTER.SOLV>
25.6084

>  <SCORE.INTER.VDW>
-25.9016

>  <SCORE.INTER.norm>
-0.723834

>  <SCORE.INTRA>
-4.86628

>  <SCORE.INTRA.DIHEDRAL>
-7.15921

>  <SCORE.INTRA.DIHEDRAL.0>
8.62657

>  <SCORE.INTRA.POLAR>
0

>  <SCORE.INTRA.POLAR.0>
0

>  <SCORE.INTRA.REPUL>
0

>  <SCORE.INTRA.REPUL.0>
0

>  <SCORE.INTRA.SOLV>
0.381163

>  <SCORE.INTRA.SOLV.lig_0>
-66.3641

>  <SCORE.INTRA.VDW>
-1.47726

>  <SCORE.INTRA.VDW.0>
0.452231

>  <SCORE.INTRA.norm>
-0.211577

>  <SCORE.RESTR>
0

>  <SCORE.RESTR.CAVITY>
0

>  <SCORE.RESTR.norm>
0

>  <SCORE.SYSTEM>
0

>  <SCORE.SYSTEM.CONST>
0

>  <SCORE.SYSTEM.DIHEDRAL>
0

>  <SCORE.SYSTEM.SOLV>
0

>  <SCORE.SYSTEM.norm>
0

>  <SCORE.heavy>
23

>  <SCORE.norm>
-0.935411

>  <RMSD>
1.666

$$$$
ligand
 OpenBabel02271912143D
libRbt.so/2013.1/901 2013/11/27
 23 25  0  0  0  0  0  0  0  0999 V2000
   23.8132    1.4202   28.6648 P   0  0  1  0  0  0  0  0  0  0  0  0
   23.1100    3.9208   28.3367 C   0  0  0  0  0  0  0  0  0  0  0  0
   22.7010    2.5770   28.5500 O   0  0  0  0  0  0  0  0  0  0  0  0
   21.8657    4.7797   28.3602 C   0  0  1  0  0  0  0  0  0  0  0  0
   20.8945    4.3439   27.4095 O   0  0  0  0  0  0  0  0  0  0  0  0
   21.2337    4.7039   29.7398 C   0  0  1  0  0  0  0  0  0  0  0  0
   20.9217    6.0424   30.1633 O   0  0  0  0  0  0  0  0  0  0  0  0
   19.9833    3.8517   29.5622 C   0  0  0  0  0  0  0  0  0  0  0  0
   19.6930    3.9176   28.0652 C   0  0  2  0  0  0  0  0  0  0  0  0
   18.1922    1.1604   23.9814 N   0  0  0  0  0  0  0  0  0  0  0  0
   18.3313    2.4930   24.0738 C   0  0  2  0  0  0  0  0  0  0  0  0
   18.0620    3.2340   22.9738 N   0  0  0  0  0  0  0  0  0  0  0  0
   18.7375    3.0746   25.2281 N   0  0  0  0  0  0  0  0  0  0  0  0
   19.0055    2.3063   26.3040 C   0  0  2  0  0  0  0  0  0  0  0  0
   18.8657    0.9375   26.2262 C   0  0  1  0  0  0  0  0  0  0  0  0
   18.4576    0.3674   25.0354 C   0  0  0  0  0  0  0  0  0  0  0  0
   18.3309   -0.8726   24.9422 O   0  0  0  0  0  0  0  0  0  0  0  0
   19.1847    0.4156   27.4271 N   0  0  0  0  0  0  0  0  0  0  0  0
   19.5225    1.4390   28.2314 C   0  0  0  0  0  0  0  0  0  0  0  0
   19.3997    2.5790   27.5428 N   0  0  1  0  0  0  0  0  0  0  0  0
   23.0756    0.1065   28.7563 O   0  0  0  0  0  0  0  0  0  0  0  0
   24.6407    1.5848   27.4109 O   0  5  0  0  0  0  0  0  0  0  0  0
   24.5436    1.7879   29.9280 O   0  0  0  0  0  0  0  0  0  0  0  0
  1  3  1  6  0  0  0
  1 21  1  0  0  0  0
  1 22  1  0  0  0  0
  1 23  2  0  0  0  0
  2  3  1  0  0  0  0
  4  2  1  1  0  0  0
  4  5  1  0  0  0  0
  4  6  1  0  0  0  0
  6  7  1  6  0  0  0
  6  8  1  0  0  0  0
  8  9  1  0  0  0  0
  9  5  1  6  0  0  0
  9 20  1  0  0  0  0
 10 11  1  0  0  0  0
 10 16  1  0  0  0  0
 11 12  1  6  0  0  0
 11 13  1  0  0  0  0
 14 13  1  1  0  0  0
 14 15  1  0  0  0  0
 14 20  1  0  0  0  0
 15 16  1  6  0  0  0
 15 18  1  0  0  0  0
 16 17  2  0  0  0  0
 18 19  1  0  0  0  0
 20 19  1  6  0  0  0
M  CHG  1  22  -1
M  END
>  <CHROM.1>
-174.78024418,-55.82464891,-176.49920468,-69.33094484,20.82231074,2.39220911
27.38965281,-0.50746452,0.58332852,-2.64983408

>  <Name>
ligand

>  <RI>
416

>  <Rbt.Current_Directory>
/home/itssahil/PROJECTS/Mol_Feturizer/Test_systems_manuscript/rnas/3slm

>  <Rbt.Executable>
rbdock ($Id: //depot/dev/client3/rdock/2013.1/src/exe/rbdock.cxx#4 $)

>  <Rbt.Library>
libRbt.so (2013.1, Build901 2013/11/27)

>  <Rbt.Parameter_File>
/export/apps/rDock/src/rDock_2013.1_src/data/scripts/dock_solv.prm

>  <Rbt.Receptor>
prm/pocket_docking_5.prm

>  <SCORE>
-21.4367

>  <SCORE.INTER>
-16.594

>  <SCORE.INTER.CONST>
1

>  <SCORE.INTER.POLAR>
0

>  <SCORE.INTER.ROT>
4

>  <SCORE.INTER.SOLV>
25.8694

>  <SCORE.INTER.VDW>
-25.9525

>  <SCORE.INTER.norm>
-0.72148

>  <SCORE.INTRA>
-4.84262

>  <SCORE.INTRA.DIHEDRAL>
-7.27731

>  <SCORE.INTRA.DIHEDRAL.0>
8.62657

>  <SCORE.INTRA.POLAR>
0

>  <SCORE.INTRA.POLAR.0>
0

>  <SCORE.INTRA.REPUL>
0

>  <SCORE.INTRA.REPUL.0>
0

>  <SCORE.INTRA.SOLV>
0.375691

>  <SCORE.INTRA.SOLV.lig_0>
-66.3641

>  <SCORE.INTRA.VDW>
-1.39181

>  <SCORE.INTRA.VDW.0>
0.452231

>  <SCORE.INTRA.norm>
-0.210549

>  <SCORE.RESTR>
0

>  <SCORE.RESTR.CAVITY>
0

>  <SCORE.RESTR.norm>
0

>  <SCORE.SYSTEM>
0

>  <SCORE.SYSTEM.CONST>
0

>  <SCORE.SYSTEM.DIHEDRAL>
0

>  <SCORE.SYSTEM.SOLV>
0

>  <SCORE.SYSTEM.norm>
0

>  <SCORE.heavy>
23

>  <SCORE.norm>
-0.932029

>  <RMSD>
1.676

$$$$
ligand
 OpenBabel02271912143D
libRbt.so/2013.1/901 2013/11/27
 23 25  0  0  0  0  0  0  0  0999 V2000
   23.8551    1.4718   28.5902 P   0  0  1  0  0  0  0  0  0  0  0  0
   23.1062    3.9615   28.2807 C   0  0  0  0  0  0  0  0  0  0  0  0
   22.7245    2.6143   28.5218 O   0  0  0  0  0  0  0  0  0  0  0  0
   21.8510    4.8027   28.3388 C   0  0  1  0  0  0  0  0  0  0  0  0
   20.8648    4.3608   27.4066 O   0  0  0  0  0  0  0  0  0  0  0  0
   21.2512    4.7076   29.7316 C   0  0  1  0  0  0  0  0  0  0  0  0
   20.9305    6.0382   30.1727 O   0  0  0  0  0  0  0  0  0  0  0  0
   20.0091    3.8394   29.5751 C   0  0  0  0  0  0  0  0  0  0  0  0
   19.6843    3.9128   28.0855 C   0  0  2  0  0  0  0  0  0  0  0  0
   18.1839    1.1617   23.9975 N   0  0  0  0  0  0  0  0  0  0  0  0
   18.3143    2.4949   24.0946 C   0  0  2  0  0  0  0  0  0  0  0  0
   18.0350    3.2384   22.9988 N   0  0  0  0  0  0  0  0  0  0  0  0
   18.7218    3.0747   25.2494 N   0  0  0  0  0  0  0  0  0  0  0  0
   18.9998    2.3039   26.3210 C   0  0  2  0  0  0  0  0  0  0  0  0
   18.8690    0.9345   26.2383 C   0  0  1  0  0  0  0  0  0  0  0  0
   18.4594    0.3664   25.0470 C   0  0  0  0  0  0  0  0  0  0  0  0
   18.3407   -0.8741   24.9494 O   0  0  0  0  0  0  0  0  0  0  0  0
   19.1970    0.4100   27.4357 N   0  0  0  0  0  0  0  0  0  0  0  0
   19.5314    1.4325   28.2425 C   0  0  0  0  0  0  0  0  0  0  0  0
   19.3978    2.5743   27.5590 N   0  0  1  0  0  0  0  0  0  0  0  0
   24.5477    1.4556   27.2492 O   0  0  0  0  0  0  0  0  0  0  0  0
   24.7357    1.8994   29.7417 O   0  5  0  0  0  0  0  0  0  0  0  0
   23.0531    0.2290   28.8669 O   0  0  0  0  0  0  0  0  0  0  0  0
  1  3  1  6  0  0  0
  1 21  1  0  0  0  0
  1 22  1  0  0  0  0
  1 23  2  0  0  0  0
  2  3  1  0  0  0  0
  4  2  1  1  0  0  0
  4  5  1  0  0  0  0
  4  6  1  0  0  0  0
  6  7  1  6  0  0  0
  6  8  1  0  0  0  0
  8  9  1  0  0  0  0
  9  5  1  6  0  0  0
  9 20  1  0  0  0  0
 10 11  1  0  0  0  0
 10 16  1  0  0  0  0
 11 12  1  6  0  0  0
 11 13  1  0  0  0  0
 14 13  1  1  0  0  0
 14 15  1  0  0  0  0
 14 20  1  0  0  0  0
 15 16  1  6  0  0  0
 15 18  1  0  0  0  0
 16 17  2  0  0  0  0
 18 19  1  0  0  0  0
 20 19  1  6  0  0  0
M  CHG  1  22  -1
M  END
>  <CHROM.1>
-60.69429855,-57.09670313,-177.30269633,-68.20822345,20.82902193,2.40555013
27.37501727,-0.51681995,0.56222309,-2.63626647

>  <Name>
ligand

>  <RI>
416

>  <Rbt.Current_Directory>
/home/itssahil/PROJECTS/Mol_Feturizer/Test_systems_manuscript/rnas/3slm

>  <Rbt.Executable>
rbdock ($Id: //depot/dev/client3/rdock/2013.1/src/exe/rbdock.cxx#4 $)

>  <Rbt.Library>
libRbt.so (2013.1, Build901 2013/11/27)

>  <Rbt.Parameter_File>
/export/apps/rDock/src/rDock_2013.1_src/data/scripts/dock_solv.prm

>  <Rbt.Receptor>
prm/pocket_docking_4.prm

>  <SCORE>
-21.9686

>  <SCORE.INTER>
-16.6919

>  <SCORE.INTER.CONST>
1

>  <SCORE.INTER.POLAR>
0

>  <SCORE.INTER.ROT>
4

>  <SCORE.INTER.SOLV>
26.4866

>  <SCORE.INTER.VDW>
-26.2235

>  <SCORE.INTER.norm>
-0.725736

>  <SCORE.INTRA>
-5.27665

>  <SCORE.INTRA.DIHEDRAL>
-7.38529

>  <SCORE.INTRA.DIHEDRAL.0>
8.62657

>  <SCORE.INTRA.POLAR>
0

>  <SCORE.INTRA.POLAR.0>
0

>  <SCORE.INTRA.REPUL>
0

>  <SCORE.INTRA.REPUL.0>
0

>  <SCORE.INTRA.SOLV>
-0.150278

>  <SCORE.INTRA.SOLV.lig_0>
-66.3641

>  <SCORE.INTRA.VDW>
-1.50887

>  <SCORE.INTRA.VDW.0>
0.452231

>  <SCORE.INTRA.norm>
-0.22942

>  <SCORE.RESTR>
0

>  <SCORE.RESTR.CAVITY>
0

>  <SCORE.RESTR.norm>
0

>  <SCORE.SYSTEM>
0

>  <SCORE.SYSTEM.CONST>
0

>  <SCORE.SYSTEM.DIHEDRAL>
0

>  <SCORE.SYSTEM.SOLV>
0

>  <SCORE.SYSTEM.norm>
0

>  <SCORE.heavy>
23

>  <SCORE.norm>
-0.955156

>  <RMSD>
1.712

$$$$
ligand
 OpenBabel02271912143D
libRbt.so/2013.1/901 2013/11/27
 23 25  0  0  0  0  0  0  0  0999 V2000
   23.8612    1.4756   28.5759 P   0  0  1  0  0  0  0  0  0  0  0  0
   23.0989    3.9603   28.2592 C   0  0  0  0  0  0  0  0  0  0  0  0
   22.7252    2.6129   28.5116 O   0  0  0  0  0  0  0  0  0  0  0  0
   21.8417    4.7975   28.3306 C   0  0  1  0  0  0  0  0  0  0  0  0
   20.8489    4.3553   27.4056 O   0  0  0  0  0  0  0  0  0  0  0  0
   21.2541    4.6963   29.7282 C   0  0  1  0  0  0  0  0  0  0  0  0
   20.9331    6.0247   30.1760 O   0  0  0  0  0  0  0  0  0  0  0  0
   20.0133    3.8248   29.5797 C   0  0  0  0  0  0  0  0  0  0  0  0
   19.6756    3.9016   28.0932 C   0  0  2  0  0  0  0  0  0  0  0  0
   18.1844    1.1547   23.9990 N   0  0  0  0  0  0  0  0  0  0  0  0
   18.3168    2.4876   24.0970 C   0  0  2  0  0  0  0  0  0  0  0  0
   18.0423    3.2320   23.0006 N   0  0  0  0  0  0  0  0  0  0  0  0
   18.7213    3.0662   25.2535 N   0  0  0  0  0  0  0  0  0  0  0  0
   18.9945    2.2946   26.3257 C   0  0  2  0  0  0  0  0  0  0  0  0
   18.8617    0.9254   26.2420 C   0  0  1  0  0  0  0  0  0  0  0  0
   18.4552    0.3585   25.0491 C   0  0  0  0  0  0  0  0  0  0  0  0
   18.3348   -0.8818   24.9506 O   0  0  0  0  0  0  0  0  0  0  0  0
   19.1848    0.3999   27.4402 N   0  0  0  0  0  0  0  0  0  0  0  0
   19.5182    1.4215   28.2486 C   0  0  0  0  0  0  0  0  0  0  0  0
   19.3887    2.5638   27.5652 N   0  0  1  0  0  0  0  0  0  0  0  0
   24.5564    1.4701   27.2361 O   0  0  0  0  0  0  0  0  0  0  0  0
   24.7376    1.9010   29.7314 O   0  5  0  0  0  0  0  0  0  0  0  0
   23.0648    0.2273   28.8442 O   0  0  0  0  0  0  0  0  0  0  0  0
  1  3  1  6  0  0  0
  1 21  1  0  0  0  0
  1 22  1  0  0  0  0
  1 23  2  0  0  0  0
  2  3  1  0  0  0  0
  4  2  1  1  0  0  0
  4  5  1  0  0  0  0
  4  6  1  0  0  0  0
  6  7  1  6  0  0  0
  6  8  1  0  0  0  0
  8  9  1  0  0  0  0
  9  5  1  6  0  0  0
  9 20  1  0  0  0  0
 10 11  1  0  0  0  0
 10 16  1  0  0  0  0
 11 12  1  6  0  0  0
 11 13  1  0  0  0  0
 14 13  1  1  0  0  0
 14 15  1  0  0  0  0
 14 20  1  0  0  0  0
 15 16  1  6  0  0  0
 15 18  1  0  0  0  0
 16 17  2  0  0  0  0
 18 19  1  0  0  0  0
 20 19  1  6  0  0  0
M  CHG  1  22  -1
M  END
>  <CHROM.1>
-59.78027444,-57.61540820,-177.05203239,-67.46067579,20.82749159,2.40020931
27.37179556,-0.51891947,0.55753984,-2.63336921

>  <Name>
ligand

>  <RI>
416

>  <Rbt.Current_Directory>
/home/itssahil/PROJECTS/Mol_Feturizer/Test_systems_manuscript/rnas/3slm

>  <Rbt.Executable>
rbdock ($Id: //depot/dev/client3/rdock/2013.1/src/exe/rbdock.cxx#4 $)

>  <Rbt.Library>
libRbt.so (2013.1, Build901 2013/11/27)

>  <Rbt.Parameter_File>
/export/apps/rDock/src/rDock_2013.1_src/data/scripts/dock_solv.prm

>  <Rbt.Receptor>
prm/pocket_docking_4.prm

>  <SCORE>
-21.9792

>  <SCORE.INTER>
-16.7201

>  <SCORE.INTER.CONST>
1

>  <SCORE.INTER.POLAR>
0

>  <SCORE.INTER.ROT>
4

>  <SCORE.INTER.SOLV>
26.4798

>  <SCORE.INTER.VDW>
-26.24

>  <SCORE.INTER.norm>
-0.726962

>  <SCORE.INTRA>
-5.25906

>  <SCORE.INTRA.DIHEDRAL>
-7.38538

>  <SCORE.INTRA.DIHEDRAL.0>
8.62657

>  <SCORE.INTRA.POLAR>
0

>  <SCORE.INTRA.POLAR.0>
0

>  <SCORE.INTRA.REPUL>
0

>  <SCORE.INTRA.REPUL.0>
0

>  <SCORE.INTRA.SOLV>
-0.153963

>  <SCORE.INTRA.SOLV.lig_0>
-66.3641

>  <SCORE.INTRA.VDW>
-1.48938

>  <SCORE.INTRA.VDW.0>
0.452231

>  <SCORE.INTRA.norm>
-0.228655

>  <SCORE.RESTR>
0

>  <SCORE.RESTR.CAVITY>
0

>  <SCORE.RESTR.norm>
0

>  <SCORE.SYSTEM>
0

>  <SCORE.SYSTEM.CONST>
0

>  <SCORE.SYSTEM.DIHEDRAL>
0

>  <SCORE.SYSTEM.SOLV>
0

>  <SCORE.SYSTEM.norm>
0

>  <SCORE.heavy>
23

>  <SCORE.norm>
-0.955616

>  <RMSD>
1.714

$$$$
ligand
 OpenBabel02271912143D
libRbt.so/2013.1/901 2013/11/27
 23 25  0  0  0  0  0  0  0  0999 V2000
   25.6163   -0.8455   28.6256 P   0  0  1  0  0  0  0  0  0  0  0  0
   23.8087    0.6903   27.5171 C   0  0  0  0  0  0  0  0  0  0  0  0
   24.8551    0.5632   28.4698 O   0  0  0  0  0  0  0  0  0  0  0  0
   23.2797    2.1035   27.6148 C   0  0  1  0  0  0  0  0  0  0  0  0
   22.1375    2.3079   26.7838 O   0  0  0  0  0  0  0  0  0  0  0  0
   22.8675    2.3835   29.0502 C   0  0  1  0  0  0  0  0  0  0  0  0
   23.4150    3.6571   29.4327 O   0  0  0  0  0  0  0  0  0  0  0  0
   21.3441    2.3943   29.0354 C   0  0  0  0  0  0  0  0  0  0  0  0
   20.9840    2.6315   27.5713 C   0  0  2  0  0  0  0  0  0  0  0  0
   17.7068    1.3114   23.8230 N   0  0  0  0  0  0  0  0  0  0  0  0
   18.5767    2.3345   23.8387 C   0  0  2  0  0  0  0  0  0  0  0  0
   18.6333    3.1323   22.7470 N   0  0  0  0  0  0  0  0  0  0  0  0
   19.3778    2.5540   24.9092 N   0  0  0  0  0  0  0  0  0  0  0  0
   19.3018    1.7350   25.9784 C   0  0  2  0  0  0  0  0  0  0  0  0
   18.4130    0.6818   25.9788 C   0  0  1  0  0  0  0  0  0  0  0  0
   17.6122    0.4741   24.8719 C   0  0  0  0  0  0  0  0  0  0  0  0
   16.8042   -0.4793   24.8498 O   0  0  0  0  0  0  0  0  0  0  0  0
   18.5320    0.0346   27.1549 N   0  0  0  0  0  0  0  0  0  0  0  0
   19.4804    0.6689   27.8667 C   0  0  0  0  0  0  0  0  0  0  0  0
   19.9310    1.7027   27.1477 N   0  0  1  0  0  0  0  0  0  0  0  0
   26.3442   -0.8099   29.9474 O   0  0  0  0  0  0  0  0  0  0  0  0
   24.5068   -1.8691   28.5521 O   0  5  0  0  0  0  0  0  0  0  0  0
   26.5355   -0.8584   27.4342 O   0  0  0  0  0  0  0  0  0  0  0  0
  1  3  1  6  0  0  0
  1 21  1  0  0  0  0
  1 22  1  0  0  0  0
  1 23  2  0  0  0  0
  2  3  1  0  0  0  0
  4  2  1  1  0  0  0
  4  5  1  0  0  0  0
  4  6  1  0  0  0  0
  6  7  1  6  0  0  0
  6  8  1  0  0  0  0
  8  9  1  0  0  0  0
  9  5  1  6  0  0  0
  9 20  1  0  0  0  0
 10 11  1  0  0  0  0
 10 16  1  0  0  0  0
 11 12  1  6  0  0  0
 11 13  1  0  0  0  0
 14 13  1  1  0  0  0
 14 15  1  0  0  0  0
 14 20  1  0  0  0  0
 15 16  1  6  0  0  0
 15 18  1  0  0  0  0
 16 17  2  0  0  0  0
 18 19  1  0  0  0  0
 20 19  1  6  0  0  0
M  CHG  1  22  -1
M  END
>  <CHROM.1>
-163.03594390,-174.60414235,179.20908709,-70.87326326,21.68055193,1.00854477
27.07357788,0.06438290,0.52838052,-2.89149383

>  <Name>
ligand

>  <RI>
416

>  <Rbt.Current_Directory>
/home/itssahil/PROJECTS/Mol_Feturizer/Test_systems_manuscript/rnas/3slm

>  <Rbt.Executable>
rbdock ($Id: //depot/dev/client3/rdock/2013.1/src/exe/rbdock.cxx#4 $)

>  <Rbt.Library>
libRbt.so (2013.1, Build901 2013/11/27)

>  <Rbt.Parameter_File>
/export/apps/rDock/src/rDock_2013.1_src/data/scripts/dock_solv.prm

>  <Rbt.Receptor>
prm/pocket_docking_4.prm

>  <SCORE>
-19.3011

>  <SCORE.INTER>
-15.6503

>  <SCORE.INTER.CONST>
1

>  <SCORE.INTER.POLAR>
0

>  <SCORE.INTER.ROT>
4

>  <SCORE.INTER.SOLV>
26.7506

>  <SCORE.INTER.VDW>
-25.6171

>  <SCORE.INTER.norm>
-0.680449

>  <SCORE.INTRA>
-3.65072

>  <SCORE.INTRA.DIHEDRAL>
-6.88143

>  <SCORE.INTRA.DIHEDRAL.0>
8.62657

>  <SCORE.INTRA.POLAR>
0

>  <SCORE.INTRA.POLAR.0>
0

>  <SCORE.INTRA.REPUL>
0

>  <SCORE.INTRA.REPUL.0>
0

>  <SCORE.INTRA.SOLV>
0.209417

>  <SCORE.INTRA.SOLV.lig_0>
-66.3641

>  <SCORE.INTRA.VDW>
-0.314707

>  <SCORE.INTRA.VDW.0>
0.452231

>  <SCORE.INTRA.norm>
-0.158727

>  <SCORE.RESTR>
0

>  <SCORE.RESTR.CAVITY>
0

>  <SCORE.RESTR.norm>
0

>  <SCORE.SYSTEM>
0

>  <SCORE.SYSTEM.CONST>
0

>  <SCORE.SYSTEM.DIHEDRAL>
0

>  <SCORE.SYSTEM.SOLV>
0

>  <SCORE.SYSTEM.norm>
0

>  <SCORE.heavy>
23

>  <SCORE.norm>
-0.839176

>  <RMSD>
1.729

$$$$
ligand
 OpenBabel02271912143D
libRbt.so/2013.1/901 2013/11/27
 23 25  0  0  0  0  0  0  0  0999 V2000
   22.6289    2.5564   32.0855 P   0  0  1  0  0  0  0  0  0  0  0  0
   22.7578    2.3565   29.4781 C   0  0  0  0  0  0  0  0  0  0  0  0
   23.2815    2.9361   30.6649 O   0  0  0  0  0  0  0  0  0  0  0  0
   22.6131    3.4659   28.4608 C   0  0  1  0  0  0  0  0  0  0  0  0
   22.0996    2.9902   27.2171 O   0  0  0  0  0  0  0  0  0  0  0  0
   21.6466    4.5094   28.9952 C   0  0  1  0  0  0  0  0  0  0  0  0
   22.2378    5.8064   28.8042 O   0  0  0  0  0  0  0  0  0  0  0  0
   20.3730    4.3328   28.1779 C   0  0  0  0  0  0  0  0  0  0  0  0
   20.8300    3.5891   26.9258 C   0  0  2  0  0  0  0  0  0  0  0  0
   17.7199    1.4338   23.4309 N   0  0  0  0  0  0  0  0  0  0  0  0
   18.4307    2.5677   23.3181 C   0  0  2  0  0  0  0  0  0  0  0  0
   18.3518    3.2493   22.1516 N   0  0  0  0  0  0  0  0  0  0  0  0
   19.2087    3.0088   24.3360 N   0  0  0  0  0  0  0  0  0  0  0  0
   19.2712    2.3013   25.4828 C   0  0  2  0  0  0  0  0  0  0  0  0
   18.5463    1.1367   25.6153 C   0  0  1  0  0  0  0  0  0  0  0  0
   17.7663    0.7035   24.5599 C   0  0  0  0  0  0  0  0  0  0  0  0
   17.1063   -0.3535   24.6575 O   0  0  0  0  0  0  0  0  0  0  0  0
   18.7782    0.6373   26.8453 N   0  0  0  0  0  0  0  0  0  0  0  0
   19.6351    1.4711   27.4608 C   0  0  0  0  0  0  0  0  0  0  0  0
   19.9175    2.4799   26.6294 N   0  0  1  0  0  0  0  0  0  0  0  0
   21.2511    3.1719   32.1168 O   0  0  0  0  0  0  0  0  0  0  0  0
   22.6372    1.0451   32.0978 O   0  5  0  0  0  0  0  0  0  0  0  0
   23.5865    3.1776   33.0661 O   0  0  0  0  0  0  0  0  0  0  0  0
  1  3  1  6  0  0  0
  1 21  1  0  0  0  0
  1 22  1  0  0  0  0
  1 23  2  0  0  0  0
  2  3  1  0  0  0  0
  4  2  1  1  0  0  0
  4  5  1  0  0  0  0
  4  6  1  0  0  0  0
  6  7  1  6  0  0  0
  6  8  1  0  0  0  0
  8  9  1  0  0  0  0
  9  5  1  1  0  0  0
  9 20  1  0  0  0  0
 10 11  1  0  0  0  0
 10 16  1  0  0  0  0
 11 12  1  6  0  0  0
 11 13  1  0  0  0  0
 14 13  1  1  0  0  0
 14 15  1  0  0  0  0
 14 20  1  0  0  0  0
 15 16  1  6  0  0  0
 15 18  1  0  0  0  0
 16 17  2  0  0  0  0
 18 19  1  0  0  0  0
 20 19  1  6  0  0  0
M  CHG  1  22  -1
M  END
>  <CHROM.1>
-69.13479185,179.57912240,134.43427110,-119.87204046,20.66482072,2.56811991
27.88600031,0.57494913,0.91296510,2.28903125

>  <Name>
ligand

>  <RI>
416

>  <Rbt.Current_Directory>
/home/itssahil/PROJECTS/Mol_Feturizer/Test_systems_manuscript/rnas/3slm

>  <Rbt.Executable>
rbdock ($Id: //depot/dev/client3/rdock/2013.1/src/exe/rbdock.cxx#4 $)

>  <Rbt.Library>
libRbt.so (2013.1, Build901 2013/11/27)

>  <Rbt.Parameter_File>
/export/apps/rDock/src/rDock_2013.1_src/data/scripts/dock_solv.prm

>  <Rbt.Receptor>
prm/pocket_docking_5.prm

>  <SCORE>
-20.641

>  <SCORE.INTER>
-17.9712

>  <SCORE.INTER.CONST>
1

>  <SCORE.INTER.POLAR>
0

>  <SCORE.INTER.ROT>
4

>  <SCORE.INTER.SOLV>
31.3054

>  <SCORE.INTER.VDW>
-28.6826

>  <SCORE.INTER.norm>
-0.781357

>  <SCORE.INTRA>
-2.67735

>  <SCORE.INTRA.DIHEDRAL>
-1.08255

>  <SCORE.INTRA.DIHEDRAL.0>
8.62657

>  <SCORE.INTRA.POLAR>
0

>  <SCORE.INTRA.POLAR.0>
0

>  <SCORE.INTRA.REPUL>
0

>  <SCORE.INTRA.REPUL.0>
0

>  <SCORE.INTRA.SOLV>
-0.256816

>  <SCORE.INTRA.SOLV.lig_0>
-66.3641

>  <SCORE.INTRA.VDW>
-2.00767

>  <SCORE.INTRA.VDW.0>
0.452231

>  <SCORE.INTRA.norm>
-0.116407

>  <SCORE.RESTR>
0.00761363

>  <SCORE.RESTR.CAVITY>
0.00761363

>  <SCORE.RESTR.norm>
0.000331027

>  <SCORE.SYSTEM>
0

>  <SCORE.SYSTEM.CONST>
0

>  <SCORE.SYSTEM.DIHEDRAL>
0

>  <SCORE.SYSTEM.SOLV>
0

>  <SCORE.SYSTEM.norm>
0

>  <SCORE.heavy>
23

>  <SCORE.norm>
-0.897433

>  <RMSD>
1.729

$$$$
ligand
 OpenBabel02271912143D
libRbt.so/2013.1/901 2013/11/27
 23 25  0  0  0  0  0  0  0  0999 V2000
   23.2687    2.1217   31.9168 P   0  0  1  0  0  0  0  0  0  0  0  0
   20.8980    2.6837   30.9579 C   0  0  0  0  0  0  0  0  0  0  0  0
   21.8677    1.6886   31.2550 O   0  0  0  0  0  0  0  0  0  0  0  0
   21.4092    3.4713   29.7726 C   0  0  1  0  0  0  0  0  0  0  0  0
   21.4514    2.6841   28.5828 O   0  0  0  0  0  0  0  0  0  0  0  0
   20.4828    4.6487   29.5194 C   0  0  1  0  0  0  0  0  0  0  0  0
   21.2916    5.8248   29.3440 O   0  0  0  0  0  0  0  0  0  0  0  0
   19.7117    4.2882   28.2558 C   0  0  0  0  0  0  0  0  0  0  0  0
   20.5660    3.2142   27.5877 C   0  0  2  0  0  0  0  0  0  0  0  0
   17.7478    1.2175   23.7662 N   0  0  0  0  0  0  0  0  0  0  0  0
   18.4044    2.3890   23.7848 C   0  0  2  0  0  0  0  0  0  0  0  0
   18.3487    3.1620   22.6754 N   0  0  0  0  0  0  0  0  0  0  0  0
   19.1072    2.7787   24.8757 N   0  0  0  0  0  0  0  0  0  0  0  0
   19.1487    1.9808   25.9626 C   0  0  2  0  0  0  0  0  0  0  0  0
   18.4788    0.7765   25.9602 C   0  0  1  0  0  0  0  0  0  0  0  0
   17.7754    0.3977   24.8326 C   0  0  0  0  0  0  0  0  0  0  0  0
   17.1664   -0.6936   24.8079 O   0  0  0  0  0  0  0  0  0  0  0  0
   18.6745    0.1867   27.1561 N   0  0  0  0  0  0  0  0  0  0  0  0
   19.4560    1.0049   27.8828 C   0  0  0  0  0  0  0  0  0  0  0  0
   19.7273    2.0923   27.1530 N   0  0  1  0  0  0  0  0  0  0  0  0
   22.9432    2.9377   33.1442 O   0  0  0  0  0  0  0  0  0  0  0  0
   23.9566    0.8074   32.2061 O   0  5  0  0  0  0  0  0  0  0  0  0
   23.9197    2.9204   30.8201 O   0  0  0  0  0  0  0  0  0  0  0  0
  1  3  1  6  0  0  0
  1 21  1  0  0  0  0
  1 22  1  0  0  0  0
  1 23  2  0  0  0  0
  2  3  1  0  0  0  0
  4  2  1  1  0  0  0
  4  5  1  0  0  0  0
  4  6  1  0  0  0  0
  6  7  1  6  0  0  0
  6  8  1  0  0  0  0
  8  9  1  0  0  0  0
  9  5  1  1  0  0  0
  9 20  1  0  0  0  0
 10 11  1  0  0  0  0
 10 16  1  0  0  0  0
 11 12  1  6  0  0  0
 11 13  1  0  0  0  0
 14 13  1  1  0  0  0
 14 15  1  0  0  0  0
 14 20  1  0  0  0  0
 15 16  1  6  0  0  0
 15 18  1  0  0  0  0
 16 17  2  0  0  0  0
 18 19  1  0  0  0  0
 20 19  1  6  0  0  0
M  CHG  1  22  -1
M  END
>  <CHROM.1>
53.13969958,67.09237717,71.87134249,-153.32584984,20.50815973,2.29478884
28.26477539,0.07440792,0.98807266,2.89298630

>  <Name>
ligand

>  <RI>
0

>  <Rbt.Current_Directory>
/home/itssahil/PROJECTS/Mol_Feturizer/Test_systems_manuscript/rnas/3slm

>  <Rbt.Executable>
rbdock ($Id: //depot/dev/client3/rdock/2013.1/src/exe/rbdock.cxx#4 $)

>  <Rbt.Library>
libRbt.so (2013.1, Build901 2013/11/27)

>  <Rbt.Parameter_File>
/export/apps/rDock/src/rDock_2013.1_src/data/scripts/dock_solv.prm

>  <Rbt.Receptor>
prm/blind_docking_60.prm

>  <SCORE>
-23.1049

>  <SCORE.INTER>
-19.039

>  <SCORE.INTER.CONST>
1

>  <SCORE.INTER.POLAR>
0

>  <SCORE.INTER.ROT>
4

>  <SCORE.INTER.SOLV>
26.3164

>  <SCORE.INTER.VDW>
-27.7315

>  <SCORE.INTER.norm>
-0.827785

>  <SCORE.INTRA>
-4.06581

>  <SCORE.INTRA.DIHEDRAL>
-6.44825

>  <SCORE.INTRA.DIHEDRAL.0>
8.62657

>  <SCORE.INTRA.POLAR>
0

>  <SCORE.INTRA.POLAR.0>
0

>  <SCORE.INTRA.REPUL>
0

>  <SCORE.INTRA.REPUL.0>
0

>  <SCORE.INTRA.SOLV>
1.7176

>  <SCORE.INTRA.SOLV.lig_0>
-66.3641

>  <SCORE.INTRA.VDW>
-1.70049

>  <SCORE.INTRA.VDW.0>
0.452231

>  <SCORE.INTRA.norm>
-0.176774

>  <SCORE.RESTR>
0

>  <SCORE.RESTR.CAVITY>
0

>  <SCORE.RESTR.norm>
0

>  <SCORE.SYSTEM>
0

>  <SCORE.SYSTEM.CONST>
0

>  <SCORE.SYSTEM.DIHEDRAL>
0

>  <SCORE.SYSTEM.SOLV>
0

>  <SCORE.SYSTEM.norm>
0

>  <SCORE.heavy>
23

>  <SCORE.norm>
-1.00456

>  <RMSD>
1.746

$$$$
ligand
 OpenBabel02271912143D
libRbt.so/2013.1/901 2013/11/27
 23 25  0  0  0  0  0  0  0  0999 V2000
   24.3493    1.2267   27.8405 P   0  0  1  0  0  0  0  0  0  0  0  0
   22.8391    2.6084   29.4732 C   0  0  0  0  0  0  0  0  0  0  0  0
   24.1494    2.1998   29.1060 O   0  0  0  0  0  0  0  0  0  0  0  0
   22.4611    3.7671   28.5781 C   0  0  1  0  0  0  0  0  0  0  0  0
   21.8894    3.3295   27.3459 O   0  0  0  0  0  0  0  0  0  0  0  0
   21.4323    4.6307   29.2883 C   0  0  1  0  0  0  0  0  0  0  0  0
   21.8396    6.0044   29.1656 O   0  0  0  0  0  0  0  0  0  0  0  0
   20.1154    4.3561   28.5730 C   0  0  0  0  0  0  0  0  0  0  0  0
   20.5340    3.7800   27.2229 C   0  0  2  0  0  0  0  0  0  0  0  0
   17.7278    1.3383   23.6598 N   0  0  0  0  0  0  0  0  0  0  0  0
   18.3301    2.5347   23.5613 C   0  0  2  0  0  0  0  0  0  0  0  0
   18.2149    3.2055   22.3916 N   0  0  0  0  0  0  0  0  0  0  0  0
   19.0379    3.0478   24.5964 N   0  0  0  0  0  0  0  0  0  0  0  0
   19.1397    2.3496   25.7462 C   0  0  2  0  0  0  0  0  0  0  0  0
   18.5258    1.1214   25.8640 C   0  0  1  0  0  0  0  0  0  0  0  0
   17.8162    0.6159   24.7913 C   0  0  0  0  0  0  0  0  0  0  0  0
   17.2575   -0.4991   24.8757 O   0  0  0  0  0  0  0  0  0  0  0  0
   18.7745    0.6465   27.1005 N   0  0  0  0  0  0  0  0  0  0  0  0
   19.5332    1.5581   27.7343 C   0  0  0  0  0  0  0  0  0  0  0  0
   19.7384    2.5890   26.9074 N   0  0  1  0  0  0  0  0  0  0  0  0
   23.9722    2.0179   26.6117 O   0  0  0  0  0  0  0  0  0  0  0  0
   25.8079    0.8367   27.9078 O   0  5  0  0  0  0  0  0  0  0  0  0
   23.4030    0.0957   28.1402 O   0  0  0  0  0  0  0  0  0  0  0  0
  1  3  1  1  0  0  0
  1 21  1  0  0  0  0
  1 22  1  0  0  0  0
  1 23  2  0  0  0  0
  2  3  1  0  0  0  0
  4  2  1  1  0  0  0
  4  5  1  0  0  0  0
  4  6  1  0  0  0  0
  6  7  1  6  0  0  0
  6  8  1  0  0  0  0
  8  9  1  0  0  0  0
  9  5  1  1  0  0  0
  9 20  1  0  0  0  0
 10 11  1  0  0  0  0
 10 16  1  0  0  0  0
 11 12  1  6  0  0  0
 11 13  1  0  0  0  0
 14 13  1  1  0  0  0
 14 15  1  0  0  0  0
 14 20  1  0  0  0  0
 15 16  1  6  0  0  0
 15 18  1  0  0  0  0
 16 17  2  0  0  0  0
 18 19  1  0  0  0  0
 20 19  1  6  0  0  0
M  CHG  1  22  -1
M  END
>  <CHROM.1>
67.80531717,86.50435369,-81.86514269,-111.29972900,21.04602746,2.25734273
26.91142210,-0.37582816,0.49685270,-2.62303208

>  <Name>
ligand

>  <RI>
416

>  <Rbt.Current_Directory>
/home/itssahil/PROJECTS/Mol_Feturizer/Test_systems_manuscript/rnas/3slm

>  <Rbt.Executable>
rbdock ($Id: //depot/dev/client3/rdock/2013.1/src/exe/rbdock.cxx#4 $)

>  <Rbt.Library>
libRbt.so (2013.1, Build901 2013/11/27)

>  <Rbt.Parameter_File>
/export/apps/rDock/src/rDock_2013.1_src/data/scripts/dock_solv.prm

>  <Rbt.Receptor>
prm/pocket_docking_5.prm

>  <SCORE>
-20.9069

>  <SCORE.INTER>
-17.8206

>  <SCORE.INTER.CONST>
1

>  <SCORE.INTER.POLAR>
0

>  <SCORE.INTER.ROT>
4

>  <SCORE.INTER.SOLV>
27.7069

>  <SCORE.INTER.VDW>
-27.3827

>  <SCORE.INTER.norm>
-0.774807

>  <SCORE.INTRA>
-3.08635

>  <SCORE.INTRA.DIHEDRAL>
-3.06093

>  <SCORE.INTRA.DIHEDRAL.0>
8.62657

>  <SCORE.INTRA.POLAR>
0

>  <SCORE.INTRA.POLAR.0>
0

>  <SCORE.INTRA.REPUL>
0

>  <SCORE.INTRA.REPUL.0>
0

>  <SCORE.INTRA.SOLV>
0.849455

>  <SCORE.INTRA.SOLV.lig_0>
-66.3641

>  <SCORE.INTRA.VDW>
-1.98061

>  <SCORE.INTRA.VDW.0>
0.452231

>  <SCORE.INTRA.norm>
-0.134189

>  <SCORE.RESTR>
0

>  <SCORE.RESTR.CAVITY>
0

>  <SCORE.RESTR.norm>
0

>  <SCORE.SYSTEM>
0

>  <SCORE.SYSTEM.CONST>
0

>  <SCORE.SYSTEM.DIHEDRAL>
0

>  <SCORE.SYSTEM.SOLV>
0

>  <SCORE.SYSTEM.norm>
0

>  <SCORE.heavy>
23

>  <SCORE.norm>
-0.908996

>  <RMSD>
1.756

$$$$
ligand
 OpenBabel02271912143D
libRbt.so/2013.1/901 2013/11/27
 23 25  0  0  0  0  0  0  0  0999 V2000
   23.3358    2.0438   31.8400 P   0  0  1  0  0  0  0  0  0  0  0  0
   20.9534    2.5892   30.9009 C   0  0  0  0  0  0  0  0  0  0  0  0
   21.9352    1.6018   31.1833 O   0  0  0  0  0  0  0  0  0  0  0  0
   21.4483    3.3913   29.7184 C   0  0  1  0  0  0  0  0  0  0  0  0
   21.4515    2.6257   28.5139 O   0  0  0  0  0  0  0  0  0  0  0  0
   20.5334    4.5860   29.5084 C   0  0  1  0  0  0  0  0  0  0  0  0
   21.3547    5.7537   29.3354 O   0  0  0  0  0  0  0  0  0  0  0  0
   19.7281    4.2598   28.2569 C   0  0  0  0  0  0  0  0  0  0  0  0
   20.5510    3.1863   27.5496 C   0  0  2  0  0  0  0  0  0  0  0  0
   17.7291    1.2317   23.7092 N   0  0  0  0  0  0  0  0  0  0  0  0
   18.4189    2.3840   23.7252 C   0  0  2  0  0  0  0  0  0  0  0  0
   18.4008    3.1467   22.6074 N   0  0  0  0  0  0  0  0  0  0  0  0
   19.1176    2.7647   24.8219 N   0  0  0  0  0  0  0  0  0  0  0  0
   19.1212    1.9773   25.9172 C   0  0  2  0  0  0  0  0  0  0  0  0
   18.4168    0.7928   25.9175 C   0  0  1  0  0  0  0  0  0  0  0  0
   17.7184    0.4226   24.7840 C   0  0  0  0  0  0  0  0  0  0  0  0
   17.0785   -0.6509   24.7617 O   0  0  0  0  0  0  0  0  0  0  0  0
   18.5790    0.2101   27.1218 N   0  0  0  0  0  0  0  0  0  0  0  0
   19.3737    1.0131   27.8512 C   0  0  0  0  0  0  0  0  0  0  0  0
   19.6864    2.0845   27.1144 N   0  0  1  0  0  0  0  0  0  0  0  0
   24.0951    0.7777   32.1538 O   0  0  0  0  0  0  0  0  0  0  0  0
   23.9777    2.9096   30.7804 O   0  5  0  0  0  0  0  0  0  0  0  0
   22.9020    2.8029   33.0647 O   0  0  0  0  0  0  0  0  0  0  0  0
  1  3  1  6  0  0  0
  1 21  1  0  0  0  0
  1 22  1  0  0  0  0
  1 23  2  0  0  0  0
  2  3  1  0  0  0  0
  4  2  1  1  0  0  0
  4  5  1  0  0  0  0
  4  6  1  0  0  0  0
  6  7  1  6  0  0  0
  6  8  1  0  0  0  0
  8  9  1  0  0  0  0
  9  5  1  1  0  0  0
  9 20  1  0  0  0  0
 10 11  1  0  0  0  0
 10 16  1  0  0  0  0
 11 12  1  6  0  0  0
 11 13  1  0  0  0  0
 14 13  1  1  0  0  0
 14 15  1  0  0  0  0
 14 20  1  0  0  0  0
 15 16  1  6  0  0  0
 15 18  1  0  0  0  0
 16 17  2  0  0  0  0
 18 19  1  0  0  0  0
 20 19  1  6  0  0  0
M  CHG  1  22  -1
M  END
>  <CHROM.1>
174.04015477,68.87907034,71.91864562,-150.51373510,20.51801688,2.26114382
28.21584707,0.10708744,0.97552304,2.86397215

>  <Name>
ligand

>  <RI>
416

>  <Rbt.Current_Directory>
/home/itssahil/PROJECTS/Mol_Feturizer/Test_systems_manuscript/rnas/3slm

>  <Rbt.Executable>
rbdock ($Id: //depot/dev/client3/rdock/2013.1/src/exe/rbdock.cxx#4 $)

>  <Rbt.Library>
libRbt.so (2013.1, Build901 2013/11/27)

>  <Rbt.Parameter_File>
/export/apps/rDock/src/rDock_2013.1_src/data/scripts/dock_solv.prm

>  <Rbt.Receptor>
prm/pocket_docking_6.prm

>  <SCORE>
-21.1132

>  <SCORE.INTER>
-17.6001

>  <SCORE.INTER.CONST>
1

>  <SCORE.INTER.POLAR>
0

>  <SCORE.INTER.ROT>
4

>  <SCORE.INTER.SOLV>
28.7796

>  <SCORE.INTER.VDW>
-27.5932

>  <SCORE.INTER.norm>
-0.76522

>  <SCORE.INTRA>
-3.51316

>  <SCORE.INTRA.DIHEDRAL>
-6.35837

>  <SCORE.INTRA.DIHEDRAL.0>
8.62657

>  <SCORE.INTRA.POLAR>
0

>  <SCORE.INTRA.POLAR.0>
0

>  <SCORE.INTRA.REPUL>
0

>  <SCORE.INTRA.REPUL.0>
0

>  <SCORE.INTRA.SOLV>
2.6019

>  <SCORE.INTRA.SOLV.lig_0>
-66.3641

>  <SCORE.INTRA.VDW>
-1.63492

>  <SCORE.INTRA.VDW.0>
0.452231

>  <SCORE.INTRA.norm>
-0.152746

>  <SCORE.RESTR>
0

>  <SCORE.RESTR.CAVITY>
0

>  <SCORE.RESTR.norm>
0

>  <SCORE.SYSTEM>
0

>  <SCORE.SYSTEM.CONST>
0

>  <SCORE.SYSTEM.DIHEDRAL>
0

>  <SCORE.SYSTEM.SOLV>
0

>  <SCORE.SYSTEM.norm>
0

>  <SCORE.heavy>
23

>  <SCORE.norm>
-0.917966

>  <RMSD>
1.775

$$$$
ligand
 OpenBabel02271912143D
libRbt.so/2013.1/901 2013/11/27
 23 25  0  0  0  0  0  0  0  0999 V2000
   23.3594    2.1486   31.8812 P   0  0  1  0  0  0  0  0  0  0  0  0
   20.9768    2.5831   30.8864 C   0  0  0  0  0  0  0  0  0  0  0  0
   21.9856    1.6388   31.2171 O   0  0  0  0  0  0  0  0  0  0  0  0
   21.4722    3.3735   29.6962 C   0  0  1  0  0  0  0  0  0  0  0  0
   21.4591    2.6014   28.4960 O   0  0  0  0  0  0  0  0  0  0  0  0
   20.5687    4.5768   29.4859 C   0  0  1  0  0  0  0  0  0  0  0  0
   21.4012    5.7347   29.3010 O   0  0  0  0  0  0  0  0  0  0  0  0
   19.7515    4.2524   28.2416 C   0  0  0  0  0  0  0  0  0  0  0  0
   20.5581    3.1665   27.5346 C   0  0  2  0  0  0  0  0  0  0  0  0
   17.6590    1.2410   23.7373 N   0  0  0  0  0  0  0  0  0  0  0  0
   18.3566    2.3886   23.7447 C   0  0  2  0  0  0  0  0  0  0  0  0
   18.3249    3.1543   22.6293 N   0  0  0  0  0  0  0  0  0  0  0  0
   19.0762    2.7617   24.8304 N   0  0  0  0  0  0  0  0  0  0  0  0
   19.0929    1.9714   25.9235 C   0  0  2  0  0  0  0  0  0  0  0  0
   18.3807    0.7916   25.9327 C   0  0  1  0  0  0  0  0  0  0  0  0
   17.6609    0.4291   24.8101 C   0  0  0  0  0  0  0  0  0  0  0  0
   17.0135   -0.6401   24.7958 O   0  0  0  0  0  0  0  0  0  0  0  0
   18.5593    0.2046   27.1326 N   0  0  0  0  0  0  0  0  0  0  0  0
   19.3715    1.0003   27.8506 C   0  0  0  0  0  0  0  0  0  0  0  0
   19.6789    2.0717   27.1113 N   0  0  1  0  0  0  0  0  0  0  0  0
   24.1744    0.9206   32.2068 O   0  0  0  0  0  0  0  0  0  0  0  0
   23.9680    3.0381   30.8217 O   0  5  0  0  0  0  0  0  0  0  0  0
   22.8820    2.8926   33.0989 O   0  0  0  0  0  0  0  0  0  0  0  0
  1  3  1  6  0  0  0
  1 21  1  0  0  0  0
  1 22  1  0  0  0  0
  1 23  2  0  0  0  0
  2  3  1  0  0  0  0
  4  2  1  1  0  0  0
  4  5  1  0  0  0  0
  4  6  1  0  0  0  0
  6  7  1  6  0  0  0
  6  8  1  0  0  0  0
  8  9  1  0  0  0  0
  9  5  1  1  0  0  0
  9 20  1  0  0  0  0
 10 11  1  0  0  0  0
 10 16  1  0  0  0  0
 11 12  1  6  0  0  0
 11 13  1  0  0  0  0
 14 13  1  1  0  0  0
 14 15  1  0  0  0  0
 14 20  1  0  0  0  0
 15 16  1  6  0  0  0
 15 18  1  0  0  0  0
 16 17  2  0  0  0  0
 18 19  1  0  0  0  0
 20 19  1  6  0  0  0
M  CHG  1  22  -1
M  END
>  <CHROM.1>
175.88427118,72.26538256,71.26461205,-151.28635618,20.51340431,2.28506073
28.22793194,0.13186122,0.96624083,2.82261057

>  <Name>
ligand

>  <RI>
0

>  <Rbt.Current_Directory>
/home/itssahil/PROJECTS/Mol_Feturizer/Test_systems_manuscript/rnas/3slm

>  <Rbt.Executable>
rbdock ($Id: //depot/dev/client3/rdock/2013.1/src/exe/rbdock.cxx#4 $)

>  <Rbt.Library>
libRbt.so (2013.1, Build901 2013/11/27)

>  <Rbt.Parameter_File>
/export/apps/rDock/src/rDock_2013.1_src/data/scripts/dock_solv.prm

>  <Rbt.Receptor>
prm/pocket_docking_7.prm

>  <SCORE>
-21.1974

>  <SCORE.INTER>
-17.8542

>  <SCORE.INTER.CONST>
1

>  <SCORE.INTER.POLAR>
0

>  <SCORE.INTER.ROT>
4

>  <SCORE.INTER.SOLV>
29.2478

>  <SCORE.INTER.VDW>
-27.9188

>  <SCORE.INTER.norm>
-0.776271

>  <SCORE.INTRA>
-3.34314

>  <SCORE.INTRA.DIHEDRAL>
-6.20976

>  <SCORE.INTRA.DIHEDRAL.0>
8.62657

>  <SCORE.INTRA.POLAR>
0

>  <SCORE.INTRA.POLAR.0>
0

>  <SCORE.INTRA.REPUL>
0

>  <SCORE.INTRA.REPUL.0>
0

>  <SCORE.INTRA.SOLV>
2.67722

>  <SCORE.INTRA.SOLV.lig_0>
-66.3641

>  <SCORE.INTRA.VDW>
-1.57688

>  <SCORE.INTRA.VDW.0>
0.452231

>  <SCORE.INTRA.norm>
-0.145354

>  <SCORE.RESTR>
0

>  <SCORE.RESTR.CAVITY>
0

>  <SCORE.RESTR.norm>
0

>  <SCORE.SYSTEM>
0

>  <SCORE.SYSTEM.CONST>
0

>  <SCORE.SYSTEM.DIHEDRAL>
0

>  <SCORE.SYSTEM.SOLV>
0

>  <SCORE.SYSTEM.norm>
0

>  <SCORE.heavy>
23

>  <SCORE.norm>
-0.921625

>  <RMSD>
1.799

$$$$
ligand
 OpenBabel02271912143D
libRbt.so/2013.1/901 2013/11/27
 23 25  0  0  0  0  0  0  0  0999 V2000
   20.4551    5.2057   32.7721 P   0  0  1  0  0  0  0  0  0  0  0  0
   19.7993    4.1767   30.4556 C   0  0  0  0  0  0  0  0  0  0  0  0
   20.0280    5.3474   31.2275 O   0  0  0  0  0  0  0  0  0  0  0  0
   21.0872    3.8557   29.7313 C   0  0  1  0  0  0  0  0  0  0  0  0
   21.1029    2.5193   29.2306 O   0  0  0  0  0  0  0  0  0  0  0  0
   21.2427    4.7978   28.5495 C   0  0  1  0  0  0  0  0  0  0  0  0
   22.5831    5.3186   28.5656 O   0  0  0  0  0  0  0  0  0  0  0  0
   20.9732    3.9436   27.3171 C   0  0  0  0  0  0  0  0  0  0  0  0
   21.1845    2.5109   27.7993 C   0  0  2  0  0  0  0  0  0  0  0  0
   17.8811    1.4812   23.9836 N   0  0  0  0  0  0  0  0  0  0  0  0
   18.8001    2.4588   24.0407 C   0  0  2  0  0  0  0  0  0  0  0  0
   18.9061    3.2890   22.9771 N   0  0  0  0  0  0  0  0  0  0  0  0
   19.6012    2.6023   25.1240 N   0  0  0  0  0  0  0  0  0  0  0  0
   19.4750    1.7528   26.1642 C   0  0  2  0  0  0  0  0  0  0  0  0
   18.5354    0.7455   26.1221 C   0  0  1  0  0  0  0  0  0  0  0  0
   17.7356    0.6149   25.0027 C   0  0  0  0  0  0  0  0  0  0  0  0
   16.8818   -0.2960   24.9421 O   0  0  0  0  0  0  0  0  0  0  0  0
   18.6114    0.0541   27.2764 N   0  0  0  0  0  0  0  0  0  0  0  0
   19.5833    0.6164   28.0165 C   0  0  0  0  0  0  0  0  0  0  0  0
   20.0910    1.6501   27.3365 N   0  0  1  0  0  0  0  0  0  0  0  0
   21.5471    4.1657   32.8344 O   0  0  0  0  0  0  0  0  0  0  0  0
   20.8978    6.5986   33.1568 O   0  5  0  0  0  0  0  0  0  0  0  0
   19.1738    4.7713   33.4310 O   0  0  0  0  0  0  0  0  0  0  0  0
  1  3  1  6  0  0  0
  1 21  1  0  0  0  0
  1 22  1  0  0  0  0
  1 23  2  0  0  0  0
  2  3  1  0  0  0  0
  4  2  1  6  0  0  0
  4  5  1  0  0  0  0
  4  6  1  0  0  0  0
  6  7  1  6  0  0  0
  6  8  1  0  0  0  0
  8  9  1  0  0  0  0
  9  5  1  1  0  0  0
  9 20  1  0  0  0  0
 10 11  1  0  0  0  0
 10 16  1  0  0  0  0
 11 12  1  6  0  0  0
 11 13  1  0  0  0  0
 14 13  1  1  0  0  0
 14 15  1  0  0  0  0
 14 20  1  0  0  0  0
 15 16  1  6  0  0  0
 15 18  1  0  0  0  0
 16 17  2  0  0  0  0
 18 19  1  0  0  0  0
 20 19  1  6  0  0  0
M  CHG  1  22  -1
M  END
>  <CHROM.1>
46.55310406,163.55965825,-94.73244689,152.39741199,19.90253484,3.16531841
28.48115474,1.13758452,0.91807535,1.44078603

>  <Name>
ligand

>  <RI>
416

>  <Rbt.Current_Directory>
/home/itssahil/PROJECTS/Mol_Feturizer/Test_systems_manuscript/rnas/3slm

>  <Rbt.Executable>
rbdock ($Id: //depot/dev/client3/rdock/2013.1/src/exe/rbdock.cxx#4 $)

>  <Rbt.Library>
libRbt.so (2013.1, Build901 2013/11/27)

>  <Rbt.Parameter_File>
/export/apps/rDock/src/rDock_2013.1_src/data/scripts/dock_solv.prm

>  <Rbt.Receptor>
prm/pocket_docking_6.prm

>  <SCORE>
-19.3978

>  <SCORE.INTER>
-17.2427

>  <SCORE.INTER.CONST>
1

>  <SCORE.INTER.POLAR>
0

>  <SCORE.INTER.ROT>
4

>  <SCORE.INTER.SOLV>
32.747

>  <SCORE.INTER.VDW>
-28.6775

>  <SCORE.INTER.norm>
-0.749681

>  <SCORE.INTRA>
-2.15518

>  <SCORE.INTRA.DIHEDRAL>
-1.82039

>  <SCORE.INTRA.DIHEDRAL.0>
8.62657

>  <SCORE.INTRA.POLAR>
0

>  <SCORE.INTRA.POLAR.0>
0

>  <SCORE.INTRA.REPUL>
0

>  <SCORE.INTRA.REPUL.0>
0

>  <SCORE.INTRA.SOLV>
-0.248181

>  <SCORE.INTRA.SOLV.lig_0>
-66.3641

>  <SCORE.INTRA.VDW>
-1.12089

>  <SCORE.INTRA.VDW.0>
0.452231

>  <SCORE.INTRA.norm>
-0.0937033

>  <SCORE.RESTR>
0

>  <SCORE.RESTR.CAVITY>
0

>  <SCORE.RESTR.norm>
0

>  <SCORE.SYSTEM>
0

>  <SCORE.SYSTEM.CONST>
0

>  <SCORE.SYSTEM.DIHEDRAL>
0

>  <SCORE.SYSTEM.SOLV>
0

>  <SCORE.SYSTEM.norm>
0

>  <SCORE.heavy>
23

>  <SCORE.norm>
-0.843384

>  <RMSD>
3.299

$$$$
ligand
 OpenBabel02271912143D
libRbt.so/2013.1/901 2013/11/27
 23 25  0  0  0  0  0  0  0  0999 V2000
   19.8367    5.6554   32.2785 P   0  0  1  0  0  0  0  0  0  0  0  0
   20.6657    3.7886   30.6405 C   0  0  0  0  0  0  0  0  0  0  0  0
   20.9339    5.0266   31.2841 O   0  0  0  0  0  0  0  0  0  0  0  0
   21.7941    3.5331   29.6669 C   0  0  1  0  0  0  0  0  0  0  0  0
   21.6685    2.2674   29.0196 O   0  0  0  0  0  0  0  0  0  0  0  0
   21.7798    4.6086   28.5938 C   0  0  1  0  0  0  0  0  0  0  0  0
   23.1225    5.0976   28.4322 O   0  0  0  0  0  0  0  0  0  0  0  0
   21.2659    3.9157   27.3380 C   0  0  0  0  0  0  0  0  0  0  0  0
   21.4997    2.4312   27.6054 C   0  0  2  0  0  0  0  0  0  0  0  0
   17.8622    1.5802   24.0591 N   0  0  0  0  0  0  0  0  0  0  0  0
   18.8612    2.4770   24.0205 C   0  0  2  0  0  0  0  0  0  0  0  0
   18.9609    3.2648   22.9246 N   0  0  0  0  0  0  0  0  0  0  0  0
   19.7455    2.5821   25.0417 N   0  0  0  0  0  0  0  0  0  0  0  0
   19.6224    1.7761   26.1164 C   0  0  2  0  0  0  0  0  0  0  0  0
   18.6015    0.8520   26.1723 C   0  0  1  0  0  0  0  0  0  0  0  0
   17.7170    0.7587   25.1146 C   0  0  0  0  0  0  0  0  0  0  0  0
   16.7882   -0.0773   25.1429 O   0  0  0  0  0  0  0  0  0  0  0  0
   18.7006    0.1895   27.3417 N   0  0  0  0  0  0  0  0  0  0  0  0
   19.7655    0.6874   27.9948 C   0  0  0  0  0  0  0  0  0  0  0  0
   20.3085    1.6543   27.2472 N   0  0  1  0  0  0  0  0  0  0  0  0
   19.6214    4.6546   33.3876 O   0  0  0  0  0  0  0  0  0  0  0  0
   20.4559    6.9593   32.7265 O   0  5  0  0  0  0  0  0  0  0  0  0
   18.6390    5.8269   31.3837 O   0  0  0  0  0  0  0  0  0  0  0  0
  1  3  1  6  0  0  0
  1 21  1  0  0  0  0
  1 22  1  0  0  0  0
  1 23  2  0  0  0  0
  2  3  1  0  0  0  0
  4  2  1  1  0  0  0
  4  5  1  0  0  0  0
  4  6  1  0  0  0  0
  6  7  1  6  0  0  0
  6  8  1  0  0  0  0
  8  9  1  0  0  0  0
  9  5  1  1  0  0  0
  9 20  1  0  0  0  0
 10 11  1  0  0  0  0
 10 16  1  0  0  0  0
 11 12  1  6  0  0  0
 11 13  1  0  0  0  0
 14 13  1  1  0  0  0
 14 15  1  0  0  0  0
 14 20  1  0  0  0  0
 15 16  1  6  0  0  0
 15 18  1  0  0  0  0
 16 17  2  0  0  0  0
 18 19  1  0  0  0  0
 20 19  1  6  0  0  0
M  CHG  1  22  -1
M  END
>  <CHROM.1>
60.06151531,176.40012615,173.89415820,163.46788835,19.94287101,3.24983422
28.34102465,1.30980366,0.54231340,1.17656958

>  <Name>
ligand

>  <RI>
416

>  <Rbt.Current_Directory>
/home/itssahil/PROJECTS/Mol_Feturizer/Test_systems_manuscript/rnas/3slm

>  <Rbt.Executable>
rbdock ($Id: //depot/dev/client3/rdock/2013.1/src/exe/rbdock.cxx#4 $)

>  <Rbt.Library>
libRbt.so (2013.1, Build901 2013/11/27)

>  <Rbt.Parameter_File>
/export/apps/rDock/src/rDock_2013.1_src/data/scripts/dock_solv.prm

>  <Rbt.Receptor>
prm/pocket_docking_6.prm

>  <SCORE>
-23.836

>  <SCORE.INTER>
-18.9831

>  <SCORE.INTER.CONST>
1

>  <SCORE.INTER.POLAR>
0

>  <SCORE.INTER.ROT>
4

>  <SCORE.INTER.SOLV>
27.1788

>  <SCORE.INTER.VDW>
-27.9817

>  <SCORE.INTER.norm>
-0.825353

>  <SCORE.INTRA>
-4.85287

>  <SCORE.INTRA.DIHEDRAL>
-7.2425

>  <SCORE.INTRA.DIHEDRAL.0>
8.62657

>  <SCORE.INTRA.POLAR>
0

>  <SCORE.INTRA.POLAR.0>
0

>  <SCORE.INTRA.REPUL>
0

>  <SCORE.INTRA.REPUL.0>
0

>  <SCORE.INTRA.SOLV>
-0.329477

>  <SCORE.INTRA.SOLV.lig_0>
-66.3641

>  <SCORE.INTRA.VDW>
-1.06688

>  <SCORE.INTRA.VDW.0>
0.452231

>  <SCORE.INTRA.norm>
-0.210994

>  <SCORE.RESTR>
0

>  <SCORE.RESTR.CAVITY>
0

>  <SCORE.RESTR.norm>
0

>  <SCORE.SYSTEM>
0

>  <SCORE.SYSTEM.CONST>
0

>  <SCORE.SYSTEM.DIHEDRAL>
0

>  <SCORE.SYSTEM.SOLV>
0

>  <SCORE.SYSTEM.norm>
0

>  <SCORE.heavy>
23

>  <SCORE.norm>
-1.03635

>  <RMSD>
3.421

$$$$
ligand
 OpenBabel02271912143D
libRbt.so/2013.1/901 2013/11/27
 23 25  0  0  0  0  0  0  0  0999 V2000
   22.4503    4.4257   28.3712 P   0  0  1  0  0  0  0  0  0  0  0  0
   20.7064    3.6356   30.1572 C   0  0  0  0  0  0  0  0  0  0  0  0
   20.9418    4.1307   28.8464 O   0  0  0  0  0  0  0  0  0  0  0  0
   20.5750    2.1327   30.0543 C   0  0  1  0  0  0  0  0  0  0  0  0
   19.5826    1.7443   29.1050 O   0  0  0  0  0  0  0  0  0  0  0  0
   21.9029    1.5456   29.6067 C   0  0  1  0  0  0  0  0  0  0  0  0
   22.2101    0.4305   30.4613 O   0  0  0  0  0  0  0  0  0  0  0  0
   21.6857    1.1182   28.1606 C   0  0  0  0  0  0  0  0  0  0  0  0
   20.1695    1.0053   28.0257 C   0  0  2  0  0  0  0  0  0  0  0  0
   17.7247    0.4218   23.5296 N   0  0  0  0  0  0  0  0  0  0  0  0
   17.9777   -0.5123   24.4609 C   0  0  2  0  0  0  0  0  0  0  0  0
   17.5420   -1.7720   24.2267 N   0  0  0  0  0  0  0  0  0  0  0  0
   18.6391   -0.2004   25.6015 N   0  0  0  0  0  0  0  0  0  0  0  0
   19.0530    1.0668   25.8075 C   0  0  2  0  0  0  0  0  0  0  0  0
   18.8031    2.0366   24.8608 C   0  0  1  0  0  0  0  0  0  0  0  0
   18.1197    1.6953   23.7092 C   0  0  0  0  0  0  0  0  0  0  0  0
   17.8773    2.5615   22.8412 O   0  0  0  0  0  0  0  0  0  0  0  0
   19.3227    3.1982   25.3047 N   0  0  0  0  0  0  0  0  0  0  0  0
   19.8773    2.9556   26.5055 C   0  0  0  0  0  0  0  0  0  0  0  0
   19.7166    1.6595   26.7937 N   0  0  1  0  0  0  0  0  0  0  0  0
   23.3652    3.7340   29.3523 O   0  0  0  0  0  0  0  0  0  0  0  0
   22.5055    3.8684   26.9674 O   0  5  0  0  0  0  0  0  0  0  0  0
   22.5288    5.9272   28.4328 O   0  0  0  0  0  0  0  0  0  0  0  0
  1  3  1  1  0  0  0
  1 21  1  0  0  0  0
  1 22  1  0  0  0  0
  1 23  2  0  0  0  0
  2  3  1  0  0  0  0
  4  2  1  6  0  0  0
  4  5  1  0  0  0  0
  4  6  1  0  0  0  0
  6  7  1  1  0  0  0
  6  8  1  0  0  0  0
  8  9  1  0  0  0  0
  9  5  1  1  0  0  0
  9 20  1  0  0  0  0
 10 11  1  0  0  0  0
 10 16  1  0  0  0  0
 11 12  1  1  0  0  0
 11 13  1  0  0  0  0
 14 13  1  6  0  0  0
 14 15  1  0  0  0  0
 14 20  1  0  0  0  0
 15 16  1  1  0  0  0
 15 18  1  0  0  0  0
 16 17  2  0  0  0  0
 18 19  1  0  0  0  0
 20 19  1  1  0  0  0
M  CHG  1  22  -1
M  END
>  <CHROM.1>
15.42912889,-54.33167593,-96.71242703,-122.80890164,20.33858527,2.22352971
27.15443032,-0.10728521,-0.95655314,-0.66779512

>  <Name>
ligand

>  <RI>
416

>  <Rbt.Current_Directory>
/home/itssahil/PROJECTS/Mol_Feturizer/Test_systems_manuscript/rnas/3slm

>  <Rbt.Executable>
rbdock ($Id: //depot/dev/client3/rdock/2013.1/src/exe/rbdock.cxx#4 $)

>  <Rbt.Library>
libRbt.so (2013.1, Build901 2013/11/27)

>  <Rbt.Parameter_File>
/export/apps/rDock/src/rDock_2013.1_src/data/scripts/dock_solv.prm

>  <Rbt.Receptor>
prm/pocket_docking_2.prm

>  <SCORE>
-10.8223

>  <SCORE.INTER>
-11.3306

>  <SCORE.INTER.CONST>
1

>  <SCORE.INTER.POLAR>
0

>  <SCORE.INTER.ROT>
4

>  <SCORE.INTER.SOLV>
26.1356

>  <SCORE.INTER.VDW>
-22.5323

>  <SCORE.INTER.norm>
-0.492635

>  <SCORE.INTRA>
-0.298012

>  <SCORE.INTRA.DIHEDRAL>
-0.454034

>  <SCORE.INTRA.DIHEDRAL.0>
8.62657

>  <SCORE.INTRA.POLAR>
0

>  <SCORE.INTRA.POLAR.0>
0

>  <SCORE.INTRA.REPUL>
0

>  <SCORE.INTRA.REPUL.0>
0

>  <SCORE.INTRA.SOLV>
3.67204

>  <SCORE.INTRA.SOLV.lig_0>
-66.3641

>  <SCORE.INTRA.VDW>
-1.90701

>  <SCORE.INTRA.VDW.0>
0.452231

>  <SCORE.INTRA.norm>
-0.012957

>  <SCORE.RESTR>
0.806327

>  <SCORE.RESTR.CAVITY>
0.806327

>  <SCORE.RESTR.norm>
0.0350577

>  <SCORE.SYSTEM>
0

>  <SCORE.SYSTEM.CONST>
0

>  <SCORE.SYSTEM.DIHEDRAL>
0

>  <SCORE.SYSTEM.SOLV>
0

>  <SCORE.SYSTEM.norm>
0

>  <SCORE.heavy>
23

>  <SCORE.norm>
-0.470534

>  <RMSD>
3.517

$$$$
ligand
 OpenBabel02271912143D
libRbt.so/2013.1/901 2013/11/27
 23 25  0  0  0  0  0  0  0  0999 V2000
   20.0086    6.4143   31.2329 P   0  0  1  0  0  0  0  0  0  0  0  0
   19.9220    4.9166   29.0871 C   0  0  0  0  0  0  0  0  0  0  0  0
   20.3261    6.1433   29.6792 O   0  0  0  0  0  0  0  0  0  0  0  0
   21.0246    3.9119   29.3348 C   0  0  1  0  0  0  0  0  0  0  0  0
   20.5330    2.5724   29.3677 O   0  0  0  0  0  0  0  0  0  0  0  0
   22.0457    4.0059   28.2136 C   0  0  1  0  0  0  0  0  0  0  0  0
   23.3562    4.0494   28.8042 O   0  0  0  0  0  0  0  0  0  0  0  0
   21.8358    2.7525   27.3734 C   0  0  0  0  0  0  0  0  0  0  0  0
   21.0999    1.7938   28.3058 C   0  0  2  0  0  0  0  0  0  0  0  0
   18.1557    1.8091   24.0793 N   0  0  0  0  0  0  0  0  0  0  0  0
   19.1772    2.6281   24.3787 C   0  0  2  0  0  0  0  0  0  0  0  0
   19.5081    3.5810   23.4765 N   0  0  0  0  0  0  0  0  0  0  0  0
   19.8596    2.4973   25.5419 N   0  0  0  0  0  0  0  0  0  0  0  0
   19.5090    1.5317   26.4161 C   0  0  2  0  0  0  0  0  0  0  0  0
   18.4619    0.6845   26.1247 C   0  0  1  0  0  0  0  0  0  0  0  0
   17.7864    0.8329   24.9282 C   0  0  0  0  0  0  0  0  0  0  0  0
   16.8380    0.0706   24.6422 O   0  0  0  0  0  0  0  0  0  0  0  0
   18.3171   -0.1715   27.1555 N   0  0  0  0  0  0  0  0  0  0  0  0
   19.2599    0.1337   28.0646 C   0  0  0  0  0  0  0  0  0  0  0  0
   19.9680    1.1732   27.6098 N   0  0  1  0  0  0  0  0  0  0  0  0
   18.6503    7.0693   31.2979 O   0  0  0  0  0  0  0  0  0  0  0  0
   20.0697    5.0415   31.8620 O   0  5  0  0  0  0  0  0  0  0  0  0
   21.1340    7.3235   31.6468 O   0  0  0  0  0  0  0  0  0  0  0  0
  1  3  1  6  0  0  0
  1 21  1  0  0  0  0
  1 22  1  0  0  0  0
  1 23  2  0  0  0  0
  2  3  1  0  0  0  0
  4  2  1  6  0  0  0
  4  5  1  0  0  0  0
  4  6  1  0  0  0  0
  6  7  1  1  0  0  0
  6  8  1  0  0  0  0
  8  9  1  0  0  0  0
  9  5  1  1  0  0  0
  9 20  1  0  0  0  0
 10 11  1  0  0  0  0
 10 16  1  0  0  0  0
 11 12  1  6  0  0  0
 11 13  1  0  0  0  0
 14 13  1  1  0  0  0
 14 15  1  0  0  0  0
 14 20  1  0  0  0  0
 15 16  1  6  0  0  0
 15 18  1  0  0  0  0
 16 17  2  0  0  0  0
 18 19  1  0  0  0  0
 20 19  1  6  0  0  0
M  CHG  1  22  -1
M  END
>  <CHROM.1>
-89.50647666,152.79110649,-86.63257810,106.50334752,19.89797287,3.36094172
28.05987652,1.30260197,-0.42577182,0.73723323

>  <Name>
ligand

>  <RI>
0

>  <Rbt.Current_Directory>
/home/itssahil/PROJECTS/Mol_Feturizer/Test_systems_manuscript/rnas/3slm

>  <Rbt.Executable>
rbdock ($Id: //depot/dev/client3/rdock/2013.1/src/exe/rbdock.cxx#4 $)

>  <Rbt.Library>
libRbt.so (2013.1, Build901 2013/11/27)

>  <Rbt.Parameter_File>
/export/apps/rDock/src/rDock_2013.1_src/data/scripts/dock_solv.prm

>  <Rbt.Receptor>
prm/blind_docking_80.prm

>  <SCORE>
-12.0089

>  <SCORE.INTER>
-12.3565

>  <SCORE.INTER.CONST>
1

>  <SCORE.INTER.POLAR>
0

>  <SCORE.INTER.ROT>
4

>  <SCORE.INTER.SOLV>
26.0943

>  <SCORE.INTER.VDW>
-23.2024

>  <SCORE.INTER.norm>
-0.537241

>  <SCORE.INTRA>
0.346896

>  <SCORE.INTRA.DIHEDRAL>
-1.03001

>  <SCORE.INTRA.DIHEDRAL.0>
8.62657

>  <SCORE.INTRA.POLAR>
0

>  <SCORE.INTRA.POLAR.0>
0

>  <SCORE.INTRA.REPUL>
0

>  <SCORE.INTRA.REPUL.0>
0

>  <SCORE.INTRA.SOLV>
1.56291

>  <SCORE.INTRA.SOLV.lig_0>
-66.3641

>  <SCORE.INTRA.VDW>
0.080445

>  <SCORE.INTRA.VDW.0>
0.452231

>  <SCORE.INTRA.norm>
0.0150824

>  <SCORE.RESTR>
0.000753545

>  <SCORE.RESTR.CAVITY>
0.000753545

>  <SCORE.RESTR.norm>
3.27628e-05

>  <SCORE.SYSTEM>
0

>  <SCORE.SYSTEM.CONST>
0

>  <SCORE.SYSTEM.DIHEDRAL>
0

>  <SCORE.SYSTEM.SOLV>
0

>  <SCORE.SYSTEM.norm>
0

>  <SCORE.heavy>
23

>  <SCORE.norm>
-0.522126

>  <RMSD>
3.708

$$$$
ligand
 OpenBabel02271912143D
libRbt.so/2013.1/901 2013/11/27
 23 25  0  0  0  0  0  0  0  0999 V2000
   21.4488    5.0679   28.6624 P   0  0  1  0  0  0  0  0  0  0  0  0
   20.0664    3.3920   30.1238 C   0  0  0  0  0  0  0  0  0  0  0  0
   20.1916    4.0909   28.8931 O   0  0  0  0  0  0  0  0  0  0  0  0
   20.3014    1.9264   29.8355 C   0  0  1  0  0  0  0  0  0  0  0  0
   19.4564    1.4421   28.7923 O   0  0  0  0  0  0  0  0  0  0  0  0
   21.7427    1.7295   29.3966 C   0  0  1  0  0  0  0  0  0  0  0  0
   22.2853    0.6167   30.1283 O   0  0  0  0  0  0  0  0  0  0  0  0
   21.6723    1.4533   27.9000 C   0  0  0  0  0  0  0  0  0  0  0  0
   20.2314    1.0068   27.6675 C   0  0  2  0  0  0  0  0  0  0  0  0
   17.3453    0.5396   23.4267 N   0  0  0  0  0  0  0  0  0  0  0  0
   17.6764   -0.4153   24.3112 C   0  0  2  0  0  0  0  0  0  0  0  0
   17.2022   -1.6649   24.0987 N   0  0  0  0  0  0  0  0  0  0  0  0
   18.4518   -0.1335   25.3859 N   0  0  0  0  0  0  0  0  0  0  0  0
   18.9016    1.1245   25.5726 C   0  0  2  0  0  0  0  0  0  0  0  0
   18.5724    2.1154   24.6731 C   0  0  1  0  0  0  0  0  0  0  0  0
   17.7736    1.8046   23.5891 C   0  0  0  0  0  0  0  0  0  0  0  0
   17.4583    2.6902   22.7653 O   0  0  0  0  0  0  0  0  0  0  0  0
   19.1494    3.2619   25.0841 N   0  0  0  0  0  0  0  0  0  0  0  0
   19.8169    2.9895   26.2193 C   0  0  0  0  0  0  0  0  0  0  0  0
   19.6677    1.6901   26.4986 N   0  0  1  0  0  0  0  0  0  0  0  0
   21.8193    5.6361   30.0107 O   0  0  0  0  0  0  0  0  0  0  0  0
   22.5010    4.1698   28.0536 O   0  5  0  0  0  0  0  0  0  0  0  0
   20.8996    6.0941   27.7086 O   0  0  0  0  0  0  0  0  0  0  0  0
  1  3  1  1  0  0  0
  1 21  1  0  0  0  0
  1 22  1  0  0  0  0
  1 23  2  0  0  0  0
  2  3  1  0  0  0  0
  4  2  1  6  0  0  0
  4  5  1  0  0  0  0
  4  6  1  0  0  0  0
  6  7  1  1  0  0  0
  6  8  1  0  0  0  0
  8  9  1  0  0  0  0
  9  5  1  1  0  0  0
  9 20  1  0  0  0  0
 10 11  1  0  0  0  0
 10 16  1  0  0  0  0
 11 12  1  1  0  0  0
 11 13  1  0  0  0  0
 14 13  1  6  0  0  0
 14 15  1  0  0  0  0
 14 20  1  0  0  0  0
 15 16  1  1  0  0  0
 15 18  1  0  0  0  0
 16 17  2  0  0  0  0
 18 19  1  0  0  0  0
 20 19  1  1  0  0  0
M  CHG  1  22  -1
M  END
>  <CHROM.1>
-31.40295032,-53.49476864,-110.65956440,-105.13232092,19.91433377,2.42439630
27.08077339,0.23378533,-1.02209846,-0.30360847

>  <Name>
ligand

>  <RI>
416

>  <Rbt.Current_Directory>
/home/itssahil/PROJECTS/Mol_Feturizer/Test_systems_manuscript/rnas/3slm

>  <Rbt.Executable>
rbdock ($Id: //depot/dev/client3/rdock/2013.1/src/exe/rbdock.cxx#4 $)

>  <Rbt.Library>
libRbt.so (2013.1, Build901 2013/11/27)

>  <Rbt.Parameter_File>
/export/apps/rDock/src/rDock_2013.1_src/data/scripts/dock_solv.prm

>  <Rbt.Receptor>
prm/pocket_docking_2.prm

>  <SCORE>
-12.6887

>  <SCORE.INTER>
-13.3129

>  <SCORE.INTER.CONST>
1

>  <SCORE.INTER.POLAR>
0

>  <SCORE.INTER.ROT>
4

>  <SCORE.INTER.SOLV>
22.7392

>  <SCORE.INTER.VDW>
-22.7217

>  <SCORE.INTER.norm>
-0.57882

>  <SCORE.INTRA>
-0.252151

>  <SCORE.INTRA.DIHEDRAL>
0.611258

>  <SCORE.INTRA.DIHEDRAL.0>
8.62657

>  <SCORE.INTRA.POLAR>
0

>  <SCORE.INTRA.POLAR.0>
0

>  <SCORE.INTRA.REPUL>
0

>  <SCORE.INTRA.REPUL.0>
0

>  <SCORE.INTRA.SOLV>
3.73068

>  <SCORE.INTRA.SOLV.lig_0>
-66.3641

>  <SCORE.INTRA.VDW>
-2.42312

>  <SCORE.INTRA.VDW.0>
0.452231

>  <SCORE.INTRA.norm>
-0.0109631

>  <SCORE.RESTR>
0.876362

>  <SCORE.RESTR.CAVITY>
0.876362

>  <SCORE.RESTR.norm>
0.0381027

>  <SCORE.SYSTEM>
0

>  <SCORE.SYSTEM.CONST>
0

>  <SCORE.SYSTEM.DIHEDRAL>
0

>  <SCORE.SYSTEM.SOLV>
0

>  <SCORE.SYSTEM.norm>
0

>  <SCORE.heavy>
23

>  <SCORE.norm>
-0.551681

>  <RMSD>
3.711

$$$$
ligand
 OpenBabel02271912143D
libRbt.so/2013.1/901 2013/11/27
 23 25  0  0  0  0  0  0  0  0999 V2000
   21.4433    5.0762   28.6589 P   0  0  1  0  0  0  0  0  0  0  0  0
   20.0306    3.4035   30.0946 C   0  0  0  0  0  0  0  0  0  0  0  0
   20.1773    4.1058   28.8682 O   0  0  0  0  0  0  0  0  0  0  0  0
   20.2805    1.9399   29.8084 C   0  0  1  0  0  0  0  0  0  0  0  0
   19.4748    1.4578   28.7335 O   0  0  0  0  0  0  0  0  0  0  0  0
   21.7371    1.7495   29.4204 C   0  0  1  0  0  0  0  0  0  0  0  0
   22.2569    0.6350   30.1660 O   0  0  0  0  0  0  0  0  0  0  0  0
   21.7212    1.4799   27.9210 C   0  0  0  0  0  0  0  0  0  0  0  0
   20.2909    1.0301   27.6351 C   0  0  2  0  0  0  0  0  0  0  0  0
   17.3177    0.6543   23.4457 N   0  0  0  0  0  0  0  0  0  0  0  0
   17.5842   -0.2940   24.3586 C   0  0  2  0  0  0  0  0  0  0  0  0
   17.0092   -1.5081   24.1945 N   0  0  0  0  0  0  0  0  0  0  0  0
   18.3945   -0.0395   25.4143 N   0  0  0  0  0  0  0  0  0  0  0  0
   18.9455    1.1840   25.5526 C   0  0  2  0  0  0  0  0  0  0  0  0
   18.6837    2.1675   24.6234 C   0  0  1  0  0  0  0  0  0  0  0  0
   17.8476    1.8857   23.5598 C   0  0  0  0  0  0  0  0  0  0  0  0
   17.5923    2.7658   22.7097 O   0  0  0  0  0  0  0  0  0  0  0  0
   19.3558    3.2772   24.9883 N   0  0  0  0  0  0  0  0  0  0  0  0
   20.0152    2.9903   26.1245 C   0  0  0  0  0  0  0  0  0  0  0  0
   19.7671    1.7170   26.4499 N   0  0  1  0  0  0  0  0  0  0  0  0
   22.5592    4.2305   28.0953 O   0  0  0  0  0  0  0  0  0  0  0  0
   20.9328    6.1429   27.7177 O   0  5  0  0  0  0  0  0  0  0  0  0
   21.7127    5.5739   30.0533 O   0  0  0  0  0  0  0  0  0  0  0  0
  1  3  1  1  0  0  0
  1 21  1  0  0  0  0
  1 22  1  0  0  0  0
  1 23  2  0  0  0  0
  2  3  1  0  0  0  0
  4  2  1  6  0  0  0
  4  5  1  0  0  0  0
  4  6  1  0  0  0  0
  6  7  1  1  0  0  0
  6  8  1  0  0  0  0
  8  9  1  0  0  0  0
  9  5  1  1  0  0  0
  9 20  1  0  0  0  0
 10 11  1  0  0  0  0
 10 16  1  0  0  0  0
 11 12  1  1  0  0  0
 11 13  1  0  0  0  0
 14 13  1  6  0  0  0
 14 15  1  0  0  0  0
 14 20  1  0  0  0  0
 15 16  1  1  0  0  0
 15 18  1  0  0  0  0
 16 17  2  0  0  0  0
 18 19  1  0  0  0  0
 20 19  1  1  0  0  0
M  CHG  1  22  -1
M  END
>  <CHROM.1>
88.48364099,-52.62626776,-109.87895796,-99.20328334,19.93305698,2.46487822
27.07315021,0.17024239,-1.02638531,-0.36182317

>  <Name>
ligand

>  <RI>
416

>  <Rbt.Current_Directory>
/home/itssahil/PROJECTS/Mol_Feturizer/Test_systems_manuscript/rnas/3slm

>  <Rbt.Executable>
rbdock ($Id: //depot/dev/client3/rdock/2013.1/src/exe/rbdock.cxx#4 $)

>  <Rbt.Library>
libRbt.so (2013.1, Build901 2013/11/27)

>  <Rbt.Parameter_File>
/export/apps/rDock/src/rDock_2013.1_src/data/scripts/dock_solv.prm

>  <Rbt.Receptor>
prm/pocket_docking_2.prm

>  <SCORE>
-13.2048

>  <SCORE.INTER>
-13.0707

>  <SCORE.INTER.CONST>
1

>  <SCORE.INTER.POLAR>
0

>  <SCORE.INTER.ROT>
4

>  <SCORE.INTER.SOLV>
23.1646

>  <SCORE.INTER.VDW>
-22.702

>  <SCORE.INTER.norm>
-0.56829

>  <SCORE.INTRA>
-0.957202

>  <SCORE.INTRA.DIHEDRAL>
0.563716

>  <SCORE.INTRA.DIHEDRAL.0>
8.62657

>  <SCORE.INTRA.POLAR>
0

>  <SCORE.INTRA.POLAR.0>
0

>  <SCORE.INTRA.REPUL>
0

>  <SCORE.INTRA.REPUL.0>
0

>  <SCORE.INTRA.SOLV>
1.72549

>  <SCORE.INTRA.SOLV.lig_0>
-66.3641

>  <SCORE.INTRA.VDW>
-2.1018

>  <SCORE.INTRA.VDW.0>
0.452231

>  <SCORE.INTRA.norm>
-0.0416175

>  <SCORE.RESTR>
0.823065

>  <SCORE.RESTR.CAVITY>
0.823065

>  <SCORE.RESTR.norm>
0.0357854

>  <SCORE.SYSTEM>
0

>  <SCORE.SYSTEM.CONST>
0

>  <SCORE.SYSTEM.DIHEDRAL>
0

>  <SCORE.SYSTEM.SOLV>
0

>  <SCORE.SYSTEM.norm>
0

>  <SCORE.heavy>
23

>  <SCORE.norm>
-0.574122

>  <RMSD>
3.744

$$$$
ligand
 OpenBabel02271912143D
libRbt.so/2013.1/901 2013/11/27
 23 25  0  0  0  0  0  0  0  0999 V2000
   21.3953    5.5835   28.9093 P   0  0  1  0  0  0  0  0  0  0  0  0
   20.2913    3.5695   30.1663 C   0  0  0  0  0  0  0  0  0  0  0  0
   20.5931    4.1891   28.9238 O   0  0  0  0  0  0  0  0  0  0  0  0
   20.3901    2.0748   29.9602 C   0  0  1  0  0  0  0  0  0  0  0  0
   19.4964    1.6121   28.9482 O   0  0  0  0  0  0  0  0  0  0  0  0
   21.8040    1.7234   29.5292 C   0  0  1  0  0  0  0  0  0  0  0  0
   22.2491    0.6083   30.3208 O   0  0  0  0  0  0  0  0  0  0  0  0
   21.6972    1.3718   28.0506 C   0  0  0  0  0  0  0  0  0  0  0  0
   20.2199    1.0461   27.8475 C   0  0  2  0  0  0  0  0  0  0  0  0
   17.4976    0.5254   23.5058 N   0  0  0  0  0  0  0  0  0  0  0  0
   17.7816   -0.4149   24.4218 C   0  0  2  0  0  0  0  0  0  0  0  0
   17.3005   -1.6630   24.2159 N   0  0  0  0  0  0  0  0  0  0  0  0
   18.5175   -0.1201   25.5206 N   0  0  0  0  0  0  0  0  0  0  0  0
   18.9753    1.1361   25.6996 C   0  0  2  0  0  0  0  0  0  0  0  0
   18.6944    2.1120   24.7679 C   0  0  1  0  0  0  0  0  0  0  0  0
   17.9351    1.7883   23.6595 C   0  0  0  0  0  0  0  0  0  0  0  0
   17.6637    2.6604   22.8061 O   0  0  0  0  0  0  0  0  0  0  0  0
   19.2691    3.2599   25.1783 N   0  0  0  0  0  0  0  0  0  0  0  0
   19.8878    3.0032   26.3443 C   0  0  0  0  0  0  0  0  0  0  0  0
   19.7114    1.7116   26.6436 N   0  0  1  0  0  0  0  0  0  0  0  0
   21.3066    6.1581   30.3022 O   0  0  0  0  0  0  0  0  0  0  0  0
   22.7923    5.1956   28.4825 O   0  5  0  0  0  0  0  0  0  0  0  0
   20.6458    6.3856   27.8801 O   0  0  0  0  0  0  0  0  0  0  0  0
  1  3  1  1  0  0  0
  1 21  1  0  0  0  0
  1 22  1  0  0  0  0
  1 23  2  0  0  0  0
  2  3  1  0  0  0  0
  4  2  1  6  0  0  0
  4  5  1  0  0  0  0
  4  6  1  0  0  0  0
  6  7  1  1  0  0  0
  6  8  1  0  0  0  0
  8  9  1  0  0  0  0
  9  5  1  1  0  0  0
  9 20  1  0  0  0  0
 10 11  1  0  0  0  0
 10 16  1  0  0  0  0
 11 12  1  1  0  0  0
 11 13  1  0  0  0  0
 14 13  1  6  0  0  0
 14 15  1  0  0  0  0
 14 20  1  0  0  0  0
 15 16  1  1  0  0  0
 15 18  1  0  0  0  0
 16 17  2  0  0  0  0
 18 19  1  0  0  0  0
 20 19  1  1  0  0  0
M  CHG  1  22  -1
M  END
>  <CHROM.1>
-16.77350934,-58.82603438,-144.47592115,-110.71946084,19.97001885,2.58064606
27.23177331,0.34302723,-1.04874020,-0.25606000

>  <Name>
ligand

>  <RI>
416

>  <Rbt.Current_Directory>
/home/itssahil/PROJECTS/Mol_Feturizer/Test_systems_manuscript/rnas/3slm

>  <Rbt.Executable>
rbdock ($Id: //depot/dev/client3/rdock/2013.1/src/exe/rbdock.cxx#4 $)

>  <Rbt.Library>
libRbt.so (2013.1, Build901 2013/11/27)

>  <Rbt.Parameter_File>
/export/apps/rDock/src/rDock_2013.1_src/data/scripts/dock_solv.prm

>  <Rbt.Receptor>
prm/pocket_docking_4.prm

>  <SCORE>
-16.6702

>  <SCORE.INTER>
-14.5107

>  <SCORE.INTER.CONST>
1

>  <SCORE.INTER.POLAR>
0

>  <SCORE.INTER.ROT>
4

>  <SCORE.INTER.SOLV>
26.265

>  <SCORE.INTER.VDW>
-24.6955

>  <SCORE.INTER.norm>
-0.6309

>  <SCORE.INTRA>
-2.1595

>  <SCORE.INTRA.DIHEDRAL>
-0.827354

>  <SCORE.INTRA.DIHEDRAL.0>
8.62657

>  <SCORE.INTRA.POLAR>
0

>  <SCORE.INTRA.POLAR.0>
0

>  <SCORE.INTRA.REPUL>
0

>  <SCORE.INTRA.REPUL.0>
0

>  <SCORE.INTRA.SOLV>
0.761967

>  <SCORE.INTRA.SOLV.lig_0>
-66.3641

>  <SCORE.INTRA.VDW>
-2.12681

>  <SCORE.INTRA.VDW.0>
0.452231

>  <SCORE.INTRA.norm>
-0.0938914

>  <SCORE.RESTR>
0

>  <SCORE.RESTR.CAVITY>
0

>  <SCORE.RESTR.norm>
0

>  <SCORE.SYSTEM>
0

>  <SCORE.SYSTEM.CONST>
0

>  <SCORE.SYSTEM.DIHEDRAL>
0

>  <SCORE.SYSTEM.SOLV>
0

>  <SCORE.SYSTEM.norm>
0

>  <SCORE.heavy>
23

>  <SCORE.norm>
-0.724791

>  <RMSD>
3.821

$$$$
ligand
 OpenBabel02271912143D
libRbt.so/2013.1/901 2013/11/27
 23 25  0  0  0  0  0  0  0  0999 V2000
   20.0957    6.2907   32.6579 P   0  0  1  0  0  0  0  0  0  0  0  0
   19.5162    4.1906   31.2055 C   0  0  0  0  0  0  0  0  0  0  0  0
   19.2051    5.5327   31.5531 O   0  0  0  0  0  0  0  0  0  0  0  0
   20.7719    4.2228   30.3636 C   0  0  1  0  0  0  0  0  0  0  0  0
   21.0146    2.9755   29.7138 O   0  0  0  0  0  0  0  0  0  0  0  0
   20.6245    5.2869   29.2891 C   0  0  1  0  0  0  0  0  0  0  0  0
   21.8263    6.0765   29.2734 O   0  0  0  0  0  0  0  0  0  0  0  0
   20.4249    4.5189   27.9885 C   0  0  0  0  0  0  0  0  0  0  0  0
   20.9667    3.1239   28.2887 C   0  0  2  0  0  0  0  0  0  0  0  0
   18.0856    1.4879   24.3447 N   0  0  0  0  0  0  0  0  0  0  0  0
   18.8547    2.5872   24.4071 C   0  0  2  0  0  0  0  0  0  0  0  0
   18.9114    3.3814   23.3128 N   0  0  0  0  0  0  0  0  0  0  0  0
   19.5581    2.8851   25.5262 N   0  0  0  0  0  0  0  0  0  0  0  0
   19.4856    2.0678   26.5970 C   0  0  2  0  0  0  0  0  0  0  0  0
   18.6994    0.9370   26.5497 C   0  0  1  0  0  0  0  0  0  0  0  0
   17.9978    0.6506   25.3941 C   0  0  0  0  0  0  0  0  0  0  0  0
   17.2842   -0.3735   25.3286 O   0  0  0  0  0  0  0  0  0  0  0  0
   18.7976    0.3093   27.7383 N   0  0  0  0  0  0  0  0  0  0  0  0
   19.6333    1.0321   28.5047 C   0  0  0  0  0  0  0  0  0  0  0  0
   20.0346    2.0996   27.8061 N   0  0  1  0  0  0  0  0  0  0  0  0
   20.4711    5.2661   33.7007 O   0  0  0  0  0  0  0  0  0  0  0  0
   21.2647    6.8369   31.8711 O   0  5  0  0  0  0  0  0  0  0  0  0
   19.1577    7.3509   33.1683 O   0  0  0  0  0  0  0  0  0  0  0  0
  1  3  1  6  0  0  0
  1 21  1  0  0  0  0
  1 22  1  0  0  0  0
  1 23  2  0  0  0  0
  2  3  1  0  0  0  0
  4  2  1  6  0  0  0
  4  5  1  0  0  0  0
  4  6  1  0  0  0  0
  6  7  1  6  0  0  0
  6  8  1  0  0  0  0
  8  9  1  0  0  0  0
  9  5  1  1  0  0  0
  9 20  1  0  0  0  0
 10 11  1  0  0  0  0
 10 16  1  0  0  0  0
 11 12  1  6  0  0  0
 11 13  1  0  0  0  0
 14 13  1  1  0  0  0
 14 15  1  0  0  0  0
 14 20  1  0  0  0  0
 15 16  1  6  0  0  0
 15 18  1  0  0  0  0
 16 17  2  0  0  0  0
 18 19  1  0  0  0  0
 20 19  1  6  0  0  0
M  CHG  1  22  -1
M  END
>  <CHROM.1>
-36.37497184,-167.06794336,-73.65992789,164.83306261,19.72914292,3.67419279
28.81600250,1.00772984,1.19340361,1.50322895

>  <Name>
ligand

>  <RI>
0

>  <Rbt.Current_Directory>
/home/itssahil/PROJECTS/Mol_Feturizer/Test_systems_manuscript/rnas/3slm

>  <Rbt.Executable>
rbdock ($Id: //depot/dev/client3/rdock/2013.1/src/exe/rbdock.cxx#4 $)

>  <Rbt.Library>
libRbt.so (2013.1, Build901 2013/11/27)

>  <Rbt.Parameter_File>
/export/apps/rDock/src/rDock_2013.1_src/data/scripts/dock_solv.prm

>  <Rbt.Receptor>
prm/pocket_docking_7.prm

>  <SCORE>
-20.9958

>  <SCORE.INTER>
-18.8494

>  <SCORE.INTER.CONST>
1

>  <SCORE.INTER.POLAR>
0

>  <SCORE.INTER.ROT>
4

>  <SCORE.INTER.SOLV>
27.3531

>  <SCORE.INTER.VDW>
-27.9506

>  <SCORE.INTER.norm>
-0.819538

>  <SCORE.INTRA>
-2.14641

>  <SCORE.INTRA.DIHEDRAL>
-5.16412

>  <SCORE.INTRA.DIHEDRAL.0>
8.62657

>  <SCORE.INTRA.POLAR>
0

>  <SCORE.INTRA.POLAR.0>
0

>  <SCORE.INTRA.REPUL>
0

>  <SCORE.INTRA.REPUL.0>
0

>  <SCORE.INTRA.SOLV>
2.65384

>  <SCORE.INTRA.SOLV.lig_0>
-66.3641

>  <SCORE.INTRA.VDW>
-0.891265

>  <SCORE.INTRA.VDW.0>
0.452231

>  <SCORE.INTRA.norm>
-0.093322

>  <SCORE.RESTR>
0

>  <SCORE.RESTR.CAVITY>
0

>  <SCORE.RESTR.norm>
0

>  <SCORE.SYSTEM>
0

>  <SCORE.SYSTEM.CONST>
0

>  <SCORE.SYSTEM.DIHEDRAL>
0

>  <SCORE.SYSTEM.SOLV>
0

>  <SCORE.SYSTEM.norm>
0

>  <SCORE.heavy>
23

>  <SCORE.norm>
-0.91286

>  <RMSD>
3.851

$$$$
ligand
 OpenBabel02271912143D
libRbt.so/2013.1/901 2013/11/27
 23 25  0  0  0  0  0  0  0  0999 V2000
   20.6833    5.5944   29.0606 P   0  0  1  0  0  0  0  0  0  0  0  0
   20.0405    3.3050   30.1564 C   0  0  0  0  0  0  0  0  0  0  0  0
   20.2750    4.0413   28.9640 O   0  0  0  0  0  0  0  0  0  0  0  0
   20.2992    1.8482   29.8446 C   0  0  1  0  0  0  0  0  0  0  0  0
   19.4902    1.3779   28.7669 O   0  0  0  0  0  0  0  0  0  0  0  0
   21.7546    1.6747   29.4445 C   0  0  1  0  0  0  0  0  0  0  0  0
   22.2871    0.5520   30.1685 O   0  0  0  0  0  0  0  0  0  0  0  0
   21.7312    1.4297   27.9410 C   0  0  0  0  0  0  0  0  0  0  0  0
   20.3024    0.9742   27.6566 C   0  0  2  0  0  0  0  0  0  0  0  0
   17.3307    0.6362   23.4630 N   0  0  0  0  0  0  0  0  0  0  0  0
   17.6134   -0.3262   24.3561 C   0  0  2  0  0  0  0  0  0  0  0  0
   17.0578   -1.5457   24.1678 N   0  0  0  0  0  0  0  0  0  0  0  0
   18.4208   -0.0802   25.4161 N   0  0  0  0  0  0  0  0  0  0  0  0
   18.9522    1.1489   25.5789 C   0  0  2  0  0  0  0  0  0  0  0  0
   18.6735    2.1468   24.6702 C   0  0  1  0  0  0  0  0  0  0  0  0
   17.8408    1.8733   23.6017 C   0  0  0  0  0  0  0  0  0  0  0  0
   17.5704    2.7664   22.7700 O   0  0  0  0  0  0  0  0  0  0  0  0
   19.3281    3.2595   25.0570 N   0  0  0  0  0  0  0  0  0  0  0  0
   19.9935    2.9601   26.1866 C   0  0  0  0  0  0  0  0  0  0  0  0
   19.7662    1.6766   26.4862 N   0  0  1  0  0  0  0  0  0  0  0  0
   19.4755    6.3367   29.5786 O   0  0  0  0  0  0  0  0  0  0  0  0
   21.8690    5.6017   29.9978 O   0  5  0  0  0  0  0  0  0  0  0  0
   21.0316    5.9340   27.6366 O   0  0  0  0  0  0  0  0  0  0  0  0
  1  3  1  6  0  0  0
  1 21  1  0  0  0  0
  1 22  1  0  0  0  0
  1 23  2  0  0  0  0
  2  3  1  0  0  0  0
  4  2  1  6  0  0  0
  4  5  1  0  0  0  0
  4  6  1  0  0  0  0
  6  7  1  1  0  0  0
  6  8  1  0  0  0  0
  8  9  1  0  0  0  0
  9  5  1  1  0  0  0
  9 20  1  0  0  0  0
 10 11  1  0  0  0  0
 10 16  1  0  0  0  0
 11 12  1  1  0  0  0
 11 13  1  0  0  0  0
 14 13  1  6  0  0  0
 14 15  1  0  0  0  0
 14 20  1  0  0  0  0
 15 16  1  1  0  0  0
 15 18  1  0  0  0  0
 16 17  2  0  0  0  0
 18 19  1  0  0  0  0
 20 19  1  1  0  0  0
M  CHG  1  22  -1
M  END
>  <CHROM.1>
-68.21861358,-57.01839600,-154.87850792,-99.83397072,19.74151136,2.56633373
27.19878475,0.54378846,-1.05258289,-0.00540489

>  <Name>
ligand

>  <RI>
416

>  <Rbt.Current_Directory>
/home/itssahil/PROJECTS/Mol_Feturizer/Test_systems_manuscript/rnas/3slm

>  <Rbt.Executable>
rbdock ($Id: //depot/dev/client3/rdock/2013.1/src/exe/rbdock.cxx#4 $)

>  <Rbt.Library>
libRbt.so (2013.1, Build901 2013/11/27)

>  <Rbt.Parameter_File>
/export/apps/rDock/src/rDock_2013.1_src/data/scripts/dock_solv.prm

>  <Rbt.Receptor>
prm/pocket_docking_2.prm

>  <SCORE>
-13.1799

>  <SCORE.INTER>
-10.9238

>  <SCORE.INTER.CONST>
1

>  <SCORE.INTER.POLAR>
0

>  <SCORE.INTER.ROT>
4

>  <SCORE.INTER.SOLV>
23.6561

>  <SCORE.INTER.VDW>
-21.4346

>  <SCORE.INTER.norm>
-0.474947

>  <SCORE.INTRA>
-4.21343

>  <SCORE.INTRA.DIHEDRAL>
-4.65569

>  <SCORE.INTRA.DIHEDRAL.0>
8.62657

>  <SCORE.INTRA.POLAR>
0

>  <SCORE.INTRA.POLAR.0>
0

>  <SCORE.INTRA.REPUL>
0

>  <SCORE.INTRA.REPUL.0>
0

>  <SCORE.INTRA.SOLV>
0.749241

>  <SCORE.INTRA.SOLV.lig_0>
-66.3641

>  <SCORE.INTRA.VDW>
-2.2602

>  <SCORE.INTRA.VDW.0>
0.452231

>  <SCORE.INTRA.norm>
-0.183192

>  <SCORE.RESTR>
1.95729

>  <SCORE.RESTR.CAVITY>
1.95729

>  <SCORE.RESTR.norm>
0.0850996

>  <SCORE.SYSTEM>
0

>  <SCORE.SYSTEM.CONST>
0

>  <SCORE.SYSTEM.DIHEDRAL>
0

>  <SCORE.SYSTEM.SOLV>
0

>  <SCORE.SYSTEM.norm>
0

>  <SCORE.heavy>
23

>  <SCORE.norm>
-0.57304

>  <RMSD>
3.876

$$$$
ligand
 OpenBabel02271912143D
libRbt.so/2013.1/901 2013/11/27
 23 25  0  0  0  0  0  0  0  0999 V2000
   20.0025    5.3802   32.0280 P   0  0  1  0  0  0  0  0  0  0  0  0
   20.1459    3.6562   30.0628 C   0  0  0  0  0  0  0  0  0  0  0  0
   20.3508    3.9225   31.4433 O   0  0  0  0  0  0  0  0  0  0  0  0
   20.3583    2.1737   29.8535 C   0  0  1  0  0  0  0  0  0  0  0  0
   19.4911    1.6433   28.8518 O   0  0  0  0  0  0  0  0  0  0  0  0
   21.7899    1.9336   29.4049 C   0  0  1  0  0  0  0  0  0  0  0  0
   22.3301    0.8563   30.1896 O   0  0  0  0  0  0  0  0  0  0  0  0
   21.6928    1.5753   27.9273 C   0  0  0  0  0  0  0  0  0  0  0  0
   20.2430    1.1357   27.7417 C   0  0  2  0  0  0  0  0  0  0  0  0
   17.4434    0.4238   23.4770 N   0  0  0  0  0  0  0  0  0  0  0  0
   17.8000   -0.4899   24.3944 C   0  0  2  0  0  0  0  0  0  0  0  0
   17.3808   -1.7639   24.2132 N   0  0  0  0  0  0  0  0  0  0  0  0
   18.5467   -0.1445   25.4709 N   0  0  0  0  0  0  0  0  0  0  0  0
   18.9415    1.1361   25.6258 C   0  0  2  0  0  0  0  0  0  0  0  0
   18.5857    2.0853   24.6923 C   0  0  1  0  0  0  0  0  0  0  0  0
   17.8169    1.7097   23.6071 C   0  0  0  0  0  0  0  0  0  0  0  0
   17.4781    2.5567   22.7526 O   0  0  0  0  0  0  0  0  0  0  0  0
   19.1088    3.2664   25.0765 N   0  0  0  0  0  0  0  0  0  0  0  0
   19.7695    3.0557   26.2286 C   0  0  0  0  0  0  0  0  0  0  0  0
   19.6696    1.7601   26.5449 N   0  0  1  0  0  0  0  0  0  0  0  0
   18.5880    5.6977   31.6080 O   0  0  0  0  0  0  0  0  0  0  0  0
   20.1909    5.2287   33.5199 O   0  5  0  0  0  0  0  0  0  0  0  0
   21.0349    6.2556   31.3706 O   0  0  0  0  0  0  0  0  0  0  0  0
  1  3  1  6  0  0  0
  1 21  1  0  0  0  0
  1 22  1  0  0  0  0
  1 23  2  0  0  0  0
  2  3  1  0  0  0  0
  4  2  1  6  0  0  0
  4  5  1  0  0  0  0
  4  6  1  0  0  0  0
  6  7  1  1  0  0  0
  6  8  1  0  0  0  0
  8  9  1  0  0  0  0
  9  5  1  1  0  0  0
  9 20  1  0  0  0  0
 10 11  1  0  0  0  0
 10 16  1  0  0  0  0
 11 12  1  1  0  0  0
 11 13  1  0  0  0  0
 14 13  1  6  0  0  0
 14 15  1  0  0  0  0
 14 20  1  0  0  0  0
 15 16  1  1  0  0  0
 15 18  1  0  0  0  0
 16 17  2  0  0  0  0
 18 19  1  0  0  0  0
 20 19  1  1  0  0  0
M  CHG  1  22  -1
M  END
>  <CHROM.1>
52.24246853,145.30315212,-171.71297268,-108.97430982,19.56887577,2.54726805
28.03752641,1.12349030,-0.95108761,0.70824561

>  <Name>
ligand

>  <RI>
0

>  <Rbt.Current_Directory>
/home/itssahil/PROJECTS/Mol_Feturizer/Test_systems_manuscript/rnas/3slm

>  <Rbt.Executable>
rbdock ($Id: //depot/dev/client3/rdock/2013.1/src/exe/rbdock.cxx#4 $)

>  <Rbt.Library>
libRbt.so (2013.1, Build901 2013/11/27)

>  <Rbt.Parameter_File>
/export/apps/rDock/src/rDock_2013.1_src/data/scripts/dock_solv.prm

>  <Rbt.Receptor>
prm/blind_docking_60.prm

>  <SCORE>
-20.0409

>  <SCORE.INTER>
-16.1118

>  <SCORE.INTER.CONST>
1

>  <SCORE.INTER.POLAR>
0

>  <SCORE.INTER.ROT>
4

>  <SCORE.INTER.SOLV>
25.0616

>  <SCORE.INTER.VDW>
-25.3617

>  <SCORE.INTER.norm>
-0.700513

>  <SCORE.INTRA>
-3.92909

>  <SCORE.INTRA.DIHEDRAL>
-3.75796

>  <SCORE.INTRA.DIHEDRAL.0>
8.62657

>  <SCORE.INTRA.POLAR>
0

>  <SCORE.INTRA.POLAR.0>
0

>  <SCORE.INTRA.REPUL>
0

>  <SCORE.INTRA.REPUL.0>
0

>  <SCORE.INTRA.SOLV>
-0.771915

>  <SCORE.INTRA.SOLV.lig_0>
-66.3641

>  <SCORE.INTRA.VDW>
-1.66415

>  <SCORE.INTRA.VDW.0>
0.452231

>  <SCORE.INTRA.norm>
-0.17083

>  <SCORE.RESTR>
0

>  <SCORE.RESTR.CAVITY>
0

>  <SCORE.RESTR.norm>
0

>  <SCORE.SYSTEM>
0

>  <SCORE.SYSTEM.CONST>
0

>  <SCORE.SYSTEM.DIHEDRAL>
0

>  <SCORE.SYSTEM.SOLV>
0

>  <SCORE.SYSTEM.norm>
0

>  <SCORE.heavy>
23

>  <SCORE.norm>
-0.871343

>  <RMSD>
3.937

$$$$
ligand
 OpenBabel02271912143D
libRbt.so/2013.1/901 2013/11/27
 23 25  0  0  0  0  0  0  0  0999 V2000
   20.4183    5.6941   29.1101 P   0  0  1  0  0  0  0  0  0  0  0  0
   20.1674    3.3915   30.3307 C   0  0  0  0  0  0  0  0  0  0  0  0
   20.4907    4.0871   29.1348 O   0  0  0  0  0  0  0  0  0  0  0  0
   20.3527    1.9158   30.0577 C   0  0  1  0  0  0  0  0  0  0  0  0
   19.5105    1.4553   29.0015 O   0  0  0  0  0  0  0  0  0  0  0  0
   21.7938    1.6616   29.6489 C   0  0  1  0  0  0  0  0  0  0  0  0
   22.2798    0.5351   30.3992 O   0  0  0  0  0  0  0  0  0  0  0  0
   21.7422    1.3763   28.1532 C   0  0  0  0  0  0  0  0  0  0  0  0
   20.2903    0.9823   27.8954 C   0  0  2  0  0  0  0  0  0  0  0  0
   17.4830    0.5862   23.5949 N   0  0  0  0  0  0  0  0  0  0  0  0
   17.7624   -0.3738   24.4916 C   0  0  2  0  0  0  0  0  0  0  0  0
   17.2511   -1.6080   24.2756 N   0  0  0  0  0  0  0  0  0  0  0  0
   18.5233   -0.1116   25.5816 N   0  0  0  0  0  0  0  0  0  0  0  0
   19.0111    1.1317   25.7713 C   0  0  2  0  0  0  0  0  0  0  0  0
   18.7353    2.1275   24.8594 C   0  0  1  0  0  0  0  0  0  0  0  0
   17.9502    1.8371   23.7598 C   0  0  0  0  0  0  0  0  0  0  0  0
   17.6830    2.7277   22.9244 O   0  0  0  0  0  0  0  0  0  0  0  0
   19.3416    3.2565   25.2767 N   0  0  0  0  0  0  0  0  0  0  0  0
   19.9746    2.9688   26.4277 C   0  0  0  0  0  0  0  0  0  0  0  0
   19.7756    1.6769   26.7107 N   0  0  1  0  0  0  0  0  0  0  0  0
   18.9659    6.0728   29.2684 O   0  0  0  0  0  0  0  0  0  0  0  0
   21.3019    6.1163   30.2612 O   0  5  0  0  0  0  0  0  0  0  0  0
   20.9821    6.0298   27.7559 O   0  0  0  0  0  0  0  0  0  0  0  0
  1  3  1  1  0  0  0
  1 21  1  0  0  0  0
  1 22  1  0  0  0  0
  1 23  2  0  0  0  0
  2  3  1  0  0  0  0
  4  2  1  6  0  0  0
  4  5  1  0  0  0  0
  4  6  1  0  0  0  0
  6  7  1  1  0  0  0
  6  8  1  0  0  0  0
  8  9  1  0  0  0  0
  9  5  1  1  0  0  0
  9 20  1  0  0  0  0
 10 11  1  0  0  0  0
 10 16  1  0  0  0  0
 11 12  1  1  0  0  0
 11 13  1  0  0  0  0
 14 13  1  6  0  0  0
 14 15  1  0  0  0  0
 14 20  1  0  0  0  0
 15 16  1  1  0  0  0
 15 18  1  0  0  0  0
 16 17  2  0  0  0  0
 18 19  1  0  0  0  0
 20 19  1  1  0  0  0
M  CHG  1  22  -1
M  END
>  <CHROM.1>
-66.78424605,-59.96422306,-178.84981083,-105.40654607,19.72135117,2.58867679
27.35226435,0.64470306,-1.06353972,0.07723769

>  <Name>
ligand

>  <RI>
0

>  <Rbt.Current_Directory>
/home/itssahil/PROJECTS/Mol_Feturizer/Test_systems_manuscript/rnas/3slm

>  <Rbt.Executable>
rbdock ($Id: //depot/dev/client3/rdock/2013.1/src/exe/rbdock.cxx#4 $)

>  <Rbt.Library>
libRbt.so (2013.1, Build901 2013/11/27)

>  <Rbt.Parameter_File>
/export/apps/rDock/src/rDock_2013.1_src/data/scripts/dock_solv.prm

>  <Rbt.Receptor>
prm/pocket_docking_8.prm

>  <SCORE>
-19.1337

>  <SCORE.INTER>
-13.2824

>  <SCORE.INTER.CONST>
1

>  <SCORE.INTER.POLAR>
0

>  <SCORE.INTER.ROT>
4

>  <SCORE.INTER.SOLV>
23.7387

>  <SCORE.INTER.VDW>
-23.0345

>  <SCORE.INTER.norm>
-0.577496

>  <SCORE.INTRA>
-5.85127

>  <SCORE.INTRA.DIHEDRAL>
-7.39325

>  <SCORE.INTRA.DIHEDRAL.0>
8.62657

>  <SCORE.INTRA.POLAR>
0

>  <SCORE.INTRA.POLAR.0>
0

>  <SCORE.INTRA.REPUL>
0

>  <SCORE.INTRA.REPUL.0>
0

>  <SCORE.INTRA.SOLV>
0.112876

>  <SCORE.INTRA.SOLV.lig_0>
-66.3641

>  <SCORE.INTRA.VDW>
-2.21108

>  <SCORE.INTRA.VDW.0>
0.452231

>  <SCORE.INTRA.norm>
-0.254403

>  <SCORE.RESTR>
0

>  <SCORE.RESTR.CAVITY>
0

>  <SCORE.RESTR.norm>
0

>  <SCORE.SYSTEM>
0

>  <SCORE.SYSTEM.CONST>
0

>  <SCORE.SYSTEM.DIHEDRAL>
0

>  <SCORE.SYSTEM.SOLV>
0

>  <SCORE.SYSTEM.norm>
0

>  <SCORE.heavy>
23

>  <SCORE.norm>
-0.831899

>  <RMSD>
3.940

$$$$
ligand
 OpenBabel02271912143D
libRbt.so/2013.1/901 2013/11/27
 23 25  0  0  0  0  0  0  0  0999 V2000
   20.0627    5.3834   32.0799 P   0  0  1  0  0  0  0  0  0  0  0  0
   20.1139    3.6336   30.1328 C   0  0  0  0  0  0  0  0  0  0  0  0
   20.3581    3.9101   31.5049 O   0  0  0  0  0  0  0  0  0  0  0  0
   20.2800    2.1434   29.9370 C   0  0  1  0  0  0  0  0  0  0  0  0
   19.4406    1.6416   28.8976 O   0  0  0  0  0  0  0  0  0  0  0  0
   21.7208    1.8483   29.5555 C   0  0  1  0  0  0  0  0  0  0  0  0
   22.1837    0.7548   30.3668 O   0  0  0  0  0  0  0  0  0  0  0  0
   21.6784    1.4879   28.0758 C   0  0  0  0  0  0  0  0  0  0  0  0
   20.2232    1.1019   27.8245 C   0  0  2  0  0  0  0  0  0  0  0  0
   17.4724    0.5182   23.5089 N   0  0  0  0  0  0  0  0  0  0  0  0
   17.7333   -0.3997   24.4540 C   0  0  2  0  0  0  0  0  0  0  0  0
   17.2170   -1.6399   24.2897 N   0  0  0  0  0  0  0  0  0  0  0  0
   18.4810   -0.0904   25.5408 N   0  0  0  0  0  0  0  0  0  0  0  0
   18.9742    1.1576   25.6781 C   0  0  2  0  0  0  0  0  0  0  0  0
   18.7172    2.1105   24.7162 C   0  0  1  0  0  0  0  0  0  0  0  0
   17.9454    1.7727   23.6208 C   0  0  0  0  0  0  0  0  0  0  0  0
   17.6955    2.6242   22.7404 O   0  0  0  0  0  0  0  0  0  0  0  0
   19.3251    3.2544   25.0878 N   0  0  0  0  0  0  0  0  0  0  0  0
   19.9405    3.0182   26.2599 C   0  0  0  0  0  0  0  0  0  0  0  0
   19.7293    1.7424   26.6012 N   0  0  1  0  0  0  0  0  0  0  0  0
   20.1702    5.3002   33.5831 O   0  0  0  0  0  0  0  0  0  0  0  0
   21.1164    6.2474   31.4262 O   0  5  0  0  0  0  0  0  0  0  0  0
   18.6653    5.6548   31.5919 O   0  0  0  0  0  0  0  0  0  0  0  0
  1  3  1  6  0  0  0
  1 21  1  0  0  0  0
  1 22  1  0  0  0  0
  1 23  2  0  0  0  0
  2  3  1  0  0  0  0
  4  2  1  6  0  0  0
  4  5  1  0  0  0  0
  4  6  1  0  0  0  0
  6  7  1  1  0  0  0
  6  8  1  0  0  0  0
  8  9  1  0  0  0  0
  9  5  1  1  0  0  0
  9 20  1  0  0  0  0
 10 11  1  0  0  0  0
 10 16  1  0  0  0  0
 11 12  1  1  0  0  0
 11 13  1  0  0  0  0
 14 13  1  6  0  0  0
 14 15  1  0  0  0  0
 14 20  1  0  0  0  0
 15 16  1  1  0  0  0
 15 18  1  0  0  0  0
 16 17  2  0  0  0  0
 18 19  1  0  0  0  0
 20 19  1  1  0  0  0
M  CHG  1  22  -1
M  END
>  <CHROM.1>
169.79945769,149.33198099,-171.64778527,-105.98028091,19.59097866,2.55173698
28.09754714,1.07625620,-1.01647153,0.66028730

>  <Name>
ligand

>  <RI>
0

>  <Rbt.Current_Directory>
/home/itssahil/PROJECTS/Mol_Feturizer/Test_systems_manuscript/rnas/3slm

>  <Rbt.Executable>
rbdock ($Id: //depot/dev/client3/rdock/2013.1/src/exe/rbdock.cxx#4 $)

>  <Rbt.Library>
libRbt.so (2013.1, Build901 2013/11/27)

>  <Rbt.Parameter_File>
/export/apps/rDock/src/rDock_2013.1_src/data/scripts/dock_solv.prm

>  <Rbt.Receptor>
prm/blind_docking_80.prm

>  <SCORE>
-20.6567

>  <SCORE.INTER>
-17.071

>  <SCORE.INTER.CONST>
1

>  <SCORE.INTER.POLAR>
0

>  <SCORE.INTER.ROT>
4

>  <SCORE.INTER.SOLV>
23.1235

>  <SCORE.INTER.VDW>
-25.3552

>  <SCORE.INTER.norm>
-0.742218

>  <SCORE.INTRA>
-3.58564

>  <SCORE.INTRA.DIHEDRAL>
-4.24501

>  <SCORE.INTRA.DIHEDRAL.0>
8.62657

>  <SCORE.INTRA.POLAR>
0

>  <SCORE.INTRA.POLAR.0>
0

>  <SCORE.INTRA.REPUL>
0

>  <SCORE.INTRA.REPUL.0>
0

>  <SCORE.INTRA.SOLV>
-0.0370463

>  <SCORE.INTRA.SOLV.lig_0>
-66.3641

>  <SCORE.INTRA.VDW>
-1.44462

>  <SCORE.INTRA.VDW.0>
0.452231

>  <SCORE.INTRA.norm>
-0.155898

>  <SCORE.RESTR>
0

>  <SCORE.RESTR.CAVITY>
0

>  <SCORE.RESTR.norm>
0

>  <SCORE.SYSTEM>
0

>  <SCORE.SYSTEM.CONST>
0

>  <SCORE.SYSTEM.DIHEDRAL>
0

>  <SCORE.SYSTEM.SOLV>
0

>  <SCORE.SYSTEM.norm>
0

>  <SCORE.heavy>
23

>  <SCORE.norm>
-0.898115

>  <RMSD>
3.963

$$$$
ligand
 OpenBabel02271912143D
libRbt.so/2013.1/901 2013/11/27
 23 25  0  0  0  0  0  0  0  0999 V2000
   20.6062    5.6589   29.2153 P   0  0  1  0  0  0  0  0  0  0  0  0
   20.3752    3.3728   30.4707 C   0  0  0  0  0  0  0  0  0  0  0  0
   20.6321    4.0506   29.2486 O   0  0  0  0  0  0  0  0  0  0  0  0
   20.4970    1.8905   30.1980 C   0  0  1  0  0  0  0  0  0  0  0  0
   19.5933    1.4553   29.1827 O   0  0  0  0  0  0  0  0  0  0  0  0
   21.9088    1.5845   29.7272 C   0  0  1  0  0  0  0  0  0  0  0  0
   22.3883    0.4448   30.4615 O   0  0  0  0  0  0  0  0  0  0  0  0
   21.7811    1.2952   28.2369 C   0  0  0  0  0  0  0  0  0  0  0  0
   20.3064    0.9510   28.0458 C   0  0  2  0  0  0  0  0  0  0  0  0
   17.5785    0.5518   23.6947 N   0  0  0  0  0  0  0  0  0  0  0  0
   17.9056   -0.4234   24.5583 C   0  0  2  0  0  0  0  0  0  0  0  0
   17.4732   -1.6771   24.2887 N   0  0  0  0  0  0  0  0  0  0  0  0
   18.6364   -0.1578   25.6679 N   0  0  0  0  0  0  0  0  0  0  0  0
   19.0451    1.1045   25.9112 C   0  0  2  0  0  0  0  0  0  0  0  0
   18.7195    2.1162   25.0339 C   0  0  1  0  0  0  0  0  0  0  0  0
   17.9665    1.8214   23.9133 C   0  0  0  0  0  0  0  0  0  0  0  0
   17.6551    2.7258   23.1086 O   0  0  0  0  0  0  0  0  0  0  0  0
   19.2508    3.2629   25.5020 N   0  0  0  0  0  0  0  0  0  0  0  0
   19.8869    2.9699   26.6500 C   0  0  0  0  0  0  0  0  0  0  0  0
   19.7639    1.6584   26.8812 N   0  0  1  0  0  0  0  0  0  0  0  0
   21.5589    6.1377   30.2836 O   0  0  0  0  0  0  0  0  0  0  0  0
   21.0280    6.0007   27.8048 O   0  5  0  0  0  0  0  0  0  0  0  0
   19.1647    5.9727   29.5119 O   0  0  0  0  0  0  0  0  0  0  0  0
  1  3  1  1  0  0  0
  1 21  1  0  0  0  0
  1 22  1  0  0  0  0
  1 23  2  0  0  0  0
  2  3  1  0  0  0  0
  4  2  1  6  0  0  0
  4  5  1  0  0  0  0
  4  6  1  0  0  0  0
  6  7  1  1  0  0  0
  6  8  1  0  0  0  0
  8  9  1  0  0  0  0
  9  5  1  1  0  0  0
  9 20  1  0  0  0  0
 10 11  1  0  0  0  0
 10 16  1  0  0  0  0
 11 12  1  1  0  0  0
 11 13  1  0  0  0  0
 14 13  1  6  0  0  0
 14 15  1  0  0  0  0
 14 20  1  0  0  0  0
 15 16  1  1  0  0  0
 15 18  1  0  0  0  0
 16 17  2  0  0  0  0
 18 19  1  0  0  0  0
 20 19  1  1  0  0  0
M  CHG  1  22  -1
M  END
>  <CHROM.1>
54.20335296,-58.35438878,-178.81256426,-112.25020420,19.81379152,2.55481862
27.47667565,0.64231525,-1.05088416,0.07554591

>  <Name>
ligand

>  <RI>
0

>  <Rbt.Current_Directory>
/home/itssahil/PROJECTS/Mol_Feturizer/Test_systems_manuscript/rnas/3slm

>  <Rbt.Executable>
rbdock ($Id: //depot/dev/client3/rdock/2013.1/src/exe/rbdock.cxx#4 $)

>  <Rbt.Library>
libRbt.so (2013.1, Build901 2013/11/27)

>  <Rbt.Parameter_File>
/export/apps/rDock/src/rDock_2013.1_src/data/scripts/dock_solv.prm

>  <Rbt.Receptor>
prm/pocket_docking_7.prm

>  <SCORE>
-19.4426

>  <SCORE.INTER>
-13.3734

>  <SCORE.INTER.CONST>
1

>  <SCORE.INTER.POLAR>
0

>  <SCORE.INTER.ROT>
4

>  <SCORE.INTER.SOLV>
23.5154

>  <SCORE.INTER.VDW>
-23.0207

>  <SCORE.INTER.norm>
-0.581451

>  <SCORE.INTRA>
-6.06925

>  <SCORE.INTRA.DIHEDRAL>
-7.38321

>  <SCORE.INTRA.DIHEDRAL.0>
8.62657

>  <SCORE.INTRA.POLAR>
0

>  <SCORE.INTRA.POLAR.0>
0

>  <SCORE.INTRA.REPUL>
0

>  <SCORE.INTRA.REPUL.0>
0

>  <SCORE.INTRA.SOLV>
-0.00445248

>  <SCORE.INTRA.SOLV.lig_0>
-66.3641

>  <SCORE.INTRA.VDW>
-2.37542

>  <SCORE.INTRA.VDW.0>
0.452231

>  <SCORE.INTRA.norm>
-0.26388

>  <SCORE.RESTR>
0

>  <SCORE.RESTR.CAVITY>
0

>  <SCORE.RESTR.norm>
0

>  <SCORE.SYSTEM>
0

>  <SCORE.SYSTEM.CONST>
0

>  <SCORE.SYSTEM.DIHEDRAL>
0

>  <SCORE.SYSTEM.SOLV>
0

>  <SCORE.SYSTEM.norm>
0

>  <SCORE.heavy>
23

>  <SCORE.norm>
-0.845332

>  <RMSD>
3.968

$$$$
ligand
 OpenBabel02271912143D
libRbt.so/2013.1/901 2013/11/27
 23 25  0  0  0  0  0  0  0  0999 V2000
   20.4464    5.8262   31.6054 P   0  0  1  0  0  0  0  0  0  0  0  0
   20.2103    3.9317   29.8136 C   0  0  0  0  0  0  0  0  0  0  0  0
   20.4896    4.2801   31.1624 O   0  0  0  0  0  0  0  0  0  0  0  0
   20.3009    2.4259   29.7091 C   0  0  1  0  0  0  0  0  0  0  0  0
   19.4533    1.9068   28.6850 O   0  0  0  0  0  0  0  0  0  0  0  0
   21.7302    2.0346   29.3737 C   0  0  1  0  0  0  0  0  0  0  0  0
   22.1215    0.9691   30.2568 O   0  0  0  0  0  0  0  0  0  0  0  0
   21.6930    1.5889   27.9173 C   0  0  0  0  0  0  0  0  0  0  0  0
   20.2238    1.2642   27.6610 C   0  0  2  0  0  0  0  0  0  0  0  0
   17.4366    0.6034   23.3799 N   0  0  0  0  0  0  0  0  0  0  0  0
   17.6214   -0.2638   24.3886 C   0  0  2  0  0  0  0  0  0  0  0  0
   17.0058   -1.4664   24.3085 N   0  0  0  0  0  0  0  0  0  0  0  0
   18.3912    0.0595   25.4557 N   0  0  0  0  0  0  0  0  0  0  0  0
   18.9844    1.2699   25.5082 C   0  0  2  0  0  0  0  0  0  0  0  0
   18.8065    2.1703   24.4802 C   0  0  1  0  0  0  0  0  0  0  0  0
   18.0102    1.8201   23.4064 C   0  0  0  0  0  0  0  0  0  0  0  0
   17.8309    2.6249   22.4670 O   0  0  0  0  0  0  0  0  0  0  0  0
   19.5053    3.2845   24.7745 N   0  0  0  0  0  0  0  0  0  0  0  0
   20.0988    3.0821   25.9641 C   0  0  0  0  0  0  0  0  0  0  0  0
   19.7842    1.8549   26.3926 N   0  0  1  0  0  0  0  0  0  0  0  0
   21.5914    6.5176   30.9060 O   0  0  0  0  0  0  0  0  0  0  0  0
   19.0764    6.2919   31.1690 O   0  5  0  0  0  0  0  0  0  0  0  0
   20.6147    5.7472   33.0987 O   0  0  0  0  0  0  0  0  0  0  0  0
  1  3  1  6  0  0  0
  1 21  1  0  0  0  0
  1 22  1  0  0  0  0
  1 23  2  0  0  0  0
  2  3  1  0  0  0  0
  4  2  1  6  0  0  0
  4  5  1  0  0  0  0
  4  6  1  0  0  0  0
  6  7  1  1  0  0  0
  6  8  1  0  0  0  0
  8  9  1  0  0  0  0
  9  5  1  1  0  0  0
  9 20  1  0  0  0  0
 10 11  1  0  0  0  0
 10 16  1  0  0  0  0
 11 12  1  1  0  0  0
 11 13  1  0  0  0  0
 14 13  1  6  0  0  0
 14 15  1  0  0  0  0
 14 20  1  0  0  0  0
 15 16  1  1  0  0  0
 15 18  1  0  0  0  0
 16 17  2  0  0  0  0
 18 19  1  0  0  0  0
 20 19  1  1  0  0  0
M  CHG  1  22  -1
M  END
>  <CHROM.1>
-67.23530837,151.20176166,-178.95566217,-104.00410268,19.70773666,2.77385279
27.83723146,0.91866326,-1.07858123,0.45018626

>  <Name>
ligand

>  <RI>
416

>  <Rbt.Current_Directory>
/home/itssahil/PROJECTS/Mol_Feturizer/Test_systems_manuscript/rnas/3slm

>  <Rbt.Executable>
rbdock ($Id: //depot/dev/client3/rdock/2013.1/src/exe/rbdock.cxx#4 $)

>  <Rbt.Library>
libRbt.so (2013.1, Build901 2013/11/27)

>  <Rbt.Parameter_File>
/export/apps/rDock/src/rDock_2013.1_src/data/scripts/dock_solv.prm

>  <Rbt.Receptor>
prm/pocket_docking_5.prm

>  <SCORE>
-19.8735

>  <SCORE.INTER>
-15.5891

>  <SCORE.INTER.CONST>
1

>  <SCORE.INTER.POLAR>
0

>  <SCORE.INTER.ROT>
4

>  <SCORE.INTER.SOLV>
21.1837

>  <SCORE.INTER.VDW>
-23.7206

>  <SCORE.INTER.norm>
-0.677785

>  <SCORE.INTRA>
-4.28446

>  <SCORE.INTRA.DIHEDRAL>
-4.91849

>  <SCORE.INTRA.DIHEDRAL.0>
8.62657

>  <SCORE.INTRA.POLAR>
0

>  <SCORE.INTRA.POLAR.0>
0

>  <SCORE.INTRA.REPUL>
0

>  <SCORE.INTRA.REPUL.0>
0

>  <SCORE.INTRA.SOLV>
-0.594079

>  <SCORE.INTRA.SOLV.lig_0>
-66.3641

>  <SCORE.INTRA.VDW>
-1.52817

>  <SCORE.INTRA.VDW.0>
0.452231

>  <SCORE.INTRA.norm>
-0.186281

>  <SCORE.RESTR>
0

>  <SCORE.RESTR.CAVITY>
0

>  <SCORE.RESTR.norm>
0

>  <SCORE.SYSTEM>
0

>  <SCORE.SYSTEM.CONST>
0

>  <SCORE.SYSTEM.DIHEDRAL>
0

>  <SCORE.SYSTEM.SOLV>
0

>  <SCORE.SYSTEM.norm>
0

>  <SCORE.heavy>
23

>  <SCORE.norm>
-0.864066

>  <RMSD>
3.973

$$$$
ligand
 OpenBabel02271912143D
libRbt.so/2013.1/901 2013/11/27
 23 25  0  0  0  0  0  0  0  0999 V2000
   20.4913    5.7067   29.2114 P   0  0  1  0  0  0  0  0  0  0  0  0
   20.1579    3.3869   30.3787 C   0  0  0  0  0  0  0  0  0  0  0  0
   20.4698    4.0982   29.1889 O   0  0  0  0  0  0  0  0  0  0  0  0
   20.3696    1.9170   30.0934 C   0  0  1  0  0  0  0  0  0  0  0  0
   19.5035    1.4397   29.0644 O   0  0  0  0  0  0  0  0  0  0  0  0
   21.8017    1.6993   29.6351 C   0  0  1  0  0  0  0  0  0  0  0  0
   22.3400    0.5825   30.3639 O   0  0  0  0  0  0  0  0  0  0  0  0
   21.7065    1.4179   28.1408 C   0  0  0  0  0  0  0  0  0  0  0  0
   20.2567    0.9895   27.9306 C   0  0  2  0  0  0  0  0  0  0  0  0
   17.5305    0.4868   23.5893 N   0  0  0  0  0  0  0  0  0  0  0  0
   17.8950   -0.4748   24.4531 C   0  0  2  0  0  0  0  0  0  0  0  0
   17.5067   -1.7436   24.1866 N   0  0  0  0  0  0  0  0  0  0  0  0
   18.6195   -0.1817   25.5599 N   0  0  0  0  0  0  0  0  0  0  0  0
   18.9837    1.0948   25.8001 C   0  0  2  0  0  0  0  0  0  0  0  0
   18.6193    2.0929   24.9225 C   0  0  1  0  0  0  0  0  0  0  0  0
   17.8736    1.7697   23.8048 C   0  0  0  0  0  0  0  0  0  0  0  0
   17.5275    2.6613   22.9999 O   0  0  0  0  0  0  0  0  0  0  0  0
   19.1110    3.2585   25.3872 N   0  0  0  0  0  0  0  0  0  0  0  0
   19.7608    2.9901   26.5335 C   0  0  0  0  0  0  0  0  0  0  0  0
   19.6855    1.6753   26.7669 N   0  0  1  0  0  0  0  0  0  0  0  0
   21.4719    6.1199   30.2818 O   0  0  0  0  0  0  0  0  0  0  0  0
   20.9043    6.0851   27.8077 O   0  5  0  0  0  0  0  0  0  0  0  0
   19.0638    6.0520   29.5391 O   0  0  0  0  0  0  0  0  0  0  0  0
  1  3  1  1  0  0  0
  1 21  1  0  0  0  0
  1 22  1  0  0  0  0
  1 23  2  0  0  0  0
  2  3  1  0  0  0  0
  4  2  1  6  0  0  0
  4  5  1  0  0  0  0
  4  6  1  0  0  0  0
  6  7  1  1  0  0  0
  6  8  1  0  0  0  0
  8  9  1  0  0  0  0
  9  5  1  1  0  0  0
  9 20  1  0  0  0  0
 10 11  1  0  0  0  0
 10 16  1  0  0  0  0
 11 12  1  1  0  0  0
 11 13  1  0  0  0  0
 14 13  1  6  0  0  0
 14 15  1  0  0  0  0
 14 20  1  0  0  0  0
 15 16  1  1  0  0  0
 15 18  1  0  0  0  0
 16 17  2  0  0  0  0
 18 19  1  0  0  0  0
 20 19  1  1  0  0  0
M  CHG  1  22  -1
M  END
>  <CHROM.1>
56.63490583,-62.00036563,-173.65339139,-110.57654889,19.72155040,2.57352957
27.39795161,0.69017308,-1.05192326,0.11445084

>  <Name>
ligand

>  <RI>
416

>  <Rbt.Current_Directory>
/home/itssahil/PROJECTS/Mol_Feturizer/Test_systems_manuscript/rnas/3slm

>  <Rbt.Executable>
rbdock ($Id: //depot/dev/client3/rdock/2013.1/src/exe/rbdock.cxx#4 $)

>  <Rbt.Library>
libRbt.so (2013.1, Build901 2013/11/27)

>  <Rbt.Parameter_File>
/export/apps/rDock/src/rDock_2013.1_src/data/scripts/dock_solv.prm

>  <Rbt.Receptor>
prm/pocket_docking_6.prm

>  <SCORE>
-19.4286

>  <SCORE.INTER>
-13.5458

>  <SCORE.INTER.CONST>
1

>  <SCORE.INTER.POLAR>
0

>  <SCORE.INTER.ROT>
4

>  <SCORE.INTER.SOLV>
23.8742

>  <SCORE.INTER.VDW>
-23.2553

>  <SCORE.INTER.norm>
-0.588948

>  <SCORE.INTRA>
-5.88278

>  <SCORE.INTRA.DIHEDRAL>
-7.22608

>  <SCORE.INTRA.DIHEDRAL.0>
8.62657

>  <SCORE.INTRA.POLAR>
0

>  <SCORE.INTRA.POLAR.0>
0

>  <SCORE.INTRA.REPUL>
0

>  <SCORE.INTRA.REPUL.0>
0

>  <SCORE.INTRA.SOLV>
-0.0718359

>  <SCORE.INTRA.SOLV.lig_0>
-66.3641

>  <SCORE.INTRA.VDW>
-2.23382

>  <SCORE.INTRA.VDW.0>
0.452231

>  <SCORE.INTRA.norm>
-0.255773

>  <SCORE.RESTR>
0

>  <SCORE.RESTR.CAVITY>
0

>  <SCORE.RESTR.norm>
0

>  <SCORE.SYSTEM>
0

>  <SCORE.SYSTEM.CONST>
0

>  <SCORE.SYSTEM.DIHEDRAL>
0

>  <SCORE.SYSTEM.SOLV>
0

>  <SCORE.SYSTEM.norm>
0

>  <SCORE.heavy>
23

>  <SCORE.norm>
-0.844721

>  <RMSD>
3.989

$$$$
ligand
 OpenBabel02271912143D
libRbt.so/2013.1/901 2013/11/27
 23 25  0  0  0  0  0  0  0  0999 V2000
   20.5951    5.7182   29.0765 P   0  0  1  0  0  0  0  0  0  0  0  0
   20.2256    3.4366   30.3067 C   0  0  0  0  0  0  0  0  0  0  0  0
   20.5218    4.1111   29.0917 O   0  0  0  0  0  0  0  0  0  0  0  0
   20.3704    1.9542   30.0460 C   0  0  1  0  0  0  0  0  0  0  0  0
   19.5001    1.5040   29.0083 O   0  0  0  0  0  0  0  0  0  0  0  0
   21.7980    1.6607   29.6165 C   0  0  1  0  0  0  0  0  0  0  0  0
   22.2687    0.5301   30.3704 O   0  0  0  0  0  0  0  0  0  0  0  0
   21.7150    1.3620   28.1248 C   0  0  0  0  0  0  0  0  0  0  0  0
   20.2499    1.0012   27.8947 C   0  0  2  0  0  0  0  0  0  0  0  0
   17.4688    0.5965   23.5780 N   0  0  0  0  0  0  0  0  0  0  0  0
   17.7550   -0.3652   24.4707 C   0  0  2  0  0  0  0  0  0  0  0  0
   17.2594   -1.6042   24.2451 N   0  0  0  0  0  0  0  0  0  0  0  0
   18.5074   -0.1003   25.5659 N   0  0  0  0  0  0  0  0  0  0  0  0
   18.9795    1.1476   25.7651 C   0  0  2  0  0  0  0  0  0  0  0  0
   18.6964    2.1452   24.8574 C   0  0  1  0  0  0  0  0  0  0  0  0
   17.9203    1.8518   23.7523 C   0  0  0  0  0  0  0  0  0  0  0  0
   17.6467    2.7440   22.9206 O   0  0  0  0  0  0  0  0  0  0  0  0
   19.2873    3.2789   25.2841 N   0  0  0  0  0  0  0  0  0  0  0  0
   19.9179    2.9921   26.4366 C   0  0  0  0  0  0  0  0  0  0  0  0
   19.7328    1.6964   26.7114 N   0  0  1  0  0  0  0  0  0  0  0  0
   21.6034    6.1237   30.1239 O   0  0  0  0  0  0  0  0  0  0  0  0
   21.0004    6.0508   27.6590 O   0  5  0  0  0  0  0  0  0  0  0  0
   19.1842    6.1169   29.4150 O   0  0  0  0  0  0  0  0  0  0  0  0
  1  3  1  1  0  0  0
  1 21  1  0  0  0  0
  1 22  1  0  0  0  0
  1 23  2  0  0  0  0
  2  3  1  0  0  0  0
  4  2  1  6  0  0  0
  4  5  1  0  0  0  0
  4  6  1  0  0  0  0
  6  7  1  1  0  0  0
  6  8  1  0  0  0  0
  8  9  1  0  0  0  0
  9  5  1  1  0  0  0
  9 20  1  0  0  0  0
 10 11  1  0  0  0  0
 10 16  1  0  0  0  0
 11 12  1  1  0  0  0
 11 13  1  0  0  0  0
 14 13  1  6  0  0  0
 14 15  1  0  0  0  0
 14 20  1  0  0  0  0
 15 16  1  1  0  0  0
 15 18  1  0  0  0  0
 16 17  2  0  0  0  0
 18 19  1  0  0  0  0
 20 19  1  1  0  0  0
M  CHG  1  22  -1
M  END
>  <CHROM.1>
55.60410334,-58.89217482,-174.09531338,-107.97934616,19.75137589,2.60726197
27.33472642,0.59484792,-1.06125813,0.01985861

>  <Name>
ligand

>  <RI>
0

>  <Rbt.Current_Directory>
/home/itssahil/PROJECTS/Mol_Feturizer/Test_systems_manuscript/rnas/3slm

>  <Rbt.Executable>
rbdock ($Id: //depot/dev/client3/rdock/2013.1/src/exe/rbdock.cxx#4 $)

>  <Rbt.Library>
libRbt.so (2013.1, Build901 2013/11/27)

>  <Rbt.Parameter_File>
/export/apps/rDock/src/rDock_2013.1_src/data/scripts/dock_solv.prm

>  <Rbt.Receptor>
prm/pocket_docking_8.prm

>  <SCORE>
-19.5065

>  <SCORE.INTER>
-13.5884

>  <SCORE.INTER.CONST>
1

>  <SCORE.INTER.POLAR>
0

>  <SCORE.INTER.ROT>
4

>  <SCORE.INTER.SOLV>
23.0643

>  <SCORE.INTER.VDW>
-23.0137

>  <SCORE.INTER.norm>
-0.590801

>  <SCORE.INTRA>
-5.91808

>  <SCORE.INTRA.DIHEDRAL>
-7.25742

>  <SCORE.INTRA.DIHEDRAL.0>
8.62657

>  <SCORE.INTRA.POLAR>
0

>  <SCORE.INTRA.POLAR.0>
0

>  <SCORE.INTRA.REPUL>
0

>  <SCORE.INTRA.REPUL.0>
0

>  <SCORE.INTRA.SOLV>
-0.0350503

>  <SCORE.INTRA.SOLV.lig_0>
-66.3641

>  <SCORE.INTRA.VDW>
-2.27185

>  <SCORE.INTRA.VDW.0>
0.452231

>  <SCORE.INTRA.norm>
-0.257308

>  <SCORE.RESTR>
0

>  <SCORE.RESTR.CAVITY>
0

>  <SCORE.RESTR.norm>
0

>  <SCORE.SYSTEM>
0

>  <SCORE.SYSTEM.CONST>
0

>  <SCORE.SYSTEM.DIHEDRAL>
0

>  <SCORE.SYSTEM.SOLV>
0

>  <SCORE.SYSTEM.norm>
0

>  <SCORE.heavy>
23

>  <SCORE.norm>
-0.848109

>  <RMSD>
3.989

$$$$
ligand
 OpenBabel02271912143D
libRbt.so/2013.1/901 2013/11/27
 23 25  0  0  0  0  0  0  0  0999 V2000
   19.3866    5.1886   31.6650 P   0  0  1  0  0  0  0  0  0  0  0  0
   20.6181    4.4042   29.4916 C   0  0  0  0  0  0  0  0  0  0  0  0
   20.7224    4.9393   30.8037 O   0  0  0  0  0  0  0  0  0  0  0  0
   20.2963    2.9332   29.6293 C   0  0  1  0  0  0  0  0  0  0  0  0
   19.3604    2.4940   28.6453 O   0  0  0  0  0  0  0  0  0  0  0  0
   21.5710    2.1254   29.4530 C   0  0  1  0  0  0  0  0  0  0  0  0
   21.6383    1.1580   30.5150 O   0  0  0  0  0  0  0  0  0  0  0  0
   21.4436    1.4680   28.0845 C   0  0  0  0  0  0  0  0  0  0  0  0
   19.9471    1.5073   27.7865 C   0  0  2  0  0  0  0  0  0  0  0  0
   17.7295    0.4860   23.2510 N   0  0  0  0  0  0  0  0  0  0  0  0
   17.7336   -0.2727   24.3592 C   0  0  2  0  0  0  0  0  0  0  0  0
   17.0747   -1.4542   24.3183 N   0  0  0  0  0  0  0  0  0  0  0  0
   18.3686    0.1367   25.4838 N   0  0  0  0  0  0  0  0  0  0  0  0
   19.0094    1.3237   25.4935 C   0  0  2  0  0  0  0  0  0  0  0  0
   19.0163    2.1131   24.3640 C   0  0  1  0  0  0  0  0  0  0  0  0
   18.3546    1.6771   23.2318 C   0  0  0  0  0  0  0  0  0  0  0  0
   18.3435    2.3812   22.1990 O   0  0  0  0  0  0  0  0  0  0  0  0
   19.7245    3.2270   24.6364 N   0  0  0  0  0  0  0  0  0  0  0  0
   20.1422    3.1338   25.9112 C   0  0  0  0  0  0  0  0  0  0  0  0
   19.7118    1.9723   26.4156 N   0  0  1  0  0  0  0  0  0  0  0  0
   18.4279    5.9498   30.7820 O   0  0  0  0  0  0  0  0  0  0  0  0
   18.9252    3.7971   32.0324 O   0  5  0  0  0  0  0  0  0  0  0  0
   19.8916    5.9903   32.8341 O   0  0  0  0  0  0  0  0  0  0  0  0
  1  3  1  6  0  0  0
  1 21  1  0  0  0  0
  1 22  1  0  0  0  0
  1 23  2  0  0  0  0
  2  3  1  0  0  0  0
  4  2  1  6  0  0  0
  4  5  1  0  0  0  0
  4  6  1  0  0  0  0
  6  7  1  1  0  0  0
  6  8  1  0  0  0  0
  8  9  1  0  0  0  0
  9  5  1  1  0  0  0
  9 20  1  0  0  0  0
 10 11  1  0  0  0  0
 10 16  1  0  0  0  0
 11 12  1  1  0  0  0
 11 13  1  0  0  0  0
 14 13  1  6  0  0  0
 14 15  1  0  0  0  0
 14 20  1  0  0  0  0
 15 16  1  1  0  0  0
 15 18  1  0  0  0  0
 16 17  2  0  0  0  0
 18 19  1  0  0  0  0
 20 19  1  1  0  0  0
M  CHG  1  22  -1
M  END
>  <CHROM.1>
-49.50730116,141.12901714,-74.56387875,-118.64792499,19.46491120,2.68357669
27.82202252,1.14176446,-1.12404483,0.71083407

>  <Name>
ligand

>  <RI>
416

>  <Rbt.Current_Directory>
/home/itssahil/PROJECTS/Mol_Feturizer/Test_systems_manuscript/rnas/3slm

>  <Rbt.Executable>
rbdock ($Id: //depot/dev/client3/rdock/2013.1/src/exe/rbdock.cxx#4 $)

>  <Rbt.Library>
libRbt.so (2013.1, Build901 2013/11/27)

>  <Rbt.Parameter_File>
/export/apps/rDock/src/rDock_2013.1_src/data/scripts/dock_solv.prm

>  <Rbt.Receptor>
prm/pocket_docking_5.prm

>  <SCORE>
-19.2232

>  <SCORE.INTER>
-16.8312

>  <SCORE.INTER.CONST>
1

>  <SCORE.INTER.POLAR>
0

>  <SCORE.INTER.ROT>
4

>  <SCORE.INTER.SOLV>
23.1826

>  <SCORE.INTER.VDW>
-25.215

>  <SCORE.INTER.norm>
-0.731791

>  <SCORE.INTRA>
-2.39197

>  <SCORE.INTRA.DIHEDRAL>
-2.41698

>  <SCORE.INTRA.DIHEDRAL.0>
8.62657

>  <SCORE.INTRA.POLAR>
0

>  <SCORE.INTRA.POLAR.0>
0

>  <SCORE.INTRA.REPUL>
0

>  <SCORE.INTRA.REPUL.0>
0

>  <SCORE.INTRA.SOLV>
1.47996

>  <SCORE.INTRA.SOLV.lig_0>
-66.3641

>  <SCORE.INTRA.VDW>
-1.92346

>  <SCORE.INTRA.VDW.0>
0.452231

>  <SCORE.INTRA.norm>
-0.103999

>  <SCORE.RESTR>
0

>  <SCORE.RESTR.CAVITY>
0

>  <SCORE.RESTR.norm>
0

>  <SCORE.SYSTEM>
0

>  <SCORE.SYSTEM.CONST>
0

>  <SCORE.SYSTEM.DIHEDRAL>
0

>  <SCORE.SYSTEM.SOLV>
0

>  <SCORE.SYSTEM.norm>
0

>  <SCORE.heavy>
23

>  <SCORE.norm>
-0.83579

>  <RMSD>
3.993

$$$$
ligand
 OpenBabel02271912143D
libRbt.so/2013.1/901 2013/11/27
 23 25  0  0  0  0  0  0  0  0999 V2000
   19.4065    5.4674   31.3923 P   0  0  1  0  0  0  0  0  0  0  0  0
   20.8946    4.4441   29.4966 C   0  0  0  0  0  0  0  0  0  0  0  0
   19.7819    5.2573   29.8421 O   0  0  0  0  0  0  0  0  0  0  0  0
   20.4691    3.0030   29.6654 C   0  0  1  0  0  0  0  0  0  0  0  0
   19.4779    2.6207   28.7124 O   0  0  0  0  0  0  0  0  0  0  0  0
   21.6759    2.1007   29.4697 C   0  0  1  0  0  0  0  0  0  0  0  0
   21.6997    1.1457   30.5447 O   0  0  0  0  0  0  0  0  0  0  0  0
   21.4644    1.4358   28.1153 C   0  0  0  0  0  0  0  0  0  0  0  0
   19.9676    1.5816   27.8546 C   0  0  2  0  0  0  0  0  0  0  0  0
   17.7679    0.5389   23.3152 N   0  0  0  0  0  0  0  0  0  0  0  0
   17.7762   -0.2192   24.4238 C   0  0  2  0  0  0  0  0  0  0  0  0
   17.1275   -1.4062   24.3823 N   0  0  0  0  0  0  0  0  0  0  0  0
   18.4055    0.1963   25.5495 N   0  0  0  0  0  0  0  0  0  0  0  0
   19.0361    1.3887   25.5599 C   0  0  2  0  0  0  0  0  0  0  0  0
   19.0386    2.1775   24.4298 C   0  0  1  0  0  0  0  0  0  0  0  0
   18.3830    1.7353   23.2966 C   0  0  0  0  0  0  0  0  0  0  0  0
   18.3679    2.4386   22.2634 O   0  0  0  0  0  0  0  0  0  0  0  0
   19.7367    3.2975   24.7031 N   0  0  0  0  0  0  0  0  0  0  0  0
   20.1526    3.2086   25.9788 C   0  0  0  0  0  0  0  0  0  0  0  0
   19.7310    2.0438   26.4830 N   0  0  1  0  0  0  0  0  0  0  0  0
   18.6182    4.2548   31.8237 O   0  0  0  0  0  0  0  0  0  0  0  0
   20.7469    5.6150   32.0748 O   0  5  0  0  0  0  0  0  0  0  0  0
   18.5942    6.7339   31.3672 O   0  0  0  0  0  0  0  0  0  0  0  0
  1  3  1  6  0  0  0
  1 21  1  0  0  0  0
  1 22  1  0  0  0  0
  1 23  2  0  0  0  0
  2  3  1  0  0  0  0
  4  2  1  6  0  0  0
  4  5  1  0  0  0  0
  4  6  1  0  0  0  0
  6  7  1  1  0  0  0
  6  8  1  0  0  0  0
  8  9  1  0  0  0  0
  9  5  1  1  0  0  0
  9 20  1  0  0  0  0
 10 11  1  0  0  0  0
 10 16  1  0  0  0  0
 11 12  1  1  0  0  0
 11 13  1  0  0  0  0
 14 13  1  6  0  0  0
 14 15  1  0  0  0  0
 14 20  1  0  0  0  0
 15 16  1  1  0  0  0
 15 18  1  0  0  0  0
 16 17  2  0  0  0  0
 18 19  1  0  0  0  0
 20 19  1  1  0  0  0
M  CHG  1  22  -1
M  END
>  <CHROM.1>
-81.36466468,67.36575347,76.41630027,-123.69599156,19.50050926,2.80125929
27.77277545,1.17317020,-1.07688774,0.70799898

>  <Name>
ligand

>  <RI>
0

>  <Rbt.Current_Directory>
/home/itssahil/PROJECTS/Mol_Feturizer/Test_systems_manuscript/rnas/3slm

>  <Rbt.Executable>
rbdock ($Id: //depot/dev/client3/rdock/2013.1/src/exe/rbdock.cxx#4 $)

>  <Rbt.Library>
libRbt.so (2013.1, Build901 2013/11/27)

>  <Rbt.Parameter_File>
/export/apps/rDock/src/rDock_2013.1_src/data/scripts/dock_solv.prm

>  <Rbt.Receptor>
prm/blind_docking_60.prm

>  <SCORE>
-20.8263

>  <SCORE.INTER>
-16.5667

>  <SCORE.INTER.CONST>
1

>  <SCORE.INTER.POLAR>
0

>  <SCORE.INTER.ROT>
4

>  <SCORE.INTER.SOLV>
20.5714

>  <SCORE.INTER.VDW>
-24.1682

>  <SCORE.INTER.norm>
-0.72029

>  <SCORE.INTRA>
-4.25965

>  <SCORE.INTRA.DIHEDRAL>
-5.32019

>  <SCORE.INTRA.DIHEDRAL.0>
8.62657

>  <SCORE.INTRA.POLAR>
0

>  <SCORE.INTRA.POLAR.0>
0

>  <SCORE.INTRA.REPUL>
0

>  <SCORE.INTRA.REPUL.0>
0

>  <SCORE.INTRA.SOLV>
0.589069

>  <SCORE.INTRA.SOLV.lig_0>
-66.3641

>  <SCORE.INTRA.VDW>
-1.89408

>  <SCORE.INTRA.VDW.0>
0.452231

>  <SCORE.INTRA.norm>
-0.185202

>  <SCORE.RESTR>
0

>  <SCORE.RESTR.CAVITY>
0

>  <SCORE.RESTR.norm>
0

>  <SCORE.SYSTEM>
0

>  <SCORE.SYSTEM.CONST>
0

>  <SCORE.SYSTEM.DIHEDRAL>
0

>  <SCORE.SYSTEM.SOLV>
0

>  <SCORE.SYSTEM.norm>
0

>  <SCORE.heavy>
23

>  <SCORE.norm>
-0.905491

>  <RMSD>
4.006

$$$$
ligand
 OpenBabel02271912143D
libRbt.so/2013.1/901 2013/11/27
 23 25  0  0  0  0  0  0  0  0999 V2000
   19.5708    5.7326   31.4900 P   0  0  1  0  0  0  0  0  0  0  0  0
   20.5834    3.8120   30.0266 C   0  0  0  0  0  0  0  0  0  0  0  0
   19.8045    4.1758   31.1579 O   0  0  0  0  0  0  0  0  0  0  0  0
   20.5719    2.3025   29.9383 C   0  0  1  0  0  0  0  0  0  0  0  0
   19.5406    1.8230   29.0761 O   0  0  0  0  0  0  0  0  0  0  0  0
   21.9030    1.8255   29.3824 C   0  0  1  0  0  0  0  0  0  0  0  0
   22.3737    0.7482   30.2106 O   0  0  0  0  0  0  0  0  0  0  0  0
   21.6033    1.3680   27.9604 C   0  0  0  0  0  0  0  0  0  0  0  0
   20.0962    1.1264   27.9530 C   0  0  2  0  0  0  0  0  0  0  0  0
   17.5117    0.2718   23.5802 N   0  0  0  0  0  0  0  0  0  0  0  0
   17.9443   -0.6312   24.4752 C   0  0  2  0  0  0  0  0  0  0  0  0
   17.6769   -1.9361   24.2358 N   0  0  0  0  0  0  0  0  0  0  0  0
   18.6177   -0.2465   25.5862 N   0  0  0  0  0  0  0  0  0  0  0  0
   18.8609    1.0632   25.7988 C   0  0  2  0  0  0  0  0  0  0  0  0
   18.4255    2.0022   24.8889 C   0  0  1  0  0  0  0  0  0  0  0  0
   17.7338    1.5854   23.7675 C   0  0  0  0  0  0  0  0  0  0  0  0
   17.3248    2.4217   22.9335 O   0  0  0  0  0  0  0  0  0  0  0  0
   18.8012    3.2187   25.3311 N   0  0  0  0  0  0  0  0  0  0  0  0
   19.4500    3.0386   26.4951 C   0  0  0  0  0  0  0  0  0  0  0  0
   19.4886    1.7286   26.7619 N   0  0  1  0  0  0  0  0  0  0  0  0
   18.3965    6.1894   30.6592 O   0  0  0  0  0  0  0  0  0  0  0  0
   19.3257    5.7540   32.9812 O   0  5  0  0  0  0  0  0  0  0  0  0
   20.8764    6.3580   31.0794 O   0  0  0  0  0  0  0  0  0  0  0  0
  1  3  1  6  0  0  0
  1 21  1  0  0  0  0
  1 22  1  0  0  0  0
  1 23  2  0  0  0  0
  2  3  1  0  0  0  0
  4  2  1  6  0  0  0
  4  5  1  0  0  0  0
  4  6  1  0  0  0  0
  6  7  1  1  0  0  0
  6  8  1  0  0  0  0
  8  9  1  0  0  0  0
  9  5  1  1  0  0  0
  9 20  1  0  0  0  0
 10 11  1  0  0  0  0
 10 16  1  0  0  0  0
 11 12  1  1  0  0  0
 11 13  1  0  0  0  0
 14 13  1  6  0  0  0
 14 15  1  0  0  0  0
 14 20  1  0  0  0  0
 15 16  1  1  0  0  0
 15 18  1  0  0  0  0
 16 17  2  0  0  0  0
 18 19  1  0  0  0  0
 20 19  1  1  0  0  0
M  CHG  1  22  -1
M  END
>  <CHROM.1>
84.62140026,93.81672352,-177.46228619,-126.70478431,19.44531220,2.60295179
27.98216246,1.21325311,-0.88154006,0.71464699

>  <Name>
ligand

>  <RI>
0

>  <Rbt.Current_Directory>
/home/itssahil/PROJECTS/Mol_Feturizer/Test_systems_manuscript/rnas/3slm

>  <Rbt.Executable>
rbdock ($Id: //depot/dev/client3/rdock/2013.1/src/exe/rbdock.cxx#4 $)

>  <Rbt.Library>
libRbt.so (2013.1, Build901 2013/11/27)

>  <Rbt.Parameter_File>
/export/apps/rDock/src/rDock_2013.1_src/data/scripts/dock_solv.prm

>  <Rbt.Receptor>
prm/pocket_docking_8.prm

>  <SCORE>
-19.106

>  <SCORE.INTER>
-15.7221

>  <SCORE.INTER.CONST>
1

>  <SCORE.INTER.POLAR>
0

>  <SCORE.INTER.ROT>
4

>  <SCORE.INTER.SOLV>
24.5299

>  <SCORE.INTER.VDW>
-24.9247

>  <SCORE.INTER.norm>
-0.683569

>  <SCORE.INTRA>
-3.38387

>  <SCORE.INTRA.DIHEDRAL>
-3.3058

>  <SCORE.INTRA.DIHEDRAL.0>
8.62657

>  <SCORE.INTRA.POLAR>
0

>  <SCORE.INTRA.POLAR.0>
0

>  <SCORE.INTRA.REPUL>
0

>  <SCORE.INTRA.REPUL.0>
0

>  <SCORE.INTRA.SOLV>
-0.559151

>  <SCORE.INTRA.SOLV.lig_0>
-66.3641

>  <SCORE.INTRA.VDW>
-1.4514

>  <SCORE.INTRA.VDW.0>
0.452231

>  <SCORE.INTRA.norm>
-0.147125

>  <SCORE.RESTR>
0

>  <SCORE.RESTR.CAVITY>
0

>  <SCORE.RESTR.norm>
0

>  <SCORE.SYSTEM>
0

>  <SCORE.SYSTEM.CONST>
0

>  <SCORE.SYSTEM.DIHEDRAL>
0

>  <SCORE.SYSTEM.SOLV>
0

>  <SCORE.SYSTEM.norm>
0

>  <SCORE.heavy>
23

>  <SCORE.norm>
-0.830694

>  <RMSD>
4.072

$$$$
ligand
 OpenBabel02271912143D
libRbt.so/2013.1/901 2013/11/27
 23 25  0  0  0  0  0  0  0  0999 V2000
   19.7979    5.7770   31.3914 P   0  0  1  0  0  0  0  0  0  0  0  0
   20.9108    3.7277   30.2009 C   0  0  0  0  0  0  0  0  0  0  0  0
   19.8701    4.2086   31.0402 O   0  0  0  0  0  0  0  0  0  0  0  0
   20.7430    2.2291   30.0887 C   0  0  1  0  0  0  0  0  0  0  0  0
   19.7474    1.8706   29.1311 O   0  0  0  0  0  0  0  0  0  0  0  0
   22.0589    1.6119   29.6459 C   0  0  1  0  0  0  0  0  0  0  0  0
   22.3332    0.4849   30.4960 O   0  0  0  0  0  0  0  0  0  0  0  0
   21.8402    1.1979   28.1961 C   0  0  0  0  0  0  0  0  0  0  0  0
   20.3226    1.1233   28.0513 C   0  0  2  0  0  0  0  0  0  0  0  0
   17.6761    0.6988   23.6527 N   0  0  0  0  0  0  0  0  0  0  0  0
   17.8680   -0.2375   24.5961 C   0  0  2  0  0  0  0  0  0  0  0  0
   17.3019   -1.4519   24.4052 N   0  0  0  0  0  0  0  0  0  0  0  0
   18.5965    0.0290   25.7070 N   0  0  0  0  0  0  0  0  0  0  0  0
   19.1406    1.2525   25.8702 C   0  0  2  0  0  0  0  0  0  0  0  0
   18.9547    2.2238   24.9104 C   0  0  1  0  0  0  0  0  0  0  0  0
   18.2010    1.9299   23.7900 C   0  0  0  0  0  0  0  0  0  0  0  0
   18.0151    2.7989   22.9109 O   0  0  0  0  0  0  0  0  0  0  0  0
   19.6018    3.3363   25.3103 N   0  0  0  0  0  0  0  0  0  0  0  0
   20.1715    3.0631   26.4974 C   0  0  0  0  0  0  0  0  0  0  0  0
   19.8937    1.7953   26.8203 N   0  0  1  0  0  0  0  0  0  0  0  0
   21.1995    6.3225   31.2644 O   0  0  0  0  0  0  0  0  0  0  0  0
   18.8191    6.3314   30.3821 O   0  5  0  0  0  0  0  0  0  0  0  0
   19.2796    5.7761   32.8041 O   0  0  0  0  0  0  0  0  0  0  0  0
  1  3  1  6  0  0  0
  1 21  1  0  0  0  0
  1 22  1  0  0  0  0
  1 23  2  0  0  0  0
  2  3  1  0  0  0  0
  4  2  1  6  0  0  0
  4  5  1  0  0  0  0
  4  6  1  0  0  0  0
  6  7  1  1  0  0  0
  6  8  1  0  0  0  0
  8  9  1  0  0  0  0
  9  5  1  1  0  0  0
  9 20  1  0  0  0  0
 10 11  1  0  0  0  0
 10 16  1  0  0  0  0
 11 12  1  1  0  0  0
 11 13  1  0  0  0  0
 14 13  1  6  0  0  0
 14 15  1  0  0  0  0
 14 20  1  0  0  0  0
 15 16  1  1  0  0  0
 15 18  1  0  0  0  0
 16 17  2  0  0  0  0
 18 19  1  0  0  0  0
 20 19  1  1  0  0  0
M  CHG  1  22  -1
M  END
>  <CHROM.1>
-25.55344408,80.78164935,178.30353557,-117.71095095,19.69465181,2.69848293
28.03135423,1.14829666,-0.97540674,0.67111187

>  <Name>
ligand

>  <RI>
0

>  <Rbt.Current_Directory>
/home/itssahil/PROJECTS/Mol_Feturizer/Test_systems_manuscript/rnas/3slm

>  <Rbt.Executable>
rbdock ($Id: //depot/dev/client3/rdock/2013.1/src/exe/rbdock.cxx#4 $)

>  <Rbt.Library>
libRbt.so (2013.1, Build901 2013/11/27)

>  <Rbt.Parameter_File>
/export/apps/rDock/src/rDock_2013.1_src/data/scripts/dock_solv.prm

>  <Rbt.Receptor>
prm/pocket_docking_8.prm

>  <SCORE>
-18.9808

>  <SCORE.INTER>
-14.6862

>  <SCORE.INTER.CONST>
1

>  <SCORE.INTER.POLAR>
0

>  <SCORE.INTER.ROT>
4

>  <SCORE.INTER.SOLV>
21.9612

>  <SCORE.INTER.VDW>
-23.3778

>  <SCORE.INTER.norm>
-0.638529

>  <SCORE.INTRA>
-4.29465

>  <SCORE.INTRA.DIHEDRAL>
-4.48926

>  <SCORE.INTRA.DIHEDRAL.0>
8.62657

>  <SCORE.INTRA.POLAR>
0

>  <SCORE.INTRA.POLAR.0>
0

>  <SCORE.INTRA.REPUL>
0

>  <SCORE.INTRA.REPUL.0>
0

>  <SCORE.INTRA.SOLV>
-1.0076

>  <SCORE.INTRA.SOLV.lig_0>
-66.3641

>  <SCORE.INTRA.VDW>
-1.54622

>  <SCORE.INTRA.VDW.0>
0.452231

>  <SCORE.INTRA.norm>
-0.186724

>  <SCORE.RESTR>
0

>  <SCORE.RESTR.CAVITY>
0

>  <SCORE.RESTR.norm>
0

>  <SCORE.SYSTEM>
0

>  <SCORE.SYSTEM.CONST>
0

>  <SCORE.SYSTEM.DIHEDRAL>
0

>  <SCORE.SYSTEM.SOLV>
0

>  <SCORE.SYSTEM.norm>
0

>  <SCORE.heavy>
23

>  <SCORE.norm>
-0.825252

>  <RMSD>
4.084

$$$$
ligand
 OpenBabel02271912143D
libRbt.so/2013.1/901 2013/11/27
 23 25  0  0  0  0  0  0  0  0999 V2000
   19.9621    5.7805   29.9853 P   0  0  1  0  0  0  0  0  0  0  0  0
   21.2357    3.5215   30.3455 C   0  0  0  0  0  0  0  0  0  0  0  0
   19.9876    4.1931   30.2452 O   0  0  0  0  0  0  0  0  0  0  0  0
   20.9613    2.0397   30.2208 C   0  0  1  0  0  0  0  0  0  0  0  0
   19.9404    1.7614   29.2631 O   0  0  0  0  0  0  0  0  0  0  0  0
   22.2288    1.3343   29.7688 C   0  0  1  0  0  0  0  0  0  0  0  0
   22.4241    0.1831   30.6083 O   0  0  0  0  0  0  0  0  0  0  0  0
   21.9778    0.9498   28.3161 C   0  0  0  0  0  0  0  0  0  0  0  0
   20.4584    0.9847   28.1751 C   0  0  2  0  0  0  0  0  0  0  0  0
   17.7672    0.7941   23.7873 N   0  0  0  0  0  0  0  0  0  0  0  0
   17.8925   -0.1612   24.7229 C   0  0  2  0  0  0  0  0  0  0  0  0
   17.2357   -1.3281   24.5261 N   0  0  0  0  0  0  0  0  0  0  0  0
   18.6441    0.0413   25.8319 N   0  0  0  0  0  0  0  0  0  0  0  0
   19.2795    1.2191   26.0012 C   0  0  2  0  0  0  0  0  0  0  0  0
   19.1628    2.2089   25.0494 C   0  0  1  0  0  0  0  0  0  0  0  0
   18.3839    1.9811   23.9308 C   0  0  0  0  0  0  0  0  0  0  0  0
   18.2599    2.8683   23.0591 O   0  0  0  0  0  0  0  0  0  0  0  0
   19.8936    3.2665   25.4540 N   0  0  0  0  0  0  0  0  0  0  0  0
   20.4465    2.9422   26.6361 C   0  0  0  0  0  0  0  0  0  0  0  0
   20.0756    1.6964   26.9512 N   0  0  1  0  0  0  0  0  0  0  0  0
   20.7240    6.4253   31.1174 O   0  0  0  0  0  0  0  0  0  0  0  0
   20.6093    5.9379   28.6286 O   0  5  0  0  0  0  0  0  0  0  0  0
   18.4903    6.0939   29.9969 O   0  0  0  0  0  0  0  0  0  0  0  0
  1  3  1  1  0  0  0
  1 21  1  0  0  0  0
  1 22  1  0  0  0  0
  1 23  2  0  0  0  0
  2  3  1  0  0  0  0
  4  2  1  6  0  0  0
  4  5  1  0  0  0  0
  4  6  1  0  0  0  0
  6  7  1  1  0  0  0
  6  8  1  0  0  0  0
  8  9  1  0  0  0  0
  9  5  1  1  0  0  0
  9 20  1  0  0  0  0
 10 11  1  0  0  0  0
 10 16  1  0  0  0  0
 11 12  1  1  0  0  0
 11 13  1  0  0  0  0
 14 13  1  6  0  0  0
 14 15  1  0  0  0  0
 14 20  1  0  0  0  0
 15 16  1  1  0  0  0
 15 18  1  0  0  0  0
 16 17  2  0  0  0  0
 18 19  1  0  0  0  0
 20 19  1  1  0  0  0
M  CHG  1  22  -1
M  END
>  <CHROM.1>
-58.24471966,38.13874408,-165.36326025,-117.43612407,19.85561835,2.64247798
27.73922991,0.96125768,-1.01965682,0.43770201

>  <Name>
ligand

>  <RI>
416

>  <Rbt.Current_Directory>
/home/itssahil/PROJECTS/Mol_Feturizer/Test_systems_manuscript/rnas/3slm

>  <Rbt.Executable>
rbdock ($Id: //depot/dev/client3/rdock/2013.1/src/exe/rbdock.cxx#4 $)

>  <Rbt.Library>
libRbt.so (2013.1, Build901 2013/11/27)

>  <Rbt.Parameter_File>
/export/apps/rDock/src/rDock_2013.1_src/data/scripts/dock_solv.prm

>  <Rbt.Receptor>
prm/pocket_docking_4.prm

>  <SCORE>
-16.0702

>  <SCORE.INTER>
-11.5858

>  <SCORE.INTER.CONST>
1

>  <SCORE.INTER.POLAR>
0

>  <SCORE.INTER.ROT>
4

>  <SCORE.INTER.SOLV>
21.6414

>  <SCORE.INTER.VDW>
-21.2043

>  <SCORE.INTER.norm>
-0.503729

>  <SCORE.INTRA>
-4.64824

>  <SCORE.INTRA.DIHEDRAL>
-4.87013

>  <SCORE.INTRA.DIHEDRAL.0>
8.62657

>  <SCORE.INTRA.POLAR>
0

>  <SCORE.INTRA.POLAR.0>
0

>  <SCORE.INTRA.REPUL>
0

>  <SCORE.INTRA.REPUL.0>
0

>  <SCORE.INTRA.SOLV>
-0.270013

>  <SCORE.INTRA.SOLV.lig_0>
-66.3641

>  <SCORE.INTRA.VDW>
-2.07817

>  <SCORE.INTRA.VDW.0>
0.452231

>  <SCORE.INTRA.norm>
-0.202097

>  <SCORE.RESTR>
0.163851

>  <SCORE.RESTR.CAVITY>
0.163851

>  <SCORE.RESTR.norm>
0.00712396

>  <SCORE.SYSTEM>
0

>  <SCORE.SYSTEM.CONST>
0

>  <SCORE.SYSTEM.DIHEDRAL>
0

>  <SCORE.SYSTEM.SOLV>
0

>  <SCORE.SYSTEM.norm>
0

>  <SCORE.heavy>
23

>  <SCORE.norm>
-0.698703

>  <RMSD>
4.085

$$$$
ligand
 OpenBabel02271912143D
libRbt.so/2013.1/901 2013/11/27
 23 25  0  0  0  0  0  0  0  0999 V2000
   19.7192    5.3510   32.4919 P   0  0  1  0  0  0  0  0  0  0  0  0
   21.5953    4.1706   31.0983 C   0  0  0  0  0  0  0  0  0  0  0  0
   20.5680    5.1512   31.1399 O   0  0  0  0  0  0  0  0  0  0  0  0
   20.9246    2.8154   31.0934 C   0  0  1  0  0  0  0  0  0  0  0  0
   19.9303    2.7121   30.0748 O   0  0  0  0  0  0  0  0  0  0  0  0
   21.9694    1.7429   30.8348 C   0  0  1  0  0  0  0  0  0  0  0  0
   21.7793    0.6916   31.7974 O   0  0  0  0  0  0  0  0  0  0  0  0
   21.7143    1.2695   29.4093 C   0  0  0  0  0  0  0  0  0  0  0  0
   20.2781    1.6990   29.1219 C   0  0  2  0  0  0  0  0  0  0  0  0
   18.1668    1.5243   24.4269 N   0  0  0  0  0  0  0  0  0  0  0  0
   17.9947    0.6639   25.4436 C   0  0  2  0  0  0  0  0  0  0  0  0
   17.1624   -0.3854   25.2493 N   0  0  0  0  0  0  0  0  0  0  0  0
   18.6267    0.8468   26.6281 N   0  0  0  0  0  0  0  0  0  0  0  0
   19.4437    1.9077   26.7915 C   0  0  2  0  0  0  0  0  0  0  0  0
   19.6325    2.7987   25.7573 C   0  0  1  0  0  0  0  0  0  0  0  0
   18.9705    2.5948   24.5614 C   0  0  0  0  0  0  0  0  0  0  0  0
   19.1232    3.3948   23.6133 O   0  0  0  0  0  0  0  0  0  0  0  0
   20.4909    3.7496   26.1759 N   0  0  0  0  0  0  0  0  0  0  0  0
   20.8221    3.4586   27.4463 C   0  0  0  0  0  0  0  0  0  0  0  0
   20.1898    2.3356   27.8036 N   0  0  1  0  0  0  0  0  0  0  0  0
   18.7383    4.2066   32.5703 O   0  0  0  0  0  0  0  0  0  0  0  0
   20.7658    5.3510   33.5823 O   0  5  0  0  0  0  0  0  0  0  0  0
   19.0650    6.6890   32.2771 O   0  0  0  0  0  0  0  0  0  0  0  0
  1  3  1  6  0  0  0
  1 21  1  0  0  0  0
  1 22  1  0  0  0  0
  1 23  2  0  0  0  0
  2  3  1  0  0  0  0
  4  2  1  6  0  0  0
  4  5  1  0  0  0  0
  4  6  1  0  0  0  0
  6  7  1  1  0  0  0
  6  8  1  0  0  0  0
  8  9  1  0  0  0  0
  9  5  1  1  0  0  0
  9 20  1  0  0  0  0
 10 11  1  0  0  0  0
 10 16  1  0  0  0  0
 11 12  1  1  0  0  0
 11 13  1  0  0  0  0
 14 13  1  6  0  0  0
 14 15  1  0  0  0  0
 14 20  1  0  0  0  0
 15 16  1  1  0  0  0
 15 18  1  0  0  0  0
 16 17  2  0  0  0  0
 18 19  1  0  0  0  0
 20 19  1  1  0  0  0
M  CHG  1  22  -1
M  END
>  <CHROM.1>
-76.40951138,51.96121856,71.29970514,-123.97365135,19.89929677,3.01290443
29.00778514,1.11013139,-1.12374420,0.76066891

>  <Name>
ligand

>  <RI>
416

>  <Rbt.Current_Directory>
/home/itssahil/PROJECTS/Mol_Feturizer/Test_systems_manuscript/rnas/3slm

>  <Rbt.Executable>
rbdock ($Id: //depot/dev/client3/rdock/2013.1/src/exe/rbdock.cxx#4 $)

>  <Rbt.Library>
libRbt.so (2013.1, Build901 2013/11/27)

>  <Rbt.Parameter_File>
/export/apps/rDock/src/rDock_2013.1_src/data/scripts/dock_solv.prm

>  <Rbt.Receptor>
prm/pocket_docking_6.prm

>  <SCORE>
-18.8799

>  <SCORE.INTER>
-14.1648

>  <SCORE.INTER.CONST>
1

>  <SCORE.INTER.POLAR>
0

>  <SCORE.INTER.ROT>
4

>  <SCORE.INTER.SOLV>
27.2522

>  <SCORE.INTER.VDW>
-24.7939

>  <SCORE.INTER.norm>
-0.615862

>  <SCORE.INTRA>
-4.71512

>  <SCORE.INTRA.DIHEDRAL>
-6.17821

>  <SCORE.INTRA.DIHEDRAL.0>
8.62657

>  <SCORE.INTRA.POLAR>
0

>  <SCORE.INTRA.POLAR.0>
0

>  <SCORE.INTRA.REPUL>
0

>  <SCORE.INTRA.REPUL.0>
0

>  <SCORE.INTRA.SOLV>
0.621783

>  <SCORE.INTRA.SOLV.lig_0>
-66.3641

>  <SCORE.INTRA.VDW>
-1.9369

>  <SCORE.INTRA.VDW.0>
0.452231

>  <SCORE.INTRA.norm>
-0.205005

>  <SCORE.RESTR>
0

>  <SCORE.RESTR.CAVITY>
0

>  <SCORE.RESTR.norm>
0

>  <SCORE.SYSTEM>
0

>  <SCORE.SYSTEM.CONST>
0

>  <SCORE.SYSTEM.DIHEDRAL>
0

>  <SCORE.SYSTEM.SOLV>
0

>  <SCORE.SYSTEM.norm>
0

>  <SCORE.heavy>
23

>  <SCORE.norm>
-0.820867

>  <RMSD>
4.232

$$$$
ligand
 OpenBabel02271912143D
libRbt.so/2013.1/901 2013/11/27
 23 25  0  0  0  0  0  0  0  0999 V2000
   21.0103    2.5485   27.6932 P   0  0  1  0  0  0  0  0  0  0  0  0
   18.7026    2.1148   26.5349 C   0  0  0  0  0  0  0  0  0  0  0  0
   19.5646    3.0384   27.1851 O   0  0  0  0  0  0  0  0  0  0  0  0
   19.2304    1.9168   25.1318 C   0  0  1  0  0  0  0  0  0  0  0  0
   18.8244    0.6662   24.5769 O   0  0  0  0  0  0  0  0  0  0  0  0
   18.6925    3.0203   24.2365 C   0  0  1  0  0  0  0  0  0  0  0  0
   19.7887    3.5500   23.4712 O   0  0  0  0  0  0  0  0  0  0  0  0
   17.6481    2.3479   23.3543 C   0  0  0  0  0  0  0  0  0  0  0  0
   17.9977    0.8637   23.4224 C   0  0  2  0  0  0  0  0  0  0  0  0
   12.9659    0.3585   22.4436 N   0  0  0  0  0  0  0  0  0  0  0  0
   13.7954    1.3305   22.0302 C   0  0  2  0  0  0  0  0  0  0  0  0
   13.2819    2.3096   21.2498 N   0  0  0  0  0  0  0  0  0  0  0  0
   15.1055    1.3247   22.3758 N   0  0  0  0  0  0  0  0  0  0  0  0
   15.5872    0.3295   23.1486 C   0  0  2  0  0  0  0  0  0  0  0  0
   14.7487   -0.6743   23.5827 C   0  0  1  0  0  0  0  0  0  0  0  0
   13.4181   -0.6504   23.2102 C   0  0  0  0  0  0  0  0  0  0  0  0
   12.6425   -1.5549   23.5881 O   0  0  0  0  0  0  0  0  0  0  0  0
   15.4716   -1.5269   24.3355 N   0  0  0  0  0  0  0  0  0  0  0  0
   16.7344   -1.0654   24.3619 C   0  0  0  0  0  0  0  0  0  0  0  0
   16.7890    0.0645   23.6484 N   0  0  1  0  0  0  0  0  0  0  0  0
   20.8010    1.2506   28.4347 O   0  0  0  0  0  0  0  0  0  0  0  0
   21.8178    2.4174   26.4223 O   0  5  0  0  0  0  0  0  0  0  0  0
   21.4510    3.6820   28.5794 O   0  0  0  0  0  0  0  0  0  0  0  0
  1  3  1  6  0  0  0
  1 21  1  0  0  0  0
  1 22  1  0  0  0  0
  1 23  2  0  0  0  0
  2  3  1  0  0  0  0
  4  2  1  1  0  0  0
  4  5  1  0  0  0  0
  4  6  1  0  0  0  0
  6  7  1  6  0  0  0
  6  8  1  0  0  0  0
  8  9  1  0  0  0  0
  9  5  1  1  0  0  0
  9 20  1  0  0  0  0
 10 11  1  0  0  0  0
 10 16  1  0  0  0  0
 11 12  1  6  0  0  0
 11 13  1  0  0  0  0
 14 13  1  1  0  0  0
 14 15  1  0  0  0  0
 14 20  1  0  0  0  0
 15 16  1  6  0  0  0
 15 18  1  0  0  0  0
 16 17  2  0  0  0  0
 18 19  1  0  0  0  0
 20 19  1  6  0  0  0
M  CHG  1  22  -1
M  END
>  <CHROM.1>
-47.54725326,156.00907964,-75.57750479,152.07571687,17.55058560,1.33026444
24.74071229,0.14885948,0.62976227,2.37001784

>  <Name>
ligand

>  <RI>
0

>  <Rbt.Current_Directory>
/home/itssahil/PROJECTS/Mol_Feturizer/Test_systems_manuscript/rnas/3slm

>  <Rbt.Executable>
rbdock ($Id: //depot/dev/client3/rdock/2013.1/src/exe/rbdock.cxx#4 $)

>  <Rbt.Library>
libRbt.so (2013.1, Build901 2013/11/27)

>  <Rbt.Parameter_File>
/export/apps/rDock/src/rDock_2013.1_src/data/scripts/dock_solv.prm

>  <Rbt.Receptor>
prm/pocket_docking_7.prm

>  <SCORE>
-16.6811

>  <SCORE.INTER>
-14.2482

>  <SCORE.INTER.CONST>
1

>  <SCORE.INTER.POLAR>
0

>  <SCORE.INTER.ROT>
4

>  <SCORE.INTER.SOLV>
25.0274

>  <SCORE.INTER.VDW>
-24.1079

>  <SCORE.INTER.norm>
-0.619485

>  <SCORE.INTRA>
-2.43293

>  <SCORE.INTRA.DIHEDRAL>
-4.26544

>  <SCORE.INTRA.DIHEDRAL.0>
8.62657

>  <SCORE.INTRA.POLAR>
0

>  <SCORE.INTRA.POLAR.0>
0

>  <SCORE.INTRA.REPUL>
0

>  <SCORE.INTRA.REPUL.0>
0

>  <SCORE.INTRA.SOLV>
1.54101

>  <SCORE.INTRA.SOLV.lig_0>
-66.3641

>  <SCORE.INTRA.VDW>
-1.07071

>  <SCORE.INTRA.VDW.0>
0.452231

>  <SCORE.INTRA.norm>
-0.105779

>  <SCORE.RESTR>
0

>  <SCORE.RESTR.CAVITY>
0

>  <SCORE.RESTR.norm>
0

>  <SCORE.SYSTEM>
0

>  <SCORE.SYSTEM.CONST>
0

>  <SCORE.SYSTEM.DIHEDRAL>
0

>  <SCORE.SYSTEM.SOLV>
0

>  <SCORE.SYSTEM.norm>
0

>  <SCORE.heavy>
23

>  <SCORE.norm>
-0.725264

>  <RMSD>
4.806

$$$$
ligand
 OpenBabel02271912143D
libRbt.so/2013.1/901 2013/11/27
 23 25  0  0  0  0  0  0  0  0999 V2000
   20.1613    3.1966   28.1047 P   0  0  1  0  0  0  0  0  0  0  0  0
   18.9571    2.3702   25.9316 C   0  0  0  0  0  0  0  0  0  0  0  0
   20.1203    2.9383   26.5172 O   0  0  0  0  0  0  0  0  0  0  0  0
   19.2654    2.1157   24.4732 C   0  0  1  0  0  0  0  0  0  0  0  0
   18.9632    0.7755   24.0866 O   0  0  0  0  0  0  0  0  0  0  0  0
   18.4261    3.0483   23.6162 C   0  0  1  0  0  0  0  0  0  0  0  0
   19.2867    3.6477   22.6323 O   0  0  0  0  0  0  0  0  0  0  0  0
   17.3606    2.1618   22.9836 C   0  0  0  0  0  0  0  0  0  0  0  0
   17.9343    0.7513   23.0886 C   0  0  2  0  0  0  0  0  0  0  0  0
   12.9227   -0.4353   23.1812 N   0  0  0  0  0  0  0  0  0  0  0  0
   13.5146    0.6084   22.5778 C   0  0  2  0  0  0  0  0  0  0  0  0
   12.7285    1.4701   21.8914 N   0  0  0  0  0  0  0  0  0  0  0  0
   14.8560    0.7864   22.6464 N   0  0  0  0  0  0  0  0  0  0  0  0
   15.6118   -0.0956   23.3323 C   0  0  2  0  0  0  0  0  0  0  0  0
   15.0196   -1.1708   23.9589 C   0  0  1  0  0  0  0  0  0  0  0  0
   13.6505   -1.3349   23.8676 C   0  0  0  0  0  0  0  0  0  0  0  0
   13.0948   -2.3070   24.4232 O   0  0  0  0  0  0  0  0  0  0  0  0
   15.9863   -1.8824   24.5715 N   0  0  0  0  0  0  0  0  0  0  0  0
   17.1553   -1.2654   24.3240 C   0  0  0  0  0  0  0  0  0  0  0  0
   16.9137   -0.1793   23.5818 N   0  0  1  0  0  0  0  0  0  0  0  0
   19.6195    1.9538   28.7680 O   0  0  0  0  0  0  0  0  0  0  0  0
   21.6196    3.4713   28.3914 O   0  5  0  0  0  0  0  0  0  0  0  0
   19.2725    4.3999   28.2671 O   0  0  0  0  0  0  0  0  0  0  0  0
  1  3  1  6  0  0  0
  1 21  1  0  0  0  0
  1 22  1  0  0  0  0
  1 23  2  0  0  0  0
  2  3  1  0  0  0  0
  4  2  1  1  0  0  0
  4  5  1  0  0  0  0
  4  6  1  0  0  0  0
  6  7  1  6  0  0  0
  6  8  1  0  0  0  0
  8  9  1  0  0  0  0
  9  5  1  1  0  0  0
  9 20  1  0  0  0  0
 10 11  1  0  0  0  0
 10 16  1  0  0  0  0
 11 12  1  6  0  0  0
 11 13  1  0  0  0  0
 14 13  1  1  0  0  0
 14 15  1  0  0  0  0
 14 20  1  0  0  0  0
 15 16  1  6  0  0  0
 15 18  1  0  0  0  0
 16 17  2  0  0  0  0
 18 19  1  0  0  0  0
 20 19  1  6  0  0  0
M  CHG  1  22  -1
M  END
>  <CHROM.1>
45.30276483,128.31676706,-174.18499209,149.22401715,17.33866832,1.27922976
24.85112495,0.27288491,0.70404811,2.00809009

>  <Name>
ligand

>  <RI>
416

>  <Rbt.Current_Directory>
/home/itssahil/PROJECTS/Mol_Feturizer/Test_systems_manuscript/rnas/3slm

>  <Rbt.Executable>
rbdock ($Id: //depot/dev/client3/rdock/2013.1/src/exe/rbdock.cxx#4 $)

>  <Rbt.Library>
libRbt.so (2013.1, Build901 2013/11/27)

>  <Rbt.Parameter_File>
/export/apps/rDock/src/rDock_2013.1_src/data/scripts/dock_solv.prm

>  <Rbt.Receptor>
prm/pocket_docking_6.prm

>  <SCORE>
-16.7463

>  <SCORE.INTER>
-14.7181

>  <SCORE.INTER.CONST>
1

>  <SCORE.INTER.POLAR>
0

>  <SCORE.INTER.ROT>
4

>  <SCORE.INTER.SOLV>
28.4953

>  <SCORE.INTER.VDW>
-25.5771

>  <SCORE.INTER.norm>
-0.639917

>  <SCORE.INTRA>
-2.21491

>  <SCORE.INTRA.DIHEDRAL>
-1.97219

>  <SCORE.INTRA.DIHEDRAL.0>
8.62657

>  <SCORE.INTRA.POLAR>
0

>  <SCORE.INTRA.POLAR.0>
0

>  <SCORE.INTRA.REPUL>
0

>  <SCORE.INTRA.REPUL.0>
0

>  <SCORE.INTRA.SOLV>
-0.892479

>  <SCORE.INTRA.SOLV.lig_0>
-66.3641

>  <SCORE.INTRA.VDW>
-0.782578

>  <SCORE.INTRA.VDW.0>
0.452231

>  <SCORE.INTRA.norm>
-0.0963006

>  <SCORE.RESTR>
0.186694

>  <SCORE.RESTR.CAVITY>
0.186694

>  <SCORE.RESTR.norm>
0.00811712

>  <SCORE.SYSTEM>
0

>  <SCORE.SYSTEM.CONST>
0

>  <SCORE.SYSTEM.DIHEDRAL>
0

>  <SCORE.SYSTEM.SOLV>
0

>  <SCORE.SYSTEM.norm>
0

>  <SCORE.heavy>
23

>  <SCORE.norm>
-0.7281

>  <RMSD>
5.085

$$$$
ligand
 OpenBabel02271912143D
libRbt.so/2013.1/901 2013/11/27
 23 25  0  0  0  0  0  0  0  0999 V2000
   22.9083    1.0026   31.8169 P   0  0  1  0  0  0  0  0  0  0  0  0
   24.2761   -1.0858   31.0276 C   0  0  0  0  0  0  0  0  0  0  0  0
   24.2798    0.2950   31.3623 O   0  0  0  0  0  0  0  0  0  0  0  0
   24.4723   -1.1874   29.5317 C   0  0  1  0  0  0  0  0  0  0  0  0
   23.5759   -0.3399   28.8139 O   0  0  0  0  0  0  0  0  0  0  0  0
   25.8902   -0.7656   29.1851 C   0  0  1  0  0  0  0  0  0  0  0  0
   26.4425   -1.7460   28.2895 O   0  0  0  0  0  0  0  0  0  0  0  0
   25.7527    0.6012   28.5263 C   0  0  0  0  0  0  0  0  0  0  0  0
   24.2954    0.6563   28.0756 C   0  0  2  0  0  0  0  0  0  0  0  0
   20.3571    3.8960   27.3501 N   0  0  0  0  0  0  0  0  0  0  0  0
   20.5749    2.7122   26.7542 C   0  0  2  0  0  0  0  0  0  0  0  0
   19.6617    2.2811   25.8532 N   0  0  0  0  0  0  0  0  0  0  0  0
   21.6685    1.9703   27.0533 N   0  0  0  0  0  0  0  0  0  0  0  0
   22.5554    2.4255   27.9620 C   0  0  2  0  0  0  0  0  0  0  0  0
   22.3474    3.6391   28.5809 C   0  0  1  0  0  0  0  0  0  0  0  0
   21.2204    4.3737   28.2647 C   0  0  0  0  0  0  0  0  0  0  0  0
   21.0101    5.4738   28.8196 O   0  0  0  0  0  0  0  0  0  0  0  0
   23.3732    3.8583   29.4271 N   0  0  0  0  0  0  0  0  0  0  0  0
   24.1969    2.7989   29.3404 C   0  0  0  0  0  0  0  0  0  0  0  0
   23.6961    1.9437   28.4423 N   0  0  1  0  0  0  0  0  0  0  0  0
   22.0220    1.0715   30.5972 O   0  0  0  0  0  0  0  0  0  0  0  0
   22.3854    0.1094   32.9182 O   0  5  0  0  0  0  0  0  0  0  0  0
   23.3748    2.3503   32.2970 O   0  0  0  0  0  0  0  0  0  0  0  0
  1  3  1  6  0  0  0
  1 21  1  0  0  0  0
  1 22  1  0  0  0  0
  1 23  2  0  0  0  0
  2  3  1  0  0  0  0
  4  2  1  1  0  0  0
  4  5  1  0  0  0  0
  4  6  1  0  0  0  0
  6  7  1  6  0  0  0
  6  8  1  0  0  0  0
  8  9  1  0  0  0  0
  9  5  1  1  0  0  0
  9 20  1  0  0  0  0
 10 11  1  0  0  0  0
 10 16  1  0  0  0  0
 11 12  1  1  0  0  0
 11 13  1  0  0  0  0
 14 13  1  6  0  0  0
 14 15  1  0  0  0  0
 14 20  1  0  0  0  0
 15 16  1  1  0  0  0
 15 18  1  0  0  0  0
 16 17  2  0  0  0  0
 18 19  1  0  0  0  0
 20 19  1  1  0  0  0
M  CHG  1  22  -1
M  END
>  <CHROM.1>
-69.52249067,-49.95463093,109.18656261,-78.77506791,23.07062135,1.49851287
29.35982408,0.47085084,-0.84229195,1.58746224

>  <Name>
ligand

>  <RI>
416

>  <Rbt.Current_Directory>
/home/itssahil/PROJECTS/Mol_Feturizer/Test_systems_manuscript/rnas/3slm

>  <Rbt.Executable>
rbdock ($Id: //depot/dev/client3/rdock/2013.1/src/exe/rbdock.cxx#4 $)

>  <Rbt.Library>
libRbt.so (2013.1, Build901 2013/11/27)

>  <Rbt.Parameter_File>
/export/apps/rDock/src/rDock_2013.1_src/data/scripts/dock_solv.prm

>  <Rbt.Receptor>
prm/pocket_docking_4.prm

>  <SCORE>
-15.0112

>  <SCORE.INTER>
-12.1442

>  <SCORE.INTER.CONST>
1

>  <SCORE.INTER.POLAR>
0

>  <SCORE.INTER.ROT>
4

>  <SCORE.INTER.SOLV>
19.0833

>  <SCORE.INTER.VDW>
-20.7239

>  <SCORE.INTER.norm>
-0.528008

>  <SCORE.INTRA>
-2.86705

>  <SCORE.INTRA.DIHEDRAL>
-0.348145

>  <SCORE.INTRA.DIHEDRAL.0>
8.62657

>  <SCORE.INTRA.POLAR>
0

>  <SCORE.INTRA.POLAR.0>
0

>  <SCORE.INTRA.REPUL>
0

>  <SCORE.INTRA.REPUL.0>
0

>  <SCORE.INTRA.SOLV>
1.91201

>  <SCORE.INTRA.SOLV.lig_0>
-66.3641

>  <SCORE.INTRA.VDW>
-3.64898

>  <SCORE.INTRA.VDW.0>
0.452231

>  <SCORE.INTRA.norm>
-0.124654

>  <SCORE.RESTR>
0

>  <SCORE.RESTR.CAVITY>
0

>  <SCORE.RESTR.norm>
0

>  <SCORE.SYSTEM>
0

>  <SCORE.SYSTEM.CONST>
0

>  <SCORE.SYSTEM.DIHEDRAL>
0

>  <SCORE.SYSTEM.SOLV>
0

>  <SCORE.SYSTEM.norm>
0

>  <SCORE.heavy>
23

>  <SCORE.norm>
-0.652663

>  <RMSD>
5.108

$$$$
ligand
 OpenBabel02271912143D
libRbt.so/2013.1/901 2013/11/27
 23 25  0  0  0  0  0  0  0  0999 V2000
   20.6328    1.9588   27.8981 P   0  0  1  0  0  0  0  0  0  0  0  0
   18.4034    1.7963   26.5347 C   0  0  0  0  0  0  0  0  0  0  0  0
   19.2713    1.2044   27.4915 O   0  0  0  0  0  0  0  0  0  0  0  0
   19.0684    1.6676   25.1828 C   0  0  1  0  0  0  0  0  0  0  0  0
   18.7356    0.4400   24.5354 O   0  0  0  0  0  0  0  0  0  0  0  0
   18.6056    2.8059   24.2892 C   0  0  1  0  0  0  0  0  0  0  0  0
   19.7640    3.3802   23.6597 O   0  0  0  0  0  0  0  0  0  0  0  0
   17.6616    2.1652   23.2795 C   0  0  0  0  0  0  0  0  0  0  0  0
   18.0230    0.6826   23.3153 C   0  0  2  0  0  0  0  0  0  0  0  0
   16.0777   -4.0014   24.2140 N   0  0  0  0  0  0  0  0  0  0  0  0
   17.3665   -3.6242   24.2294 C   0  0  2  0  0  0  0  0  0  0  0  0
   18.2960   -4.5629   24.5236 N   0  0  0  0  0  0  0  0  0  0  0  0
   17.7227   -2.3432   23.9684 N   0  0  0  0  0  0  0  0  0  0  0  0
   16.7705   -1.4303   23.6864 C   0  0  2  0  0  0  0  0  0  0  0  0
   15.4436   -1.8017   23.6646 C   0  0  1  0  0  0  0  0  0  0  0  0
   15.1051   -3.1125   23.9420 C   0  0  0  0  0  0  0  0  0  0  0  0
   13.9068   -3.4682   23.9337 O   0  0  0  0  0  0  0  0  0  0  0  0
   14.7102   -0.7150   23.3525 N   0  0  0  0  0  0  0  0  0  0  0  0
   15.5640    0.3113   23.1911 C   0  0  0  0  0  0  0  0  0  0  0  0
   16.8089   -0.1371   23.3856 N   0  0  1  0  0  0  0  0  0  0  0  0
   21.3855    2.2310   26.6185 O   0  0  0  0  0  0  0  0  0  0  0  0
   20.1599    3.1999   28.6195 O   0  5  0  0  0  0  0  0  0  0  0  0
   21.3116    0.9570   28.7926 O   0  0  0  0  0  0  0  0  0  0  0  0
  1  3  1  6  0  0  0
  1 21  1  0  0  0  0
  1 22  1  0  0  0  0
  1 23  2  0  0  0  0
  2  3  1  0  0  0  0
  4  2  1  1  0  0  0
  4  5  1  0  0  0  0
  4  6  1  0  0  0  0
  6  7  1  6  0  0  0
  6  8  1  0  0  0  0
  8  9  1  0  0  0  0
  9  5  1  1  0  0  0
  9 20  1  0  0  0  0
 10 11  1  0  0  0  0
 10 16  1  0  0  0  0
 11 12  1  1  0  0  0
 11 13  1  0  0  0  0
 14 13  1  6  0  0  0
 14 15  1  0  0  0  0
 14 20  1  0  0  0  0
 15 16  1  1  0  0  0
 15 18  1  0  0  0  0
 16 17  2  0  0  0  0
 18 19  1  0  0  0  0
 20 19  1  1  0  0  0
M  CHG  1  22  -1
M  END
>  <CHROM.1>
-54.36720318,88.54295445,72.29184417,-50.07054697,18.10161815,0.08750258
25.12769618,-0.43393911,0.84058058,2.73937035

>  <Name>
ligand

>  <RI>
0

>  <Rbt.Current_Directory>
/home/itssahil/PROJECTS/Mol_Feturizer/Test_systems_manuscript/rnas/3slm

>  <Rbt.Executable>
rbdock ($Id: //depot/dev/client3/rdock/2013.1/src/exe/rbdock.cxx#4 $)

>  <Rbt.Library>
libRbt.so (2013.1, Build901 2013/11/27)

>  <Rbt.Parameter_File>
/export/apps/rDock/src/rDock_2013.1_src/data/scripts/dock_solv.prm

>  <Rbt.Receptor>
prm/pocket_docking_8.prm

>  <SCORE>
-16.3312

>  <SCORE.INTER>
-13.5983

>  <SCORE.INTER.CONST>
1

>  <SCORE.INTER.POLAR>
0

>  <SCORE.INTER.ROT>
4

>  <SCORE.INTER.SOLV>
26.3136

>  <SCORE.INTER.VDW>
-24.1034

>  <SCORE.INTER.norm>
-0.591231

>  <SCORE.INTRA>
-2.73285

>  <SCORE.INTRA.DIHEDRAL>
-4.17489

>  <SCORE.INTRA.DIHEDRAL.0>
8.62657

>  <SCORE.INTRA.POLAR>
0

>  <SCORE.INTRA.POLAR.0>
0

>  <SCORE.INTRA.REPUL>
0

>  <SCORE.INTRA.REPUL.0>
0

>  <SCORE.INTRA.SOLV>
0.350015

>  <SCORE.INTRA.SOLV.lig_0>
-66.3641

>  <SCORE.INTRA.VDW>
-0.820409

>  <SCORE.INTRA.VDW.0>
0.452231

>  <SCORE.INTRA.norm>
-0.118819

>  <SCORE.RESTR>
0

>  <SCORE.RESTR.CAVITY>
0

>  <SCORE.RESTR.norm>
0

>  <SCORE.SYSTEM>
0

>  <SCORE.SYSTEM.CONST>
0

>  <SCORE.SYSTEM.DIHEDRAL>
0

>  <SCORE.SYSTEM.SOLV>
0

>  <SCORE.SYSTEM.norm>
0

>  <SCORE.heavy>
23

>  <SCORE.norm>
-0.71005

>  <RMSD>
5.115

$$$$
ligand
 OpenBabel02271912143D
libRbt.so/2013.1/901 2013/11/27
 23 25  0  0  0  0  0  0  0  0999 V2000
   25.2131   -0.4595   28.2152 P   0  0  1  0  0  0  0  0  0  0  0  0
   24.3689    1.3584   29.8997 C   0  0  0  0  0  0  0  0  0  0  0  0
   24.7799    0.0145   29.6903 O   0  0  0  0  0  0  0  0  0  0  0  0
   23.9490    1.4807   31.3472 C   0  0  1  0  0  0  0  0  0  0  0  0
   23.6270    2.8253   31.7011 O   0  0  0  0  0  0  0  0  0  0  0  0
   22.7130    0.6287   31.5815 C   0  0  1  0  0  0  0  0  0  0  0  0
   22.9217   -0.1438   32.7764 O   0  0  0  0  0  0  0  0  0  0  0  0
   21.5652    1.6193   31.7311 C   0  0  0  0  0  0  0  0  0  0  0  0
   22.2497    2.9374   32.0827 C   0  0  2  0  0  0  0  0  0  0  0  0
   21.2222    4.6545   27.3364 N   0  0  0  0  0  0  0  0  0  0  0  0
   21.8124    3.5008   27.6888 C   0  0  2  0  0  0  0  0  0  0  0  0
   22.1878    2.6557   26.7006 N   0  0  0  0  0  0  0  0  0  0  0  0
   22.0159    3.1897   28.9917 N   0  0  0  0  0  0  0  0  0  0  0  0
   21.6225    4.0509   29.9526 C   0  0  2  0  0  0  0  0  0  0  0  0
   21.0172    5.2399   29.6074 C   0  0  1  0  0  0  0  0  0  0  0  0
   20.8135    5.5308   28.2719 C   0  0  0  0  0  0  0  0  0  0  0  0
   20.2605    6.6009   27.9382 O   0  0  0  0  0  0  0  0  0  0  0  0
   20.7345    5.9100   30.7420 N   0  0  0  0  0  0  0  0  0  0  0  0
   21.1492    5.1491   31.7702 C   0  0  0  0  0  0  0  0  0  0  0  0
   21.6945    4.0312   31.2787 N   0  0  1  0  0  0  0  0  0  0  0  0
   24.0237   -1.1662   27.6117 O   0  0  0  0  0  0  0  0  0  0  0  0
   25.5952    0.8254   27.5173 O   0  5  0  0  0  0  0  0  0  0  0  0
   26.3778   -1.3719   28.4897 O   0  0  0  0  0  0  0  0  0  0  0  0
  1  3  1  1  0  0  0
  1 21  1  0  0  0  0
  1 22  1  0  0  0  0
  1 23  2  0  0  0  0
  2  3  1  0  0  0  0
  4  2  1  6  0  0  0
  4  5  1  0  0  0  0
  4  6  1  0  0  0  0
  6  7  1  1  0  0  0
  6  8  1  0  0  0  0
  8  9  1  0  0  0  0
  9  5  1  6  0  0  0
  9 20  1  0  0  0  0
 10 11  1  0  0  0  0
 10 16  1  0  0  0  0
 11 12  1  1  0  0  0
 11 13  1  0  0  0  0
 14 13  1  6  0  0  0
 14 15  1  0  0  0  0
 14 20  1  0  0  0  0
 15 16  1  1  0  0  0
 15 18  1  0  0  0  0
 16 17  2  0  0  0  0
 18 19  1  0  0  0  0
 20 19  1  1  0  0  0
M  CHG  1  22  -1
M  END
>  <CHROM.1>
-98.98653990,174.80780049,176.67196512,61.63102376,22.90783844,2.30123376
29.59594699,-0.08878580,0.94813056,-1.34958190

>  <Name>
ligand

>  <RI>
416

>  <Rbt.Current_Directory>
/home/itssahil/PROJECTS/Mol_Feturizer/Test_systems_manuscript/rnas/3slm

>  <Rbt.Executable>
rbdock ($Id: //depot/dev/client3/rdock/2013.1/src/exe/rbdock.cxx#4 $)

>  <Rbt.Library>
libRbt.so (2013.1, Build901 2013/11/27)

>  <Rbt.Parameter_File>
/export/apps/rDock/src/rDock_2013.1_src/data/scripts/dock_solv.prm

>  <Rbt.Receptor>
prm/pocket_docking_4.prm

>  <SCORE>
-15.1086

>  <SCORE.INTER>
-11.0997

>  <SCORE.INTER.CONST>
1

>  <SCORE.INTER.POLAR>
0

>  <SCORE.INTER.ROT>
4

>  <SCORE.INTER.SOLV>
19.021

>  <SCORE.INTER.VDW>
-20.0068

>  <SCORE.INTER.norm>
-0.482595

>  <SCORE.INTRA>
-4.00888

>  <SCORE.INTRA.DIHEDRAL>
-5.55927

>  <SCORE.INTRA.DIHEDRAL.0>
8.62657

>  <SCORE.INTRA.POLAR>
0

>  <SCORE.INTRA.POLAR.0>
0

>  <SCORE.INTRA.REPUL>
0

>  <SCORE.INTRA.REPUL.0>
0

>  <SCORE.INTRA.SOLV>
1.33431

>  <SCORE.INTRA.SOLV.lig_0>
-66.3641

>  <SCORE.INTRA.VDW>
-1.8964

>  <SCORE.INTRA.VDW.0>
0.452231

>  <SCORE.INTRA.norm>
-0.174299

>  <SCORE.RESTR>
0

>  <SCORE.RESTR.CAVITY>
0

>  <SCORE.RESTR.norm>
0

>  <SCORE.SYSTEM>
0

>  <SCORE.SYSTEM.CONST>
0

>  <SCORE.SYSTEM.DIHEDRAL>
0

>  <SCORE.SYSTEM.SOLV>
0

>  <SCORE.SYSTEM.norm>
0

>  <SCORE.heavy>
23

>  <SCORE.norm>
-0.656894

>  <RMSD>
5.396

$$$$
ligand
 OpenBabel02271912143D
libRbt.so/2013.1/901 2013/11/27
 23 25  0  0  0  0  0  0  0  0999 V2000
   25.1296   -0.0839   28.6483 P   0  0  1  0  0  0  0  0  0  0  0  0
   24.0846    2.1882   29.4235 C   0  0  0  0  0  0  0  0  0  0  0  0
   25.2063    1.5063   28.8797 O   0  0  0  0  0  0  0  0  0  0  0  0
   24.0533    1.8930   30.9062 C   0  0  1  0  0  0  0  0  0  0  0  0
   23.5894    3.0085   31.6660 O   0  0  0  0  0  0  0  0  0  0  0  0
   23.1100    0.7299   31.1630 C   0  0  1  0  0  0  0  0  0  0  0  0
   23.7741   -0.2006   32.0356 O   0  0  0  0  0  0  0  0  0  0  0  0
   21.8784    1.3479   31.8129 C   0  0  0  0  0  0  0  0  0  0  0  0
   22.3696    2.6901   32.3486 C   0  0  2  0  0  0  0  0  0  0  0  0
   19.5290    4.8386   28.6275 N   0  0  0  0  0  0  0  0  0  0  0  0
   20.3605    3.7884   28.5313 C   0  0  2  0  0  0  0  0  0  0  0  0
   20.4844    3.1894   27.3240 N   0  0  0  0  0  0  0  0  0  0  0  0
   21.0450    3.3380   29.6104 N   0  0  0  0  0  0  0  0  0  0  0  0
   20.8927    3.9530   30.8013 C   0  0  2  0  0  0  0  0  0  0  0  0
   20.0448    5.0333   30.9163 C   0  0  1  0  0  0  0  0  0  0  0  0
   19.3517    5.4689   29.8029 C   0  0  0  0  0  0  0  0  0  0  0  0
   18.5729    6.4429   29.8876 O   0  0  0  0  0  0  0  0  0  0  0  0
   20.0822    5.4602   32.1941 N   0  0  0  0  0  0  0  0  0  0  0  0
   20.9304    4.6567   32.8598 C   0  0  0  0  0  0  0  0  0  0  0  0
   21.4224    3.7551   32.0031 N   0  0  1  0  0  0  0  0  0  0  0  0
   23.7295   -0.3942   28.1774 O   0  0  0  0  0  0  0  0  0  0  0  0
   26.2067   -0.3551   27.6234 O   0  5  0  0  0  0  0  0  0  0  0  0
   25.4388   -0.6324   30.0150 O   0  0  0  0  0  0  0  0  0  0  0  0
  1  3  1  1  0  0  0
  1 21  1  0  0  0  0
  1 22  1  0  0  0  0
  1 23  2  0  0  0  0
  2  3  1  0  0  0  0
  4  2  1  6  0  0  0
  4  5  1  0  0  0  0
  4  6  1  0  0  0  0
  6  7  1  1  0  0  0
  6  8  1  0  0  0  0
  8  9  1  0  0  0  0
  9  5  1  6  0  0  0
  9 20  1  0  0  0  0
 10 11  1  0  0  0  0
 10 16  1  0  0  0  0
 11 12  1  1  0  0  0
 11 13  1  0  0  0  0
 14 13  1  6  0  0  0
 14 15  1  0  0  0  0
 14 20  1  0  0  0  0
 15 16  1  1  0  0  0
 15 18  1  0  0  0  0
 16 17  2  0  0  0  0
 18 19  1  0  0  0  0
 20 19  1  1  0  0  0
M  CHG  1  22  -1
M  END
>  <CHROM.1>
37.79826604,144.86833107,76.11753334,68.71283662,22.48636769,2.43849172,30.10918333
0.23438321,0.75911519,-1.65138060

>  <Name>
ligand

>  <RI>
416

>  <Rbt.Current_Directory>
/home/itssahil/PROJECTS/Mol_Feturizer/Test_systems_manuscript/rnas/3slm

>  <Rbt.Executable>
rbdock ($Id: //depot/dev/client3/rdock/2013.1/src/exe/rbdock.cxx#4 $)

>  <Rbt.Library>
libRbt.so (2013.1, Build901 2013/11/27)

>  <Rbt.Parameter_File>
/export/apps/rDock/src/rDock_2013.1_src/data/scripts/dock_solv.prm

>  <Rbt.Receptor>
prm/pocket_docking_6.prm

>  <SCORE>
-16.3909

>  <SCORE.INTER>
-14.5048

>  <SCORE.INTER.CONST>
1

>  <SCORE.INTER.POLAR>
0

>  <SCORE.INTER.ROT>
4

>  <SCORE.INTER.SOLV>
15.3996

>  <SCORE.INTER.VDW>
-21.0697

>  <SCORE.INTER.norm>
-0.630642

>  <SCORE.INTRA>
-1.88614

>  <SCORE.INTRA.DIHEDRAL>
-2.16522

>  <SCORE.INTRA.DIHEDRAL.0>
8.62657

>  <SCORE.INTRA.POLAR>
0

>  <SCORE.INTRA.POLAR.0>
0

>  <SCORE.INTRA.REPUL>
0

>  <SCORE.INTRA.REPUL.0>
0

>  <SCORE.INTRA.SOLV>
3.51902

>  <SCORE.INTRA.SOLV.lig_0>
-66.3641

>  <SCORE.INTRA.VDW>
-2.56304

>  <SCORE.INTRA.VDW.0>
0.452231

>  <SCORE.INTRA.norm>
-0.082006

>  <SCORE.RESTR>
0

>  <SCORE.RESTR.CAVITY>
0

>  <SCORE.RESTR.norm>
0

>  <SCORE.SYSTEM>
0

>  <SCORE.SYSTEM.CONST>
0

>  <SCORE.SYSTEM.DIHEDRAL>
0

>  <SCORE.SYSTEM.SOLV>
0

>  <SCORE.SYSTEM.norm>
0

>  <SCORE.heavy>
23

>  <SCORE.norm>
-0.712648

>  <RMSD>
5.504

$$$$
ligand
 OpenBabel02271912143D
libRbt.so/2013.1/901 2013/11/27
 23 25  0  0  0  0  0  0  0  0999 V2000
   24.8583    0.0120   28.3468 P   0  0  1  0  0  0  0  0  0  0  0  0
   23.4500    2.0999   29.0628 C   0  0  0  0  0  0  0  0  0  0  0  0
   23.4577    0.7811   28.5340 O   0  0  0  0  0  0  0  0  0  0  0  0
   23.7954    1.9985   30.5314 C   0  0  1  0  0  0  0  0  0  0  0  0
   23.4774    3.1949   31.2416 O   0  0  0  0  0  0  0  0  0  0  0  0
   23.0006    0.8625   31.1532 C   0  0  1  0  0  0  0  0  0  0  0  0
   23.9016    0.0641   31.9399 O   0  0  0  0  0  0  0  0  0  0  0  0
   21.9362    1.5385   32.0083 C   0  0  0  0  0  0  0  0  0  0  0  0
   22.4778    2.9468   32.2388 C   0  0  2  0  0  0  0  0  0  0  0  0
   19.3445    5.1417   28.7896 N   0  0  0  0  0  0  0  0  0  0  0  0
   20.2690    4.1904   28.5796 C   0  0  2  0  0  0  0  0  0  0  0  0
   20.4158    3.7196   27.3193 N   0  0  0  0  0  0  0  0  0  0  0  0
   21.0226    3.7116   29.5987 N   0  0  0  0  0  0  0  0  0  0  0  0
   20.8455    4.1970   30.8448 C   0  0  2  0  0  0  0  0  0  0  0  0
   19.9024    5.1748   31.0765 C   0  0  1  0  0  0  0  0  0  0  0  0
   19.1407    5.6413   30.0221 C   0  0  0  0  0  0  0  0  0  0  0  0
   18.2755    6.5232   30.2125 O   0  0  0  0  0  0  0  0  0  0  0  0
   19.9343    5.4842   32.3878 N   0  0  0  0  0  0  0  0  0  0  0  0
   20.8730    4.7092   32.9592 C   0  0  0  0  0  0  0  0  0  0  0  0
   21.4245    3.9420   32.0126 N   0  0  1  0  0  0  0  0  0  0  0  0
   25.4817   -0.1090   29.7160 O   0  0  0  0  0  0  0  0  0  0  0  0
   24.4686   -1.3070   27.7202 O   0  5  0  0  0  0  0  0  0  0  0  0
   25.6157    0.9249   27.4208 O   0  0  0  0  0  0  0  0  0  0  0  0
  1  3  1  1  0  0  0
  1 21  1  0  0  0  0
  1 22  1  0  0  0  0
  1 23  2  0  0  0  0
  2  3  1  0  0  0  0
  4  2  1  6  0  0  0
  4  5  1  0  0  0  0
  4  6  1  0  0  0  0
  6  7  1  1  0  0  0
  6  8  1  0  0  0  0
  8  9  1  0  0  0  0
  9  5  1  6  0  0  0
  9 20  1  0  0  0  0
 10 11  1  0  0  0  0
 10 16  1  0  0  0  0
 11 12  1  1  0  0  0
 11 13  1  0  0  0  0
 14 13  1  6  0  0  0
 14 15  1  0  0  0  0
 14 20  1  0  0  0  0
 15 16  1  1  0  0  0
 15 18  1  0  0  0  0
 16 17  2  0  0  0  0
 18 19  1  0  0  0  0
 20 19  1  1  0  0  0
M  CHG  1  22  -1
M  END
>  <CHROM.1>
60.92198772,-164.52281823,-71.45018890,50.28875314,22.30468061,2.59729237
30.01996161,0.30932857,0.78270350,-1.66206432

>  <Name>
ligand

>  <RI>
416

>  <Rbt.Current_Directory>
/home/itssahil/PROJECTS/Mol_Feturizer/Test_systems_manuscript/rnas/3slm

>  <Rbt.Executable>
rbdock ($Id: //depot/dev/client3/rdock/2013.1/src/exe/rbdock.cxx#4 $)

>  <Rbt.Library>
libRbt.so (2013.1, Build901 2013/11/27)

>  <Rbt.Parameter_File>
/export/apps/rDock/src/rDock_2013.1_src/data/scripts/dock_solv.prm

>  <Rbt.Receptor>
prm/pocket_docking_5.prm

>  <SCORE>
-15.3642

>  <SCORE.INTER>
-11.6798

>  <SCORE.INTER.CONST>
1

>  <SCORE.INTER.POLAR>
0

>  <SCORE.INTER.ROT>
4

>  <SCORE.INTER.SOLV>
21.6075

>  <SCORE.INTER.VDW>
-21.2557

>  <SCORE.INTER.norm>
-0.507819

>  <SCORE.INTRA>
-3.68436

>  <SCORE.INTRA.DIHEDRAL>
-6.00203

>  <SCORE.INTRA.DIHEDRAL.0>
8.62657

>  <SCORE.INTRA.POLAR>
0

>  <SCORE.INTRA.POLAR.0>
0

>  <SCORE.INTRA.REPUL>
0

>  <SCORE.INTRA.REPUL.0>
0

>  <SCORE.INTRA.SOLV>
2.23933

>  <SCORE.INTRA.SOLV.lig_0>
-66.3641

>  <SCORE.INTRA.VDW>
-1.80301

>  <SCORE.INTRA.VDW.0>
0.452231

>  <SCORE.INTRA.norm>
-0.16019

>  <SCORE.RESTR>
0

>  <SCORE.RESTR.CAVITY>
0

>  <SCORE.RESTR.norm>
0

>  <SCORE.SYSTEM>
0

>  <SCORE.SYSTEM.CONST>
0

>  <SCORE.SYSTEM.DIHEDRAL>
0

>  <SCORE.SYSTEM.SOLV>
0

>  <SCORE.SYSTEM.norm>
0

>  <SCORE.heavy>
23

>  <SCORE.norm>
-0.668008

>  <RMSD>
5.522

$$$$
ligand
 OpenBabel02271912143D
libRbt.so/2013.1/901 2013/11/27
 23 25  0  0  0  0  0  0  0  0999 V2000
   22.2003   -0.3299   32.8987 P   0  0  1  0  0  0  0  0  0  0  0  0
   24.0550   -0.3661   31.0509 C   0  0  0  0  0  0  0  0  0  0  0  0
   22.7524   -0.7674   31.4523 O   0  0  0  0  0  0  0  0  0  0  0  0
   24.3376   -1.0214   29.7178 C   0  0  1  0  0  0  0  0  0  0  0  0
   23.4631   -0.5514   28.6924 O   0  0  0  0  0  0  0  0  0  0  0  0
   25.7623   -0.7022   29.2974 C   0  0  1  0  0  0  0  0  0  0  0  0
   26.3874   -1.9247   28.8700 O   0  0  0  0  0  0  0  0  0  0  0  0
   25.6296    0.3031   28.1603 C   0  0  0  0  0  0  0  0  0  0  0  0
   24.1991    0.1187   27.6607 C   0  0  2  0  0  0  0  0  0  0  0  0
   20.7115    3.4413   29.4850 N   0  0  0  0  0  0  0  0  0  0  0  0
   21.0300    2.2289   29.9669 C   0  0  2  0  0  0  0  0  0  0  0  0
   20.3812    1.7987   31.0740 N   0  0  0  0  0  0  0  0  0  0  0  0
   21.9771    1.4663   29.3692 N   0  0  0  0  0  0  0  0  0  0  0  0
   22.6107    1.9282   28.2715 C   0  0  2  0  0  0  0  0  0  0  0  0
   22.2940    3.1694   27.7634 C   0  0  1  0  0  0  0  0  0  0  0  0
   21.3301    3.9316   28.3956 C   0  0  0  0  0  0  0  0  0  0  0  0
   21.0329    5.0627   27.9543 O   0  0  0  0  0  0  0  0  0  0  0  0
   23.0575    3.3824   26.6734 N   0  0  0  0  0  0  0  0  0  0  0  0
   23.8372    2.2986   26.5129 C   0  0  0  0  0  0  0  0  0  0  0  0
   23.5496    1.4212   27.4805 N   0  0  1  0  0  0  0  0  0  0  0  0
   22.5443    1.1286   33.0796 O   0  0  0  0  0  0  0  0  0  0  0  0
   20.7182   -0.6165   32.8247 O   0  5  0  0  0  0  0  0  0  0  0  0
   22.9507   -1.2437   33.8294 O   0  0  0  0  0  0  0  0  0  0  0  0
  1  3  1  6  0  0  0
  1 21  1  0  0  0  0
  1 22  1  0  0  0  0
  1 23  2  0  0  0  0
  2  3  1  0  0  0  0
  4  2  1  1  0  0  0
  4  5  1  0  0  0  0
  4  6  1  0  0  0  0
  6  7  1  6  0  0  0
  6  8  1  0  0  0  0
  8  9  1  0  0  0  0
  9  5  1  1  0  0  0
  9 20  1  0  0  0  0
 10 11  1  0  0  0  0
 10 16  1  0  0  0  0
 11 12  1  1  0  0  0
 11 13  1  0  0  0  0
 14 13  1  6  0  0  0
 14 15  1  0  0  0  0
 14 20  1  0  0  0  0
 15 16  1  1  0  0  0
 15 18  1  0  0  0  0
 16 17  2  0  0  0  0
 18 19  1  0  0  0  0
 20 19  1  1  0  0  0
M  CHG  1  22  -1
M  END
>  <CHROM.1>
44.71337859,64.71079639,175.04997480,9.50055617,22.87097088,0.90969582,29.85483482
1.49012470,-0.70287116,2.18652479

>  <Name>
ligand

>  <RI>
416

>  <Rbt.Current_Directory>
/home/itssahil/PROJECTS/Mol_Feturizer/Test_systems_manuscript/rnas/3slm

>  <Rbt.Executable>
rbdock ($Id: //depot/dev/client3/rdock/2013.1/src/exe/rbdock.cxx#4 $)

>  <Rbt.Library>
libRbt.so (2013.1, Build901 2013/11/27)

>  <Rbt.Parameter_File>
/export/apps/rDock/src/rDock_2013.1_src/data/scripts/dock_solv.prm

>  <Rbt.Receptor>
prm/pocket_docking_6.prm

>  <SCORE>
-14.3825

>  <SCORE.INTER>
-10.9689

>  <SCORE.INTER.CONST>
1

>  <SCORE.INTER.POLAR>
0

>  <SCORE.INTER.ROT>
4

>  <SCORE.INTER.SOLV>
22.1416

>  <SCORE.INTER.VDW>
-20.9598

>  <SCORE.INTER.norm>
-0.476909

>  <SCORE.INTRA>
-3.41359

>  <SCORE.INTRA.DIHEDRAL>
-6.90896

>  <SCORE.INTRA.DIHEDRAL.0>
8.62657

>  <SCORE.INTRA.POLAR>
0

>  <SCORE.INTRA.POLAR.0>
0

>  <SCORE.INTRA.REPUL>
0

>  <SCORE.INTRA.REPUL.0>
0

>  <SCORE.INTRA.SOLV>
5.75374

>  <SCORE.INTRA.SOLV.lig_0>
-66.3641

>  <SCORE.INTRA.VDW>
-2.83598

>  <SCORE.INTRA.VDW.0>
0.452231

>  <SCORE.INTRA.norm>
-0.148417

>  <SCORE.RESTR>
0

>  <SCORE.RESTR.CAVITY>
0

>  <SCORE.RESTR.norm>
0

>  <SCORE.SYSTEM>
0

>  <SCORE.SYSTEM.CONST>
0

>  <SCORE.SYSTEM.DIHEDRAL>
0

>  <SCORE.SYSTEM.SOLV>
0

>  <SCORE.SYSTEM.norm>
0

>  <SCORE.heavy>
23

>  <SCORE.norm>
-0.625326

>  <RMSD>
5.548

$$$$
ligand
 OpenBabel02271912143D
libRbt.so/2013.1/901 2013/11/27
 23 25  0  0  0  0  0  0  0  0999 V2000
   24.8628    1.0087   27.9394 P   0  0  1  0  0  0  0  0  0  0  0  0
   24.2114    2.7458   29.7870 C   0  0  0  0  0  0  0  0  0  0  0  0
   25.2167    1.9180   29.2186 O   0  0  0  0  0  0  0  0  0  0  0  0
   24.0172    2.3001   31.2188 C   0  0  1  0  0  0  0  0  0  0  0  0
   23.4235    3.3191   32.0225 O   0  0  0  0  0  0  0  0  0  0  0  0
   23.0967    1.0915   31.2441 C   0  0  1  0  0  0  0  0  0  0  0  0
   23.6893    0.0953   32.0953 O   0  0  0  0  0  0  0  0  0  0  0  0
   21.7737    1.6062   31.7974 C   0  0  0  0  0  0  0  0  0  0  0  0
   22.1452    2.8996   32.5177 C   0  0  2  0  0  0  0  0  0  0  0  0
   19.3191    5.0447   28.7836 N   0  0  0  0  0  0  0  0  0  0  0  0
   20.1448    3.9893   28.6933 C   0  0  2  0  0  0  0  0  0  0  0  0
   20.2662    3.3834   27.4893 N   0  0  0  0  0  0  0  0  0  0  0  0
   20.8261    3.5407   29.7752 N   0  0  0  0  0  0  0  0  0  0  0  0
   20.6764    4.1627   30.9628 C   0  0  2  0  0  0  0  0  0  0  0  0
   19.8345    5.2483   31.0716 C   0  0  1  0  0  0  0  0  0  0  0  0
   19.1446    5.6820   29.9555 C   0  0  0  0  0  0  0  0  0  0  0  0
   18.3712    6.6607   30.0347 O   0  0  0  0  0  0  0  0  0  0  0  0
   19.8735    5.6816   32.3472 N   0  0  0  0  0  0  0  0  0  0  0  0
   20.7167    4.8768   33.0177 C   0  0  0  0  0  0  0  0  0  0  0  0
   21.2042    3.9680   32.1660 N   0  0  1  0  0  0  0  0  0  0  0  0
   24.2008    1.9108   26.9264 O   0  0  0  0  0  0  0  0  0  0  0  0
   26.2007    0.4573   27.5033 O   0  5  0  0  0  0  0  0  0  0  0  0
   23.9368   -0.0277   28.5163 O   0  0  0  0  0  0  0  0  0  0  0  0
  1  3  1  1  0  0  0
  1 21  1  0  0  0  0
  1 22  1  0  0  0  0
  1 23  2  0  0  0  0
  2  3  1  0  0  0  0
  4  2  1  6  0  0  0
  4  5  1  0  0  0  0
  4  6  1  0  0  0  0
  6  7  1  1  0  0  0
  6  8  1  0  0  0  0
  8  9  1  0  0  0  0
  9  5  1  6  0  0  0
  9 20  1  0  0  0  0
 10 11  1  0  0  0  0
 10 16  1  0  0  0  0
 11 12  1  1  0  0  0
 11 13  1  0  0  0  0
 14 13  1  6  0  0  0
 14 15  1  0  0  0  0
 14 20  1  0  0  0  0
 15 16  1  1  0  0  0
 15 18  1  0  0  0  0
 16 17  2  0  0  0  0
 18 19  1  0  0  0  0
 20 19  1  1  0  0  0
M  CHG  1  22  -1
M  END
>  <CHROM.1>
50.13366992,158.60021075,119.67476572,78.11629225,22.30120303,2.92236185
30.04887858,0.30314541,0.69581187,-1.55976889

>  <Name>
ligand

>  <RI>
416

>  <Rbt.Current_Directory>
/home/itssahil/PROJECTS/Mol_Feturizer/Test_systems_manuscript/rnas/3slm

>  <Rbt.Executable>
rbdock ($Id: //depot/dev/client3/rdock/2013.1/src/exe/rbdock.cxx#4 $)

>  <Rbt.Library>
libRbt.so (2013.1, Build901 2013/11/27)

>  <Rbt.Parameter_File>
/export/apps/rDock/src/rDock_2013.1_src/data/scripts/dock_solv.prm

>  <Rbt.Receptor>
prm/pocket_docking_5.prm

>  <SCORE>
-16.0848

>  <SCORE.INTER>
-15.2858

>  <SCORE.INTER.CONST>
1

>  <SCORE.INTER.POLAR>
0

>  <SCORE.INTER.ROT>
4

>  <SCORE.INTER.SOLV>
19.9764

>  <SCORE.INTER.VDW>
-23.116

>  <SCORE.INTER.norm>
-0.664602

>  <SCORE.INTRA>
-0.798919

>  <SCORE.INTRA.DIHEDRAL>
1.44787

>  <SCORE.INTRA.DIHEDRAL.0>
8.62657

>  <SCORE.INTRA.POLAR>
0

>  <SCORE.INTRA.POLAR.0>
0

>  <SCORE.INTRA.REPUL>
0

>  <SCORE.INTRA.REPUL.0>
0

>  <SCORE.INTRA.SOLV>
1.78958

>  <SCORE.INTRA.SOLV.lig_0>
-66.3641

>  <SCORE.INTRA.VDW>
-2.41764

>  <SCORE.INTRA.VDW.0>
0.452231

>  <SCORE.INTRA.norm>
-0.0347356

>  <SCORE.RESTR>
0

>  <SCORE.RESTR.CAVITY>
0

>  <SCORE.RESTR.norm>
0

>  <SCORE.SYSTEM>
0

>  <SCORE.SYSTEM.CONST>
0

>  <SCORE.SYSTEM.DIHEDRAL>
0

>  <SCORE.SYSTEM.SOLV>
0

>  <SCORE.SYSTEM.norm>
0

>  <SCORE.heavy>
23

>  <SCORE.norm>
-0.699337

>  <RMSD>
5.677

$$$$
ligand
 OpenBabel02271912143D
libRbt.so/2013.1/901 2013/11/27
 23 25  0  0  0  0  0  0  0  0999 V2000
   19.4168    1.9011   27.0920 P   0  0  1  0  0  0  0  0  0  0  0  0
   20.7009    3.4534   28.7643 C   0  0  0  0  0  0  0  0  0  0  0  0
   19.5452    3.2470   27.9639 O   0  0  0  0  0  0  0  0  0  0  0  0
   20.3052    3.1979   30.2012 C   0  0  1  0  0  0  0  0  0  0  0  0
   20.4161    1.8189   30.5516 O   0  0  0  0  0  0  0  0  0  0  0  0
   21.2236    3.9870   31.1190 C   0  0  1  0  0  0  0  0  0  0  0  0
   20.4098    4.6641   32.0923 O   0  0  0  0  0  0  0  0  0  0  0  0
   22.1399    2.9507   31.7576 C   0  0  0  0  0  0  0  0  0  0  0  0
   21.3933    1.6308   31.5837 C   0  0  2  0  0  0  0  0  0  0  0  0
   24.2829   -0.0124   27.6490 N   0  0  0  0  0  0  0  0  0  0  0  0
   23.5058    1.0816   27.7042 C   0  0  2  0  0  0  0  0  0  0  0  0
   23.4601    1.8797   26.6121 N   0  0  0  0  0  0  0  0  0  0  0  0
   22.7988    1.3807   28.8206 N   0  0  0  0  0  0  0  0  0  0  0  0
   22.8729    0.5681   29.8948 C   0  0  2  0  0  0  0  0  0  0  0  0
   23.6642   -0.5594   29.8536 C   0  0  1  0  0  0  0  0  0  0  0  0
   24.3818   -0.8386   28.7061 C   0  0  0  0  0  0  0  0  0  0  0  0
   25.1104   -1.8528   28.6507 O   0  0  0  0  0  0  0  0  0  0  0  0
   23.5540   -1.1913   31.0389 N   0  0  0  0  0  0  0  0  0  0  0  0
   22.7171   -0.4667   31.8024 C   0  0  0  0  0  0  0  0  0  0  0  0
   22.3036    0.5901   31.0947 N   0  0  1  0  0  0  0  0  0  0  0  0
   19.4690    0.7427   28.0582 O   0  0  0  0  0  0  0  0  0  0  0  0
   18.0953    2.0563   26.3752 O   0  5  0  0  0  0  0  0  0  0  0  0
   20.6141    1.9798   26.1838 O   0  0  0  0  0  0  0  0  0  0  0  0
  1  3  1  1  0  0  0
  1 21  1  0  0  0  0
  1 22  1  0  0  0  0
  1 23  2  0  0  0  0
  2  3  1  0  0  0  0
  4  2  1  6  0  0  0
  4  5  1  0  0  0  0
  4  6  1  0  0  0  0
  6  7  1  1  0  0  0
  6  8  1  0  0  0  0
  8  9  1  0  0  0  0
  9  5  1  6  0  0  0
  9 20  1  0  0  0  0
 10 11  1  0  0  0  0
 10 16  1  0  0  0  0
 11 12  1  1  0  0  0
 11 13  1  0  0  0  0
 14 13  1  6  0  0  0
 14 15  1  0  0  0  0
 14 20  1  0  0  0  0
 15 16  1  1  0  0  0
 15 18  1  0  0  0  0
 16 17  2  0  0  0  0
 18 19  1  0  0  0  0
 20 19  1  1  0  0  0
M  CHG  1  22  -1
M  END
>  <CHROM.1>
59.62747028,86.69870383,-104.36863004,48.83375437,21.62851415,1.47122836
29.12267585,-3.10149334,-0.68300561,1.25227633

>  <Name>
ligand

>  <RI>
416

>  <Rbt.Current_Directory>
/home/itssahil/PROJECTS/Mol_Feturizer/Test_systems_manuscript/rnas/3slm

>  <Rbt.Executable>
rbdock ($Id: //depot/dev/client3/rdock/2013.1/src/exe/rbdock.cxx#4 $)

>  <Rbt.Library>
libRbt.so (2013.1, Build901 2013/11/27)

>  <Rbt.Parameter_File>
/export/apps/rDock/src/rDock_2013.1_src/data/scripts/dock_solv.prm

>  <Rbt.Receptor>
prm/pocket_docking_4.prm

>  <SCORE>
-14.1553

>  <SCORE.INTER>
-12.9292

>  <SCORE.INTER.CONST>
1

>  <SCORE.INTER.POLAR>
0

>  <SCORE.INTER.ROT>
4

>  <SCORE.INTER.SOLV>
23.8612

>  <SCORE.INTER.VDW>
-22.8398

>  <SCORE.INTER.norm>
-0.562137

>  <SCORE.INTRA>
-1.22612

>  <SCORE.INTRA.DIHEDRAL>
0.789064

>  <SCORE.INTRA.DIHEDRAL.0>
8.62657

>  <SCORE.INTRA.POLAR>
0

>  <SCORE.INTRA.POLAR.0>
0

>  <SCORE.INTRA.REPUL>
0

>  <SCORE.INTRA.REPUL.0>
0

>  <SCORE.INTRA.SOLV>
4.65805

>  <SCORE.INTRA.SOLV.lig_0>
-66.3641

>  <SCORE.INTRA.VDW>
-3.94968

>  <SCORE.INTRA.VDW.0>
0.452231

>  <SCORE.INTRA.norm>
-0.0533096

>  <SCORE.RESTR>
0

>  <SCORE.RESTR.CAVITY>
0

>  <SCORE.RESTR.norm>
0

>  <SCORE.SYSTEM>
0

>  <SCORE.SYSTEM.CONST>
0

>  <SCORE.SYSTEM.DIHEDRAL>
0

>  <SCORE.SYSTEM.SOLV>
0

>  <SCORE.SYSTEM.norm>
0

>  <SCORE.heavy>
23

>  <SCORE.norm>
-0.615447

>  <RMSD>
5.765

$$$$
ligand
 OpenBabel02271912143D
libRbt.so/2013.1/901 2013/11/27
 23 25  0  0  0  0  0  0  0  0999 V2000
   25.4628   -1.3305   28.5514 P   0  0  1  0  0  0  0  0  0  0  0  0
   24.4721    0.4615   30.1831 C   0  0  0  0  0  0  0  0  0  0  0  0
   25.0140   -0.8414   30.0169 O   0  0  0  0  0  0  0  0  0  0  0  0
   24.0832    0.6056   31.6373 C   0  0  1  0  0  0  0  0  0  0  0  0
   23.8524    1.9667   31.9989 O   0  0  0  0  0  0  0  0  0  0  0  0
   22.7997   -0.1674   31.8890 C   0  0  1  0  0  0  0  0  0  0  0  0
   22.9777   -0.9552   33.0790 O   0  0  0  0  0  0  0  0  0  0  0  0
   21.7192    0.8932   32.0587 C   0  0  0  0  0  0  0  0  0  0  0  0
   22.4909    2.1644   32.4023 C   0  0  2  0  0  0  0  0  0  0  0  0
   22.2182    4.3096   27.7273 N   0  0  0  0  0  0  0  0  0  0  0  0
   22.8413    3.1737   28.0810 C   0  0  2  0  0  0  0  0  0  0  0  0
   23.4784    2.4749   27.1128 N   0  0  0  0  0  0  0  0  0  0  0  0
   22.8237    2.7375   29.3637 N   0  0  0  0  0  0  0  0  0  0  0  0
   22.1727    3.4539   30.3031 C   0  0  2  0  0  0  0  0  0  0  0  0
   21.5300    4.6227   29.9568 C   0  0  1  0  0  0  0  0  0  0  0  0
   21.5556    5.0426   28.6405 C   0  0  0  0  0  0  0  0  0  0  0  0
   20.9734    6.0965   28.3046 O   0  0  0  0  0  0  0  0  0  0  0  0
   20.9729    5.1393   31.0700 N   0  0  0  0  0  0  0  0  0  0  0  0
   21.2579    4.3042   32.0847 C   0  0  0  0  0  0  0  0  0  0  0  0
   21.9936    3.2935   31.6094 N   0  0  1  0  0  0  0  0  0  0  0  0
   24.2041   -1.4844   27.7329 O   0  0  0  0  0  0  0  0  0  0  0  0
   26.3896   -0.2378   28.0707 O   0  5  0  0  0  0  0  0  0  0  0  0
   26.1570   -2.6349   28.8363 O   0  0  0  0  0  0  0  0  0  0  0  0
  1  3  1  1  0  0  0
  1 21  1  0  0  0  0
  1 22  1  0  0  0  0
  1 23  2  0  0  0  0
  2  3  1  0  0  0  0
  4  2  1  6  0  0  0
  4  5  1  0  0  0  0
  4  6  1  0  0  0  0
  6  7  1  1  0  0  0
  6  8  1  0  0  0  0
  8  9  1  0  0  0  0
  9  5  1  6  0  0  0
  9 20  1  0  0  0  0
 10 11  1  0  0  0  0
 10 16  1  0  0  0  0
 11 12  1  6  0  0  0
 11 13  1  0  0  0  0
 14 13  1  1  0  0  0
 14 15  1  0  0  0  0
 14 20  1  0  0  0  0
 15 16  1  6  0  0  0
 15 18  1  0  0  0  0
 16 17  2  0  0  0  0
 18 19  1  0  0  0  0
 20 19  1  6  0  0  0
M  CHG  1  22  -1
M  END
>  <CHROM.1>
-68.51852996,164.87203788,177.16358855,45.63533391,23.30554728,1.59067217
29.93391230,-0.33552842,0.97775695,-1.05367804

>  <Name>
ligand

>  <RI>
416

>  <Rbt.Current_Directory>
/home/itssahil/PROJECTS/Mol_Feturizer/Test_systems_manuscript/rnas/3slm

>  <Rbt.Executable>
rbdock ($Id: //depot/dev/client3/rdock/2013.1/src/exe/rbdock.cxx#4 $)

>  <Rbt.Library>
libRbt.so (2013.1, Build901 2013/11/27)

>  <Rbt.Parameter_File>
/export/apps/rDock/src/rDock_2013.1_src/data/scripts/dock_solv.prm

>  <Rbt.Receptor>
prm/pocket_docking_4.prm

>  <SCORE>
-15.8069

>  <SCORE.INTER>
-10.8201

>  <SCORE.INTER.CONST>
1

>  <SCORE.INTER.POLAR>
0

>  <SCORE.INTER.ROT>
4

>  <SCORE.INTER.SOLV>
20.151

>  <SCORE.INTER.VDW>
-20.1971

>  <SCORE.INTER.norm>
-0.47044

>  <SCORE.INTRA>
-4.98678

>  <SCORE.INTRA.DIHEDRAL>
-6.54121

>  <SCORE.INTRA.DIHEDRAL.0>
8.62657

>  <SCORE.INTRA.POLAR>
0

>  <SCORE.INTRA.POLAR.0>
0

>  <SCORE.INTRA.REPUL>
0

>  <SCORE.INTRA.REPUL.0>
0

>  <SCORE.INTRA.SOLV>
1.5282

>  <SCORE.INTRA.SOLV.lig_0>
-66.3641

>  <SCORE.INTRA.VDW>
-2.48027

>  <SCORE.INTRA.VDW.0>
0.452231

>  <SCORE.INTRA.norm>
-0.216817

>  <SCORE.RESTR>
0

>  <SCORE.RESTR.CAVITY>
0

>  <SCORE.RESTR.norm>
0

>  <SCORE.SYSTEM>
0

>  <SCORE.SYSTEM.CONST>
0

>  <SCORE.SYSTEM.DIHEDRAL>
0

>  <SCORE.SYSTEM.SOLV>
0

>  <SCORE.SYSTEM.norm>
0

>  <SCORE.heavy>
23

>  <SCORE.norm>
-0.687256

>  <RMSD>
5.778

$$$$
ligand
 OpenBabel02271912143D
libRbt.so/2013.1/901 2013/11/27
 23 25  0  0  0  0  0  0  0  0999 V2000
   26.3912   -0.3109   28.4819 P   0  0  1  0  0  0  0  0  0  0  0  0
   24.0274    0.3354   29.4038 C   0  0  0  0  0  0  0  0  0  0  0  0
   25.2381    0.7657   28.7973 O   0  0  0  0  0  0  0  0  0  0  0  0
   24.2051    0.4573   30.9005 C   0  0  1  0  0  0  0  0  0  0  0  0
   24.1226    1.8118   31.3424 O   0  0  0  0  0  0  0  0  0  0  0  0
   23.1076   -0.3280   31.5985 C   0  0  1  0  0  0  0  0  0  0  0  0
   23.7152   -1.1303   32.6257 O   0  0  0  0  0  0  0  0  0  0  0  0
   22.1653    0.7226   32.1725 C   0  0  0  0  0  0  0  0  0  0  0  0
   23.0074    1.9945   32.2246 C   0  0  2  0  0  0  0  0  0  0  0  0
   21.7252    4.6711   28.0146 N   0  0  0  0  0  0  0  0  0  0  0  0
   22.5375    3.6050   28.1014 C   0  0  2  0  0  0  0  0  0  0  0  0
   23.0982    3.1434   26.9594 N   0  0  0  0  0  0  0  0  0  0  0  0
   22.7792    3.0061   29.2925 N   0  0  0  0  0  0  0  0  0  0  0  0
   22.1980    3.4866   30.4110 C   0  0  2  0  0  0  0  0  0  0  0  0
   21.3635    4.5810   30.3391 C   0  0  1  0  0  0  0  0  0  0  0  0
   21.1265    5.1695   29.1114 C   0  0  0  0  0  0  0  0  0  0  0  0
   20.3678    6.1590   29.0239 O   0  0  0  0  0  0  0  0  0  0  0  0
   20.9275    4.8570   31.5841 N   0  0  0  0  0  0  0  0  0  0  0  0
   21.4745    3.9479   32.4104 C   0  0  0  0  0  0  0  0  0  0  0  0
   22.2498    3.1305   31.6895 N   0  0  1  0  0  0  0  0  0  0  0  0
   27.5263    0.4376   27.8266 O   0  0  0  0  0  0  0  0  0  0  0  0
   26.7270   -0.8922   29.8359 O   0  5  0  0  0  0  0  0  0  0  0  0
   25.6981   -1.2775   27.5601 O   0  0  0  0  0  0  0  0  0  0  0  0
  1  3  1  1  0  0  0
  1 21  1  0  0  0  0
  1 22  1  0  0  0  0
  1 23  2  0  0  0  0
  2  3  1  0  0  0  0
  4  2  1  6  0  0  0
  4  5  1  0  0  0  0
  4  6  1  0  0  0  0
  6  7  1  1  0  0  0
  6  8  1  0  0  0  0
  8  9  1  0  0  0  0
  9  5  1  6  0  0  0
  9 20  1  0  0  0  0
 10 11  1  0  0  0  0
 10 16  1  0  0  0  0
 11 12  1  6  0  0  0
 11 13  1  0  0  0  0
 14 13  1  1  0  0  0
 14 15  1  0  0  0  0
 14 20  1  0  0  0  0
 15 16  1  6  0  0  0
 15 18  1  0  0  0  0
 16 17  2  0  0  0  0
 18 19  1  0  0  0  0
 20 19  1  6  0  0  0
M  CHG  1  22  -1
M  END
>  <CHROM.1>
179.07609529,75.72157608,91.18939067,28.65399610,23.55404208,1.88138360,29.87890010
-0.26635770,0.80382551,-1.00784910

>  <Name>
ligand

>  <RI>
416

>  <Rbt.Current_Directory>
/home/itssahil/PROJECTS/Mol_Feturizer/Test_systems_manuscript/rnas/3slm

>  <Rbt.Executable>
rbdock ($Id: //depot/dev/client3/rdock/2013.1/src/exe/rbdock.cxx#4 $)

>  <Rbt.Library>
libRbt.so (2013.1, Build901 2013/11/27)

>  <Rbt.Parameter_File>
/export/apps/rDock/src/rDock_2013.1_src/data/scripts/dock_solv.prm

>  <Rbt.Receptor>
prm/pocket_docking_5.prm

>  <SCORE>
-13.5554

>  <SCORE.INTER>
-11.3178

>  <SCORE.INTER.CONST>
1

>  <SCORE.INTER.POLAR>
0

>  <SCORE.INTER.ROT>
4

>  <SCORE.INTER.SOLV>
19.3309

>  <SCORE.INTER.VDW>
-20.2555

>  <SCORE.INTER.norm>
-0.492077

>  <SCORE.INTRA>
-2.23762

>  <SCORE.INTRA.DIHEDRAL>
-2.8115

>  <SCORE.INTRA.DIHEDRAL.0>
8.62657

>  <SCORE.INTRA.POLAR>
0

>  <SCORE.INTRA.POLAR.0>
0

>  <SCORE.INTRA.REPUL>
0

>  <SCORE.INTRA.REPUL.0>
0

>  <SCORE.INTRA.SOLV>
3.39112

>  <SCORE.INTRA.SOLV.lig_0>
-66.3641

>  <SCORE.INTRA.VDW>
-2.52743

>  <SCORE.INTRA.VDW.0>
0.452231

>  <SCORE.INTRA.norm>
-0.097288

>  <SCORE.RESTR>
0

>  <SCORE.RESTR.CAVITY>
0

>  <SCORE.RESTR.norm>
0

>  <SCORE.SYSTEM>
0

>  <SCORE.SYSTEM.CONST>
0

>  <SCORE.SYSTEM.DIHEDRAL>
0

>  <SCORE.SYSTEM.SOLV>
0

>  <SCORE.SYSTEM.norm>
0

>  <SCORE.heavy>
23

>  <SCORE.norm>
-0.589365

>  <RMSD>
5.814

$$$$
ligand
 OpenBabel02271912143D
libRbt.so/2013.1/901 2013/11/27
 23 25  0  0  0  0  0  0  0  0999 V2000
   19.7593    5.3824   32.7914 P   0  0  1  0  0  0  0  0  0  0  0  0
   21.2661    3.8369   31.3094 C   0  0  0  0  0  0  0  0  0  0  0  0
   21.1328    4.5956   32.5033 O   0  0  0  0  0  0  0  0  0  0  0  0
   21.3385    4.8158   30.1592 C   0  0  1  0  0  0  0  0  0  0  0  0
   22.4251    4.5304   29.2789 O   0  0  0  0  0  0  0  0  0  0  0  0
   20.0528    4.7345   29.3537 C   0  0  1  0  0  0  0  0  0  0  0  0
   19.5861    6.0743   29.1191 O   0  0  0  0  0  0  0  0  0  0  0  0
   20.4335    4.0244   28.0606 C   0  0  0  0  0  0  0  0  0  0  0  0
   21.9475    4.1959   27.9692 C   0  0  2  0  0  0  0  0  0  0  0  0
   23.6419   -0.3512   29.6968 N   0  0  0  0  0  0  0  0  0  0  0  0
   23.0847    0.6463   30.4027 C   0  0  2  0  0  0  0  0  0  0  0  0
   22.9240    0.4648   31.7342 N   0  0  0  0  0  0  0  0  0  0  0  0
   22.6881    1.7926   29.7990 N   0  0  0  0  0  0  0  0  0  0  0  0
   22.8556    1.9383   28.4684 C   0  0  2  0  0  0  0  0  0  0  0  0
   23.4275    0.9249   27.7301 C   0  0  1  0  0  0  0  0  0  0  0  0
   23.8166   -0.2378   28.3677 C   0  0  0  0  0  0  0  0  0  0  0  0
   24.3313   -1.1713   27.7150 O   0  0  0  0  0  0  0  0  0  0  0  0
   23.4847    1.3251   26.4445 N   0  0  0  0  0  0  0  0  0  0  0  0
   22.9525    2.5587   26.3852 C   0  0  0  0  0  0  0  0  0  0  0  0
   22.5852    2.9227   27.6186 N   0  0  1  0  0  0  0  0  0  0  0  0
   18.6334    4.4045   32.5583 O   0  0  0  0  0  0  0  0  0  0  0  0
   19.8978    5.8442   34.2238 O   0  5  0  0  0  0  0  0  0  0  0  0
   19.8014    6.5006   31.7853 O   0  0  0  0  0  0  0  0  0  0  0  0
  1  3  1  6  0  0  0
  1 21  1  0  0  0  0
  1 22  1  0  0  0  0
  1 23  2  0  0  0  0
  2  3  1  0  0  0  0
  4  2  1  1  0  0  0
  4  5  1  0  0  0  0
  4  6  1  0  0  0  0
  6  7  1  6  0  0  0
  6  8  1  0  0  0  0
  8  9  1  0  0  0  0
  9  5  1  1  0  0  0
  9 20  1  0  0  0  0
 10 11  1  0  0  0  0
 10 16  1  0  0  0  0
 11 12  1  6  0  0  0
 11 13  1  0  0  0  0
 14 13  1  1  0  0  0
 14 15  1  0  0  0  0
 14 20  1  0  0  0  0
 15 16  1  6  0  0  0
 15 18  1  0  0  0  0
 16 17  2  0  0  0  0
 18 19  1  0  0  0  0
 20 19  1  6  0  0  0
M  CHG  1  22  -1
M  END
>  <CHROM.1>
48.71311515,131.35457810,69.87372864,35.34218857,21.64986188,3.24723576,29.97063082
-2.79828263,1.01177502,-1.25979701

>  <Name>
ligand

>  <RI>
416

>  <Rbt.Current_Directory>
/home/itssahil/PROJECTS/Mol_Feturizer/Test_systems_manuscript/rnas/3slm

>  <Rbt.Executable>
rbdock ($Id: //depot/dev/client3/rdock/2013.1/src/exe/rbdock.cxx#4 $)

>  <Rbt.Library>
libRbt.so (2013.1, Build901 2013/11/27)

>  <Rbt.Parameter_File>
/export/apps/rDock/src/rDock_2013.1_src/data/scripts/dock_solv.prm

>  <Rbt.Receptor>
prm/pocket_docking_6.prm

>  <SCORE>
-18.7614

>  <SCORE.INTER>
-17.5306

>  <SCORE.INTER.CONST>
1

>  <SCORE.INTER.POLAR>
0

>  <SCORE.INTER.ROT>
4

>  <SCORE.INTER.SOLV>
21.8877

>  <SCORE.INTER.VDW>
-25.2496

>  <SCORE.INTER.norm>
-0.762199

>  <SCORE.INTRA>
-1.23209

>  <SCORE.INTRA.DIHEDRAL>
-2.0029

>  <SCORE.INTRA.DIHEDRAL.0>
8.62657

>  <SCORE.INTRA.POLAR>
0

>  <SCORE.INTRA.POLAR.0>
0

>  <SCORE.INTRA.REPUL>
0

>  <SCORE.INTRA.REPUL.0>
0

>  <SCORE.INTRA.SOLV>
4.22084

>  <SCORE.INTRA.SOLV.lig_0>
-66.3641

>  <SCORE.INTRA.VDW>
-2.34106

>  <SCORE.INTRA.VDW.0>
0.452231

>  <SCORE.INTRA.norm>
-0.053569

>  <SCORE.RESTR>
0.00124307

>  <SCORE.RESTR.CAVITY>
0.00124307

>  <SCORE.RESTR.norm>
5.40464e-05

>  <SCORE.SYSTEM>
0

>  <SCORE.SYSTEM.CONST>
0

>  <SCORE.SYSTEM.DIHEDRAL>
0

>  <SCORE.SYSTEM.SOLV>
0

>  <SCORE.SYSTEM.norm>
0

>  <SCORE.heavy>
23

>  <SCORE.norm>
-0.815713

>  <RMSD>
5.968

$$$$
ligand
 OpenBabel02271912143D
libRbt.so/2013.1/901 2013/11/27
 23 25  0  0  0  0  0  0  0  0999 V2000
   19.6362    5.2603   32.8091 P   0  0  1  0  0  0  0  0  0  0  0  0
   21.2679    3.8380   31.3360 C   0  0  0  0  0  0  0  0  0  0  0  0
   21.0659    4.5761   32.5331 O   0  0  0  0  0  0  0  0  0  0  0  0
   21.3549    4.8342   30.2017 C   0  0  1  0  0  0  0  0  0  0  0  0
   22.4425    4.5522   29.3217 O   0  0  0  0  0  0  0  0  0  0  0  0
   20.0720    4.7782   29.3895 C   0  0  1  0  0  0  0  0  0  0  0  0
   19.6194    6.1261   29.1742 O   0  0  0  0  0  0  0  0  0  0  0  0
   20.4516    4.0849   28.0870 C   0  0  0  0  0  0  0  0  0  0  0  0
   21.9675    4.2431   28.0049 C   0  0  2  0  0  0  0  0  0  0  0  0
   23.6611   -0.3248   29.6775 N   0  0  0  0  0  0  0  0  0  0  0  0
   23.1179    0.6701   30.3977 C   0  0  2  0  0  0  0  0  0  0  0  0
   22.9730    0.4796   31.7297 N   0  0  0  0  0  0  0  0  0  0  0  0
   22.7193    1.8228   29.8075 N   0  0  0  0  0  0  0  0  0  0  0  0
   22.8706    1.9775   28.4760 C   0  0  2  0  0  0  0  0  0  0  0  0
   23.4281    0.9668   27.7231 C   0  0  1  0  0  0  0  0  0  0  0  0
   23.8195   -0.2024   28.3471 C   0  0  0  0  0  0  0  0  0  0  0  0
   24.3213   -1.1337   27.6812 O   0  0  0  0  0  0  0  0  0  0  0  0
   23.4711    1.3762   26.4398 N   0  0  0  0  0  0  0  0  0  0  0  0
   22.9443    2.6127   26.3963 C   0  0  0  0  0  0  0  0  0  0  0  0
   22.5944    2.9694   27.6369 N   0  0  1  0  0  0  0  0  0  0  0  0
   18.5829    4.2347   32.4671 O   0  0  0  0  0  0  0  0  0  0  0  0
   19.6887    5.6362   34.2721 O   0  5  0  0  0  0  0  0  0  0  0  0
   19.6492    6.4414   31.8769 O   0  0  0  0  0  0  0  0  0  0  0  0
  1  3  1  6  0  0  0
  1 21  1  0  0  0  0
  1 22  1  0  0  0  0
  1 23  2  0  0  0  0
  2  3  1  0  0  0  0
  4  2  1  1  0  0  0
  4  5  1  0  0  0  0
  4  6  1  0  0  0  0
  6  7  1  6  0  0  0
  6  8  1  0  0  0  0
  8  9  1  0  0  0  0
  9  5  1  1  0  0  0
  9 20  1  0  0  0  0
 10 11  1  0  0  0  0
 10 16  1  0  0  0  0
 11 12  1  6  0  0  0
 11 13  1  0  0  0  0
 14 13  1  1  0  0  0
 14 15  1  0  0  0  0
 14 20  1  0  0  0  0
 15 16  1  6  0  0  0
 15 18  1  0  0  0  0
 16 17  2  0  0  0  0
 18 19  1  0  0  0  0
 20 19  1  6  0  0  0
M  CHG  1  22  -1
M  END
>  <CHROM.1>
45.03011083,134.35944964,72.72430379,34.21762798,21.62645213,3.24042074,29.98494288
-2.82825536,0.99935231,-1.21111321

>  <Name>
ligand

>  <RI>
0

>  <Rbt.Current_Directory>
/home/itssahil/PROJECTS/Mol_Feturizer/Test_systems_manuscript/rnas/3slm

>  <Rbt.Executable>
rbdock ($Id: //depot/dev/client3/rdock/2013.1/src/exe/rbdock.cxx#4 $)

>  <Rbt.Library>
libRbt.so (2013.1, Build901 2013/11/27)

>  <Rbt.Parameter_File>
/export/apps/rDock/src/rDock_2013.1_src/data/scripts/dock_solv.prm

>  <Rbt.Receptor>
prm/blind_docking_80.prm

>  <SCORE>
-19.0152

>  <SCORE.INTER>
-17.6124

>  <SCORE.INTER.CONST>
1

>  <SCORE.INTER.POLAR>
0

>  <SCORE.INTER.ROT>
4

>  <SCORE.INTER.SOLV>
22.6669

>  <SCORE.INTER.VDW>
-25.5639

>  <SCORE.INTER.norm>
-0.765755

>  <SCORE.INTRA>
-1.40282

>  <SCORE.INTRA.DIHEDRAL>
-1.82174

>  <SCORE.INTRA.DIHEDRAL.0>
8.62657

>  <SCORE.INTRA.POLAR>
0

>  <SCORE.INTRA.POLAR.0>
0

>  <SCORE.INTRA.REPUL>
0

>  <SCORE.INTRA.REPUL.0>
0

>  <SCORE.INTRA.SOLV>
4.082

>  <SCORE.INTRA.SOLV.lig_0>
-66.3641

>  <SCORE.INTRA.VDW>
-2.53295

>  <SCORE.INTRA.VDW.0>
0.452231

>  <SCORE.INTRA.norm>
-0.0609921

>  <SCORE.RESTR>
0

>  <SCORE.RESTR.CAVITY>
0

>  <SCORE.RESTR.norm>
0

>  <SCORE.SYSTEM>
0

>  <SCORE.SYSTEM.CONST>
0

>  <SCORE.SYSTEM.DIHEDRAL>
0

>  <SCORE.SYSTEM.SOLV>
0

>  <SCORE.SYSTEM.norm>
0

>  <SCORE.heavy>
23

>  <SCORE.norm>
-0.826747

>  <RMSD>
5.973

$$$$
ligand
 OpenBabel02271912143D
libRbt.so/2013.1/901 2013/11/27
 23 25  0  0  0  0  0  0  0  0999 V2000
   24.6397    0.4383   28.1732 P   0  0  1  0  0  0  0  0  0  0  0  0
   23.6095    2.4212   29.5378 C   0  0  0  0  0  0  0  0  0  0  0  0
   24.0791    1.0802   29.5378 O   0  0  0  0  0  0  0  0  0  0  0  0
   23.0032    2.6862   30.8974 C   0  0  1  0  0  0  0  0  0  0  0  0
   22.3479    3.9528   30.9555 O   0  0  0  0  0  0  0  0  0  0  0  0
   21.9709    1.6134   31.2006 C   0  0  1  0  0  0  0  0  0  0  0  0
   22.2034    1.1332   32.5361 O   0  0  0  0  0  0  0  0  0  0  0  0
   20.6207    2.3062   31.0664 C   0  0  0  0  0  0  0  0  0  0  0  0
   20.9451    3.7914   31.2030 C   0  0  2  0  0  0  0  0  0  0  0  0
   18.3879    8.1179   30.0741 N   0  0  0  0  0  0  0  0  0  0  0  0
   18.8842    7.7366   31.2624 C   0  0  2  0  0  0  0  0  0  0  0  0
   18.7191    8.5728   32.3136 N   0  0  0  0  0  0  0  0  0  0  0  0
   19.5372    6.5575   31.4009 N   0  0  0  0  0  0  0  0  0  0  0  0
   19.6914    5.7506   30.3309 C   0  0  2  0  0  0  0  0  0  0  0  0
   19.1863    6.1264   29.1050 C   0  0  1  0  0  0  0  0  0  0  0  0
   18.5310    7.3375   28.9876 C   0  0  0  0  0  0  0  0  0  0  0  0
   18.0712    7.6996   27.8831 O   0  0  0  0  0  0  0  0  0  0  0  0
   19.4667    5.1496   28.2199 N   0  0  0  0  0  0  0  0  0  0  0  0
   20.1385    4.1908   28.8814 C   0  0  0  0  0  0  0  0  0  0  0  0
   20.2587    4.5618   30.1607 N   0  0  1  0  0  0  0  0  0  0  0  0
   25.9647    1.1013   27.8854 O   0  0  0  0  0  0  0  0  0  0  0  0
   24.7346   -1.0390   28.4778 O   0  5  0  0  0  0  0  0  0  0  0  0
   23.5656    0.7862   27.1784 O   0  0  0  0  0  0  0  0  0  0  0  0
  1  3  1  1  0  0  0
  1 21  1  0  0  0  0
  1 22  1  0  0  0  0
  1 23  2  0  0  0  0
  2  3  1  0  0  0  0
  4  2  1  6  0  0  0
  4  5  1  0  0  0  0
  4  6  1  0  0  0  0
  6  7  1  1  0  0  0
  6  8  1  0  0  0  0
  8  9  1  0  0  0  0
  9  5  1  6  0  0  0
  9 20  1  0  0  0  0
 10 11  1  0  0  0  0
 10 16  1  0  0  0  0
 11 12  1  6  0  0  0
 11 13  1  0  0  0  0
 14 13  1  1  0  0  0
 14 15  1  0  0  0  0
 14 20  1  0  0  0  0
 15 16  1  6  0  0  0
 15 18  1  0  0  0  0
 16 17  2  0  0  0  0
 18 19  1  0  0  0  0
 20 19  1  6  0  0  0
M  CHG  1  22  -1
M  END
>  <CHROM.1>
71.21639501,-172.67096580,173.45358225,-103.24257464,21.53408566,3.69329620
29.76279947,0.02991971,0.88397528,-1.41095463

>  <Name>
ligand

>  <RI>
0

>  <Rbt.Current_Directory>
/home/itssahil/PROJECTS/Mol_Feturizer/Test_systems_manuscript/rnas/3slm

>  <Rbt.Executable>
rbdock ($Id: //depot/dev/client3/rdock/2013.1/src/exe/rbdock.cxx#4 $)

>  <Rbt.Library>
libRbt.so (2013.1, Build901 2013/11/27)

>  <Rbt.Parameter_File>
/export/apps/rDock/src/rDock_2013.1_src/data/scripts/dock_solv.prm

>  <Rbt.Receptor>
prm/pocket_docking_7.prm

>  <SCORE>
-15.9506

>  <SCORE.INTER>
-11.3731

>  <SCORE.INTER.CONST>
1

>  <SCORE.INTER.POLAR>
0

>  <SCORE.INTER.ROT>
4

>  <SCORE.INTER.SOLV>
19.4373

>  <SCORE.INTER.VDW>
-20.3278

>  <SCORE.INTER.norm>
-0.494481

>  <SCORE.INTRA>
-4.57756

>  <SCORE.INTRA.DIHEDRAL>
-6.84576

>  <SCORE.INTRA.DIHEDRAL.0>
8.62657

>  <SCORE.INTRA.POLAR>
0

>  <SCORE.INTRA.POLAR.0>
0

>  <SCORE.INTRA.REPUL>
0

>  <SCORE.INTRA.REPUL.0>
0

>  <SCORE.INTRA.SOLV>
-0.200868

>  <SCORE.INTRA.SOLV.lig_0>
-66.3641

>  <SCORE.INTRA.VDW>
-1.05424

>  <SCORE.INTRA.VDW.0>
0.452231

>  <SCORE.INTRA.norm>
-0.199024

>  <SCORE.RESTR>
0

>  <SCORE.RESTR.CAVITY>
0

>  <SCORE.RESTR.norm>
0

>  <SCORE.SYSTEM>
0

>  <SCORE.SYSTEM.CONST>
0

>  <SCORE.SYSTEM.DIHEDRAL>
0

>  <SCORE.SYSTEM.SOLV>
0

>  <SCORE.SYSTEM.norm>
0

>  <SCORE.heavy>
23

>  <SCORE.norm>
-0.693505

>  <RMSD>
5.976

$$$$
ligand
 OpenBabel02271912143D
libRbt.so/2013.1/901 2013/11/27
 23 25  0  0  0  0  0  0  0  0999 V2000
   19.7782    5.4711   32.8136 P   0  0  1  0  0  0  0  0  0  0  0  0
   21.1847    3.8664   31.2965 C   0  0  0  0  0  0  0  0  0  0  0  0
   21.1093    4.6255   32.4952 O   0  0  0  0  0  0  0  0  0  0  0  0
   21.3007    4.8453   30.1498 C   0  0  1  0  0  0  0  0  0  0  0  0
   22.4141    4.5541   29.3058 O   0  0  0  0  0  0  0  0  0  0  0  0
   20.0419    4.7718   29.3023 C   0  0  1  0  0  0  0  0  0  0  0  0
   19.5909    6.1145   29.0532 O   0  0  0  0  0  0  0  0  0  0  0  0
   20.4610    4.0600   28.0221 C   0  0  0  0  0  0  0  0  0  0  0  0
   21.9781    4.2228   27.9809 C   0  0  2  0  0  0  0  0  0  0  0  0
   23.5629   -0.3459   29.7549 N   0  0  0  0  0  0  0  0  0  0  0  0
   22.9849    0.6529   30.4420 C   0  0  2  0  0  0  0  0  0  0  0  0
   22.7675    0.4666   31.7647 N   0  0  0  0  0  0  0  0  0  0  0  0
   22.6228    1.8052   29.8279 N   0  0  0  0  0  0  0  0  0  0  0  0
   22.8466    1.9556   28.5062 C   0  0  2  0  0  0  0  0  0  0  0  0
   23.4406    0.9410   27.7873 C   0  0  1  0  0  0  0  0  0  0  0  0
   23.7936   -0.2278   28.4347 C   0  0  0  0  0  0  0  0  0  0  0  0
   24.3276   -1.1625   27.7994 O   0  0  0  0  0  0  0  0  0  0  0  0
   23.5544    1.3466   26.5071 N   0  0  0  0  0  0  0  0  0  0  0  0
   23.0350    2.5847   26.4319 C   0  0  0  0  0  0  0  0  0  0  0  0
   22.6197    2.9460   27.6508 N   0  0  1  0  0  0  0  0  0  0  0  0
   19.8715    5.9154   34.2531 O   0  0  0  0  0  0  0  0  0  0  0  0
   19.8146    6.5997   31.8091 O   0  5  0  0  0  0  0  0  0  0  0  0
   18.6827    4.4701   32.5641 O   0  0  0  0  0  0  0  0  0  0  0  0
  1  3  1  6  0  0  0
  1 21  1  0  0  0  0
  1 22  1  0  0  0  0
  1 23  2  0  0  0  0
  2  3  1  0  0  0  0
  4  2  1  1  0  0  0
  4  5  1  0  0  0  0
  4  6  1  0  0  0  0
  6  7  1  6  0  0  0
  6  8  1  0  0  0  0
  8  9  1  0  0  0  0
  9  5  1  1  0  0  0
  9 20  1  0  0  0  0
 10 11  1  0  0  0  0
 10 16  1  0  0  0  0
 11 12  1  6  0  0  0
 11 13  1  0  0  0  0
 14 13  1  1  0  0  0
 14 15  1  0  0  0  0
 14 20  1  0  0  0  0
 15 16  1  6  0  0  0
 15 18  1  0  0  0  0
 16 17  2  0  0  0  0
 18 19  1  0  0  0  0
 20 19  1  6  0  0  0
M  CHG  1  22  -1
M  END
>  <CHROM.1>
168.10178703,127.40971585,70.81061498,35.90410071,21.63942856,3.28284471
29.99066426,-2.83320839,1.02218195,-1.22762495

>  <Name>
ligand

>  <RI>
416

>  <Rbt.Current_Directory>
/home/itssahil/PROJECTS/Mol_Feturizer/Test_systems_manuscript/rnas/3slm

>  <Rbt.Executable>
rbdock ($Id: //depot/dev/client3/rdock/2013.1/src/exe/rbdock.cxx#4 $)

>  <Rbt.Library>
libRbt.so (2013.1, Build901 2013/11/27)

>  <Rbt.Parameter_File>
/export/apps/rDock/src/rDock_2013.1_src/data/scripts/dock_solv.prm

>  <Rbt.Receptor>
prm/pocket_docking_6.prm

>  <SCORE>
-18.371

>  <SCORE.INTER>
-18.0698

>  <SCORE.INTER.CONST>
1

>  <SCORE.INTER.POLAR>
0

>  <SCORE.INTER.ROT>
4

>  <SCORE.INTER.SOLV>
20.9074

>  <SCORE.INTER.VDW>
-25.2823

>  <SCORE.INTER.norm>
-0.785642

>  <SCORE.INTRA>
-0.301225

>  <SCORE.INTRA.DIHEDRAL>
-1.6331

>  <SCORE.INTRA.DIHEDRAL.0>
8.62657

>  <SCORE.INTRA.POLAR>
0

>  <SCORE.INTRA.POLAR.0>
0

>  <SCORE.INTRA.REPUL>
0

>  <SCORE.INTRA.REPUL.0>
0

>  <SCORE.INTRA.SOLV>
5.7174

>  <SCORE.INTRA.SOLV.lig_0>
-66.3641

>  <SCORE.INTRA.VDW>
-2.34338

>  <SCORE.INTRA.VDW.0>
0.452231

>  <SCORE.INTRA.norm>
-0.0130967

>  <SCORE.RESTR>
0

>  <SCORE.RESTR.CAVITY>
0

>  <SCORE.RESTR.norm>
0

>  <SCORE.SYSTEM>
0

>  <SCORE.SYSTEM.CONST>
0

>  <SCORE.SYSTEM.DIHEDRAL>
0

>  <SCORE.SYSTEM.SOLV>
0

>  <SCORE.SYSTEM.norm>
0

>  <SCORE.heavy>
23

>  <SCORE.norm>
-0.798739

>  <RMSD>
5.997

$$$$
ligand
 OpenBabel02271912143D
libRbt.so/2013.1/901 2013/11/27
 23 25  0  0  0  0  0  0  0  0999 V2000
   23.6420    0.2121   31.7236 P   0  0  1  0  0  0  0  0  0  0  0  0
   22.9756    1.3892   29.4818 C   0  0  0  0  0  0  0  0  0  0  0  0
   22.5756    0.5739   30.5746 O   0  0  0  0  0  0  0  0  0  0  0  0
   21.7381    1.6872   28.6655 C   0  0  1  0  0  0  0  0  0  0  0  0
   20.6591    2.1515   29.4760 O   0  0  0  0  0  0  0  0  0  0  0  0
   22.0592    2.7722   27.6514 C   0  0  1  0  0  0  0  0  0  0  0  0
   21.5515    2.3539   26.3725 O   0  0  0  0  0  0  0  0  0  0  0  0
   21.3583    4.0230   28.1664 C   0  0  0  0  0  0  0  0  0  0  0  0
   20.2918    3.4907   29.1198 C   0  0  2  0  0  0  0  0  0  0  0  0
   18.8258    7.8324   31.4720 N   0  0  0  0  0  0  0  0  0  0  0  0
   18.6299    7.4788   30.1913 C   0  0  2  0  0  0  0  0  0  0  0  0
   17.9589    8.3418   29.3933 N   0  0  0  0  0  0  0  0  0  0  0  0
   19.0811    6.2925   29.7171 N   0  0  0  0  0  0  0  0  0  0  0  0
   19.7395    5.4516   30.5412 C   0  0  2  0  0  0  0  0  0  0  0  0
   19.9505    5.8004   31.8577 C   0  0  1  0  0  0  0  0  0  0  0  0
   19.4737    7.0125   32.3195 C   0  0  0  0  0  0  0  0  0  0  0  0
   19.6490    7.3447   33.5116 O   0  0  0  0  0  0  0  0  0  0  0  0
   20.6304    4.7998   32.4516 N   0  0  0  0  0  0  0  0  0  0  0  0
   20.8308    3.8466   31.5246 C   0  0  0  0  0  0  0  0  0  0  0  0
   20.2959    4.2578   30.3698 N   0  0  1  0  0  0  0  0  0  0  0  0
   24.2122    1.5173   32.2231 O   0  0  0  0  0  0  0  0  0  0  0  0
   22.8301   -0.5465   32.7481 O   0  5  0  0  0  0  0  0  0  0  0  0
   24.6430   -0.6388   30.9898 O   0  0  0  0  0  0  0  0  0  0  0  0
  1  3  1  6  0  0  0
  1 21  1  0  0  0  0
  1 22  1  0  0  0  0
  1 23  2  0  0  0  0
  2  3  1  0  0  0  0
  4  2  1  1  0  0  0
  4  5  1  0  0  0  0
  4  6  1  0  0  0  0
  6  7  1  6  0  0  0
  6  8  1  0  0  0  0
  8  9  1  0  0  0  0
  9  5  1  1  0  0  0
  9 20  1  0  0  0  0
 10 11  1  0  0  0  0
 10 16  1  0  0  0  0
 11 12  1  1  0  0  0
 11 13  1  0  0  0  0
 14 13  1  6  0  0  0
 14 15  1  0  0  0  0
 14 20  1  0  0  0  0
 15 16  1  1  0  0  0
 15 18  1  0  0  0  0
 16 17  2  0  0  0  0
 18 19  1  0  0  0  0
 20 19  1  1  0  0  0
M  CHG  1  22  -1
M  END
>  <CHROM.1>
53.80296587,49.44642761,-173.47797479,-164.45548596,21.24439392,3.48954069
30.52995760,-0.21584302,-0.98319675,1.32880129

>  <Name>
ligand

>  <RI>
0

>  <Rbt.Current_Directory>
/home/itssahil/PROJECTS/Mol_Feturizer/Test_systems_manuscript/rnas/3slm

>  <Rbt.Executable>
rbdock ($Id: //depot/dev/client3/rdock/2013.1/src/exe/rbdock.cxx#4 $)

>  <Rbt.Library>
libRbt.so (2013.1, Build901 2013/11/27)

>  <Rbt.Parameter_File>
/export/apps/rDock/src/rDock_2013.1_src/data/scripts/dock_solv.prm

>  <Rbt.Receptor>
prm/pocket_docking_8.prm

>  <SCORE>
-18.1074

>  <SCORE.INTER>
-12.592

>  <SCORE.INTER.CONST>
1

>  <SCORE.INTER.POLAR>
0

>  <SCORE.INTER.ROT>
4

>  <SCORE.INTER.SOLV>
16.6889

>  <SCORE.INTER.VDW>
-20.2243

>  <SCORE.INTER.norm>
-0.547479

>  <SCORE.INTRA>
-5.51537

>  <SCORE.INTRA.DIHEDRAL>
-6.73347

>  <SCORE.INTRA.DIHEDRAL.0>
8.62657

>  <SCORE.INTRA.POLAR>
0

>  <SCORE.INTRA.POLAR.0>
0

>  <SCORE.INTRA.REPUL>
0

>  <SCORE.INTRA.REPUL.0>
0

>  <SCORE.INTRA.SOLV>
-0.669784

>  <SCORE.INTRA.SOLV.lig_0>
-66.3641

>  <SCORE.INTRA.VDW>
-1.81374

>  <SCORE.INTRA.VDW.0>
0.452231

>  <SCORE.INTRA.norm>
-0.239799

>  <SCORE.RESTR>
0

>  <SCORE.RESTR.CAVITY>
0

>  <SCORE.RESTR.norm>
0

>  <SCORE.SYSTEM>
0

>  <SCORE.SYSTEM.CONST>
0

>  <SCORE.SYSTEM.DIHEDRAL>
0

>  <SCORE.SYSTEM.SOLV>
0

>  <SCORE.SYSTEM.norm>
0

>  <SCORE.heavy>
23

>  <SCORE.norm>
-0.787277

>  <RMSD>
6.021

$$$$
ligand
 OpenBabel02271912143D
libRbt.so/2013.1/901 2013/11/27
 23 25  0  0  0  0  0  0  0  0999 V2000
   22.8897    1.8211   27.8341 P   0  0  1  0  0  0  0  0  0  0  0  0
   23.8673    2.8805   30.0198 C   0  0  0  0  0  0  0  0  0  0  0  0
   22.9839    3.0095   28.9145 O   0  0  0  0  0  0  0  0  0  0  0  0
   23.0225    2.8792   31.2740 C   0  0  1  0  0  0  0  0  0  0  0  0
   22.1678    4.0198   31.3468 O   0  0  0  0  0  0  0  0  0  0  0  0
   22.1454    1.6386   31.2830 C   0  0  1  0  0  0  0  0  0  0  0  0
   22.2436    1.0304   32.5825 O   0  0  0  0  0  0  0  0  0  0  0  0
   20.7373    2.1404   30.9887 C   0  0  0  0  0  0  0  0  0  0  0  0
   20.7891    3.6272   31.3302 C   0  0  2  0  0  0  0  0  0  0  0  0
   18.4404    8.0486   30.1191 N   0  0  0  0  0  0  0  0  0  0  0  0
   18.8977    7.6568   31.3195 C   0  0  2  0  0  0  0  0  0  0  0  0
   18.7489    8.5083   32.3609 N   0  0  0  0  0  0  0  0  0  0  0  0
   19.4971    6.4522   31.4796 N   0  0  0  0  0  0  0  0  0  0  0  0
   19.6367    5.6303   30.4191 C   0  0  2  0  0  0  0  0  0  0  0  0
   19.1710    6.0167   29.1810 C   0  0  1  0  0  0  0  0  0  0  0  0
   18.5704    7.2535   29.0416 C   0  0  0  0  0  0  0  0  0  0  0  0
   18.1471    7.6253   27.9258 O   0  0  0  0  0  0  0  0  0  0  0  0
   19.4260    5.0213   28.3090 N   0  0  0  0  0  0  0  0  0  0  0  0
   20.0438    4.0405   28.9906 C   0  0  0  0  0  0  0  0  0  0  0  0
   20.1559    4.4170   30.2691 N   0  0  1  0  0  0  0  0  0  0  0  0
   22.3756    0.6029   28.5618 O   0  0  0  0  0  0  0  0  0  0  0  0
   21.9503    2.3607   26.7803 O   0  5  0  0  0  0  0  0  0  0  0  0
   24.3137    1.6851   27.3670 O   0  0  0  0  0  0  0  0  0  0  0  0
  1  3  1  1  0  0  0
  1 21  1  0  0  0  0
  1 22  1  0  0  0  0
  1 23  2  0  0  0  0
  2  3  1  0  0  0  0
  4  2  1  6  0  0  0
  4  5  1  0  0  0  0
  4  6  1  0  0  0  0
  6  7  1  1  0  0  0
  6  8  1  0  0  0  0
  8  9  1  0  0  0  0
  9  5  1  6  0  0  0
  9 20  1  0  0  0  0
 10 11  1  0  0  0  0
 10 16  1  0  0  0  0
 11 12  1  6  0  0  0
 11 13  1  0  0  0  0
 14 13  1  1  0  0  0
 14 15  1  0  0  0  0
 14 20  1  0  0  0  0
 15 16  1  6  0  0  0
 15 18  1  0  0  0  0
 16 17  2  0  0  0  0
 18 19  1  0  0  0  0
 20 19  1  6  0  0  0
M  CHG  1  22  -1
M  END
>  <CHROM.1>
62.81950819,-54.20441181,-116.98466775,-87.40545306,21.06441443,4.05736648
29.75389314,0.16915394,0.92678400,-1.56881466

>  <Name>
ligand

>  <RI>
0

>  <Rbt.Current_Directory>
/home/itssahil/PROJECTS/Mol_Feturizer/Test_systems_manuscript/rnas/3slm

>  <Rbt.Executable>
rbdock ($Id: //depot/dev/client3/rdock/2013.1/src/exe/rbdock.cxx#4 $)

>  <Rbt.Library>
libRbt.so (2013.1, Build901 2013/11/27)

>  <Rbt.Parameter_File>
/export/apps/rDock/src/rDock_2013.1_src/data/scripts/dock_solv.prm

>  <Rbt.Receptor>
prm/blind_docking_60.prm

>  <SCORE>
-14.4516

>  <SCORE.INTER>
-12.4577

>  <SCORE.INTER.CONST>
1

>  <SCORE.INTER.POLAR>
0

>  <SCORE.INTER.ROT>
4

>  <SCORE.INTER.SOLV>
18.1145

>  <SCORE.INTER.VDW>
-20.61

>  <SCORE.INTER.norm>
-0.541639

>  <SCORE.INTRA>
-1.99388

>  <SCORE.INTRA.DIHEDRAL>
-0.188193

>  <SCORE.INTRA.DIHEDRAL.0>
8.62657

>  <SCORE.INTRA.POLAR>
0

>  <SCORE.INTRA.POLAR.0>
0

>  <SCORE.INTRA.REPUL>
0

>  <SCORE.INTRA.REPUL.0>
0

>  <SCORE.INTRA.SOLV>
1.26834

>  <SCORE.INTRA.SOLV.lig_0>
-66.3641

>  <SCORE.INTRA.VDW>
-2.53396

>  <SCORE.INTRA.VDW.0>
0.452231

>  <SCORE.INTRA.norm>
-0.0866905

>  <SCORE.RESTR>
0

>  <SCORE.RESTR.CAVITY>
0

>  <SCORE.RESTR.norm>
0

>  <SCORE.SYSTEM>
0

>  <SCORE.SYSTEM.CONST>
0

>  <SCORE.SYSTEM.DIHEDRAL>
0

>  <SCORE.SYSTEM.SOLV>
0

>  <SCORE.SYSTEM.norm>
0

>  <SCORE.heavy>
23

>  <SCORE.norm>
-0.62833

>  <RMSD>
6.037

$$$$
ligand
 OpenBabel02271912143D
libRbt.so/2013.1/901 2013/11/27
 23 25  0  0  0  0  0  0  0  0999 V2000
   24.9350    1.0230   28.8141 P   0  0  1  0  0  0  0  0  0  0  0  0
   22.8689    2.1663   27.6831 C   0  0  0  0  0  0  0  0  0  0  0  0
   23.3846    1.0438   28.3850 O   0  0  0  0  0  0  0  0  0  0  0  0
   21.3724    1.9798   27.5722 C   0  0  1  0  0  0  0  0  0  0  0  0
   20.7459    1.8932   28.8516 O   0  0  0  0  0  0  0  0  0  0  0  0
   20.7746    3.1696   26.8405 C   0  0  1  0  0  0  0  0  0  0  0  0
   19.8772    2.6710   25.8334 O   0  0  0  0  0  0  0  0  0  0  0  0
   20.0472    3.9745   27.9102 C   0  0  0  0  0  0  0  0  0  0  0  0
   19.8313    2.9796   29.0474 C   0  0  2  0  0  0  0  0  0  0  0  0
   19.3291    7.0778   32.1271 N   0  0  0  0  0  0  0  0  0  0  0  0
   18.8093    6.8950   30.9023 C   0  0  2  0  0  0  0  0  0  0  0  0
   18.0453    7.8856   30.3860 N   0  0  0  0  0  0  0  0  0  0  0  0
   19.0351    5.7517   30.2111 N   0  0  0  0  0  0  0  0  0  0  0  0
   19.7949    4.7805   30.7580 C   0  0  2  0  0  0  0  0  0  0  0  0
   20.3372    4.9534   32.0130 C   0  0  1  0  0  0  0  0  0  0  0  0
   20.0860    6.1252   32.7012 C   0  0  0  0  0  0  0  0  0  0  0  0
   20.5632    6.2988   33.8434 O   0  0  0  0  0  0  0  0  0  0  0  0
   21.0505    3.8508   32.3160 N   0  0  0  0  0  0  0  0  0  0  0  0
   20.9469    3.0080   31.2733 C   0  0  0  0  0  0  0  0  0  0  0  0
   20.1929    3.5869   30.3324 N   0  0  1  0  0  0  0  0  0  0  0  0
   25.1827    2.2660   29.6336 O   0  0  0  0  0  0  0  0  0  0  0  0
   25.0829   -0.2702   29.5822 O   0  5  0  0  0  0  0  0  0  0  0  0
   25.6454    1.0270   27.4875 O   0  0  0  0  0  0  0  0  0  0  0  0
  1  3  1  6  0  0  0
  1 21  1  0  0  0  0
  1 22  1  0  0  0  0
  1 23  2  0  0  0  0
  2  3  1  0  0  0  0
  4  2  1  1  0  0  0
  4  5  1  0  0  0  0
  4  6  1  0  0  0  0
  6  7  1  6  0  0  0
  6  8  1  0  0  0  0
  8  9  1  0  0  0  0
  9  5  1  6  0  0  0
  9 20  1  0  0  0  0
 10 11  1  0  0  0  0
 10 16  1  0  0  0  0
 11 12  1  1  0  0  0
 11 13  1  0  0  0  0
 14 13  1  6  0  0  0
 14 15  1  0  0  0  0
 14 20  1  0  0  0  0
 15 16  1  1  0  0  0
 15 18  1  0  0  0  0
 16 17  2  0  0  0  0
 18 19  1  0  0  0  0
 20 19  1  1  0  0  0
M  CHG  1  22  -1
M  END
>  <CHROM.1>
55.92276702,59.89661433,-173.09425525,164.75662358,21.51110684,3.42849634
29.65102299,-0.72659237,-0.57372710,1.11264111

>  <Name>
ligand

>  <RI>
0

>  <Rbt.Current_Directory>
/home/itssahil/PROJECTS/Mol_Feturizer/Test_systems_manuscript/rnas/3slm

>  <Rbt.Executable>
rbdock ($Id: //depot/dev/client3/rdock/2013.1/src/exe/rbdock.cxx#4 $)

>  <Rbt.Library>
libRbt.so (2013.1, Build901 2013/11/27)

>  <Rbt.Parameter_File>
/export/apps/rDock/src/rDock_2013.1_src/data/scripts/dock_solv.prm

>  <Rbt.Receptor>
prm/pocket_docking_7.prm

>  <SCORE>
-18.5429

>  <SCORE.INTER>
-13.2641

>  <SCORE.INTER.CONST>
1

>  <SCORE.INTER.POLAR>
0

>  <SCORE.INTER.ROT>
4

>  <SCORE.INTER.SOLV>
21.1544

>  <SCORE.INTER.VDW>
-22.1609

>  <SCORE.INTER.norm>
-0.5767

>  <SCORE.INTRA>
-5.28595

>  <SCORE.INTRA.DIHEDRAL>
-7.21561

>  <SCORE.INTRA.DIHEDRAL.0>
8.62657

>  <SCORE.INTRA.POLAR>
0

>  <SCORE.INTRA.POLAR.0>
0

>  <SCORE.INTRA.REPUL>
0

>  <SCORE.INTRA.REPUL.0>
0

>  <SCORE.INTRA.SOLV>
-0.688948

>  <SCORE.INTRA.SOLV.lig_0>
-66.3641

>  <SCORE.INTRA.VDW>
-1.33367

>  <SCORE.INTRA.VDW.0>
0.452231

>  <SCORE.INTRA.norm>
-0.229824

>  <SCORE.RESTR>
0.00716857

>  <SCORE.RESTR.CAVITY>
0.00716857

>  <SCORE.RESTR.norm>
0.000311677

>  <SCORE.SYSTEM>
0

>  <SCORE.SYSTEM.CONST>
0

>  <SCORE.SYSTEM.DIHEDRAL>
0

>  <SCORE.SYSTEM.SOLV>
0

>  <SCORE.SYSTEM.norm>
0

>  <SCORE.heavy>
23

>  <SCORE.norm>
-0.806212

>  <RMSD>
6.077

$$$$
ligand
 OpenBabel02271912143D
libRbt.so/2013.1/901 2013/11/27
 23 25  0  0  0  0  0  0  0  0999 V2000
   19.2610    1.8695   26.9783 P   0  0  1  0  0  0  0  0  0  0  0  0
   20.5897    2.7729   29.0455 C   0  0  0  0  0  0  0  0  0  0  0  0
   19.5919    1.8896   28.5525 O   0  0  0  0  0  0  0  0  0  0  0  0
   20.4902    2.7680   30.5543 C   0  0  1  0  0  0  0  0  0  0  0  0
   20.7186    1.4705   31.1033 O   0  0  0  0  0  0  0  0  0  0  0  0
   21.5389    3.7069   31.1262 C   0  0  1  0  0  0  0  0  0  0  0  0
   20.9045    4.5390   32.1127 O   0  0  0  0  0  0  0  0  0  0  0  0
   22.5998    2.7997   31.7365 C   0  0  0  0  0  0  0  0  0  0  0  0
   21.8837    1.4670   31.9386 C   0  0  2  0  0  0  0  0  0  0  0  0
   24.5485   -0.4762   27.9820 N   0  0  0  0  0  0  0  0  0  0  0  0
   23.8332    0.6599   28.0190 C   0  0  2  0  0  0  0  0  0  0  0  0
   23.7937    1.4183   26.8988 N   0  0  0  0  0  0  0  0  0  0  0  0
   23.1809    1.0383   29.1446 N   0  0  0  0  0  0  0  0  0  0  0  0
   23.2472    0.2632   30.2467 C   0  0  2  0  0  0  0  0  0  0  0  0
   23.9753   -0.9066   30.2244 C   0  0  1  0  0  0  0  0  0  0  0  0
   24.6383   -1.2670   29.0667 C   0  0  0  0  0  0  0  0  0  0  0  0
   25.3094   -2.3208   29.0279 O   0  0  0  0  0  0  0  0  0  0  0  0
   23.8711   -1.4872   31.4362 N   0  0  0  0  0  0  0  0  0  0  0  0
   23.1002   -0.6902   32.1969 C   0  0  0  0  0  0  0  0  0  0  0  0
   22.7203    0.3607   31.4620 N   0  0  1  0  0  0  0  0  0  0  0  0
   18.3390    3.0332   26.7063 O   0  0  0  0  0  0  0  0  0  0  0  0
   20.6167    1.9808   26.3196 O   0  5  0  0  0  0  0  0  0  0  0  0
   18.6045    0.5279   26.7954 O   0  0  0  0  0  0  0  0  0  0  0  0
  1  3  1  1  0  0  0
  1 21  1  0  0  0  0
  1 22  1  0  0  0  0
  1 23  2  0  0  0  0
  2  3  1  0  0  0  0
  4  2  1  6  0  0  0
  4  5  1  0  0  0  0
  4  6  1  0  0  0  0
  6  7  1  1  0  0  0
  6  8  1  0  0  0  0
  8  9  1  0  0  0  0
  9  5  1  6  0  0  0
  9 20  1  0  0  0  0
 10 11  1  0  0  0  0
 10 16  1  0  0  0  0
 11 12  1  1  0  0  0
 11 13  1  0  0  0  0
 14 13  1  6  0  0  0
 14 15  1  0  0  0  0
 14 20  1  0  0  0  0
 15 16  1  1  0  0  0
 15 18  1  0  0  0  0
 16 17  2  0  0  0  0
 18 19  1  0  0  0  0
 20 19  1  1  0  0  0
M  CHG  1  22  -1
M  END
>  <CHROM.1>
-80.90807539,60.80785176,169.13831557,61.79455477,21.81556413,1.19362607
29.31896335,-2.95574821,-0.67484427,1.18575618

>  <Name>
ligand

>  <RI>
416

>  <Rbt.Current_Directory>
/home/itssahil/PROJECTS/Mol_Feturizer/Test_systems_manuscript/rnas/3slm

>  <Rbt.Executable>
rbdock ($Id: //depot/dev/client3/rdock/2013.1/src/exe/rbdock.cxx#4 $)

>  <Rbt.Library>
libRbt.so (2013.1, Build901 2013/11/27)

>  <Rbt.Parameter_File>
/export/apps/rDock/src/rDock_2013.1_src/data/scripts/dock_solv.prm

>  <Rbt.Receptor>
prm/pocket_docking_4.prm

>  <SCORE>
-19.2737

>  <SCORE.INTER>
-14.6074

>  <SCORE.INTER.CONST>
1

>  <SCORE.INTER.POLAR>
0

>  <SCORE.INTER.ROT>
4

>  <SCORE.INTER.SOLV>
24.7572

>  <SCORE.INTER.VDW>
-24.2573

>  <SCORE.INTER.norm>
-0.635106

>  <SCORE.INTRA>
-4.67731

>  <SCORE.INTRA.DIHEDRAL>
-6.23299

>  <SCORE.INTRA.DIHEDRAL.0>
8.62657

>  <SCORE.INTRA.POLAR>
0

>  <SCORE.INTRA.POLAR.0>
0

>  <SCORE.INTRA.REPUL>
0

>  <SCORE.INTRA.REPUL.0>
0

>  <SCORE.INTRA.SOLV>
2.17588

>  <SCORE.INTRA.SOLV.lig_0>
-66.3641

>  <SCORE.INTRA.VDW>
-2.64876

>  <SCORE.INTRA.VDW.0>
0.452231

>  <SCORE.INTRA.norm>
-0.203361

>  <SCORE.RESTR>
0.011051

>  <SCORE.RESTR.CAVITY>
0.011051

>  <SCORE.RESTR.norm>
0.000480476

>  <SCORE.SYSTEM>
0

>  <SCORE.SYSTEM.CONST>
0

>  <SCORE.SYSTEM.DIHEDRAL>
0

>  <SCORE.SYSTEM.SOLV>
0

>  <SCORE.SYSTEM.norm>
0

>  <SCORE.heavy>
23

>  <SCORE.norm>
-0.837987

>  <RMSD>
6.128

$$$$
ligand
 OpenBabel02271912143D
libRbt.so/2013.1/901 2013/11/27
 23 25  0  0  0  0  0  0  0  0999 V2000
   23.5281   -0.3583   31.6211 P   0  0  1  0  0  0  0  0  0  0  0  0
   23.5260    0.8553   29.3010 C   0  0  0  0  0  0  0  0  0  0  0  0
   22.8023    0.0951   30.2587 O   0  0  0  0  0  0  0  0  0  0  0  0
   22.5134    1.5601   28.4268 C   0  0  1  0  0  0  0  0  0  0  0  0
   21.3899    2.0248   29.1742 O   0  0  0  0  0  0  0  0  0  0  0  0
   23.1703    2.7654   27.7754 C   0  0  1  0  0  0  0  0  0  0  0  0
   22.8415    2.7522   26.3755 O   0  0  0  0  0  0  0  0  0  0  0  0
   22.5859    3.9767   28.4913 C   0  0  0  0  0  0  0  0  0  0  0  0
   21.2986    3.4547   29.1237 C   0  0  2  0  0  0  0  0  0  0  0  0
   19.2807    6.9194   32.3572 N   0  0  0  0  0  0  0  0  0  0  0  0
   19.1419    6.8542   31.0230 C   0  0  2  0  0  0  0  0  0  0  0  0
   18.3756    7.7932   30.4210 N   0  0  0  0  0  0  0  0  0  0  0  0
   19.7420    5.8741   30.3053 N   0  0  0  0  0  0  0  0  0  0  0  0
   20.4929    4.9487   30.9374 C   0  0  2  0  0  0  0  0  0  0  0  0
   20.6469    5.0029   32.3058 C   0  0  1  0  0  0  0  0  0  0  0  0
   20.0183    6.0076   33.0165 C   0  0  0  0  0  0  0  0  0  0  0  0
   20.1401    6.0705   34.2589 O   0  0  0  0  0  0  0  0  0  0  0  0
   21.4412    3.9797   32.6781 N   0  0  0  0  0  0  0  0  0  0  0  0
   21.7673    3.3004   31.5644 C   0  0  0  0  0  0  0  0  0  0  0  0
   21.1957    3.9033   30.5162 N   0  0  1  0  0  0  0  0  0  0  0  0
   24.1431    0.8799   32.2266 O   0  0  0  0  0  0  0  0  0  0  0  0
   22.4145   -0.9668   32.4419 O   0  5  0  0  0  0  0  0  0  0  0  0
   24.5435   -1.3583   31.1379 O   0  0  0  0  0  0  0  0  0  0  0  0
  1  3  1  6  0  0  0
  1 21  1  0  0  0  0
  1 22  1  0  0  0  0
  1 23  2  0  0  0  0
  2  3  1  0  0  0  0
  4  2  1  1  0  0  0
  4  5  1  0  0  0  0
  4  6  1  0  0  0  0
  6  7  1  6  0  0  0
  6  8  1  0  0  0  0
  8  9  1  0  0  0  0
  9  5  1  1  0  0  0
  9 20  1  0  0  0  0
 10 11  1  0  0  0  0
 10 16  1  0  0  0  0
 11 12  1  1  0  0  0
 11 13  1  0  0  0  0
 14 13  1  6  0  0  0
 14 15  1  0  0  0  0
 14 20  1  0  0  0  0
 15 16  1  1  0  0  0
 15 18  1  0  0  0  0
 16 17  2  0  0  0  0
 18 19  1  0  0  0  0
 20 19  1  1  0  0  0
M  CHG  1  22  -1
M  END
>  <CHROM.1>
51.37484739,38.53423297,-159.10727901,-145.73923831,21.77448494,3.00538277
30.72482647,0.03466581,-1.03402946,1.79072358

>  <Name>
ligand

>  <RI>
416

>  <Rbt.Current_Directory>
/home/itssahil/PROJECTS/Mol_Feturizer/Test_systems_manuscript/rnas/3slm

>  <Rbt.Executable>
rbdock ($Id: //depot/dev/client3/rdock/2013.1/src/exe/rbdock.cxx#4 $)

>  <Rbt.Library>
libRbt.so (2013.1, Build901 2013/11/27)

>  <Rbt.Parameter_File>
/export/apps/rDock/src/rDock_2013.1_src/data/scripts/dock_solv.prm

>  <Rbt.Receptor>
prm/pocket_docking_6.prm

>  <SCORE>
-18.4265

>  <SCORE.INTER>
-13.8551

>  <SCORE.INTER.CONST>
1

>  <SCORE.INTER.POLAR>
0

>  <SCORE.INTER.ROT>
4

>  <SCORE.INTER.SOLV>
20.9825

>  <SCORE.INTER.VDW>
-22.4975

>  <SCORE.INTER.norm>
-0.602394

>  <SCORE.INTRA>
-4.57143

>  <SCORE.INTRA.DIHEDRAL>
-3.81827

>  <SCORE.INTRA.DIHEDRAL.0>
8.62657

>  <SCORE.INTRA.POLAR>
0

>  <SCORE.INTRA.POLAR.0>
0

>  <SCORE.INTRA.REPUL>
0

>  <SCORE.INTRA.REPUL.0>
0

>  <SCORE.INTRA.SOLV>
-0.607473

>  <SCORE.INTRA.SOLV.lig_0>
-66.3641

>  <SCORE.INTRA.VDW>
-2.35856

>  <SCORE.INTRA.VDW.0>
0.452231

>  <SCORE.INTRA.norm>
-0.198758

>  <SCORE.RESTR>
0

>  <SCORE.RESTR.CAVITY>
0

>  <SCORE.RESTR.norm>
0

>  <SCORE.SYSTEM>
0

>  <SCORE.SYSTEM.CONST>
0

>  <SCORE.SYSTEM.DIHEDRAL>
0

>  <SCORE.SYSTEM.SOLV>
0

>  <SCORE.SYSTEM.norm>
0

>  <SCORE.heavy>
23

>  <SCORE.norm>
-0.801152

>  <RMSD>
6.129

$$$$
ligand
 OpenBabel02271912143D
libRbt.so/2013.1/901 2013/11/27
 23 25  0  0  0  0  0  0  0  0999 V2000
   19.3506    1.8286   26.9601 P   0  0  1  0  0  0  0  0  0  0  0  0
   20.6381    2.7518   29.0446 C   0  0  0  0  0  0  0  0  0  0  0  0
   19.6514    1.8626   28.5402 O   0  0  0  0  0  0  0  0  0  0  0  0
   20.5113    2.7576   30.5514 C   0  0  1  0  0  0  0  0  0  0  0  0
   20.7117    1.4605   31.1120 O   0  0  0  0  0  0  0  0  0  0  0  0
   21.5626    3.6855   31.1366 C   0  0  1  0  0  0  0  0  0  0  0  0
   20.9221    4.5323   32.1065 O   0  0  0  0  0  0  0  0  0  0  0  0
   22.5996    2.7674   31.7714 C   0  0  0  0  0  0  0  0  0  0  0  0
   21.8614    1.4460   31.9683 C   0  0  2  0  0  0  0  0  0  0  0  0
   24.4562   -0.6252   28.0302 N   0  0  0  0  0  0  0  0  0  0  0  0
   23.7398    0.5107   28.0425 C   0  0  2  0  0  0  0  0  0  0  0  0
   23.6785    1.2313   26.8986 N   0  0  0  0  0  0  0  0  0  0  0  0
   23.1077    0.9258   29.1668 N   0  0  0  0  0  0  0  0  0  0  0  0
   23.1956    0.1880   30.2926 C   0  0  2  0  0  0  0  0  0  0  0  0
   23.9251   -0.9812   30.2959 C   0  0  1  0  0  0  0  0  0  0  0  0
   24.5673   -1.3793   29.1388 C   0  0  0  0  0  0  0  0  0  0  0  0
   25.2393   -2.4331   29.1228 O   0  0  0  0  0  0  0  0  0  0  0  0
   23.8442   -1.5212   31.5281 N   0  0  0  0  0  0  0  0  0  0  0  0
   23.0861   -0.7001   32.2759 C   0  0  0  0  0  0  0  0  0  0  0  0
   22.6909    0.3253   31.5136 N   0  0  1  0  0  0  0  0  0  0  0  0
   20.6808    1.9378   26.2552 O   0  0  0  0  0  0  0  0  0  0  0  0
   18.6414    0.5102   26.7527 O   0  5  0  0  0  0  0  0  0  0  0  0
   18.4675    3.0314   26.7656 O   0  0  0  0  0  0  0  0  0  0  0  0
  1  3  1  1  0  0  0
  1 21  1  0  0  0  0
  1 22  1  0  0  0  0
  1 23  2  0  0  0  0
  2  3  1  0  0  0  0
  4  2  1  6  0  0  0
  4  5  1  0  0  0  0
  4  6  1  0  0  0  0
  6  7  1  1  0  0  0
  6  8  1  0  0  0  0
  8  9  1  0  0  0  0
  9  5  1  6  0  0  0
  9 20  1  0  0  0  0
 10 11  1  0  0  0  0
 10 16  1  0  0  0  0
 11 12  1  1  0  0  0
 11 13  1  0  0  0  0
 14 13  1  6  0  0  0
 14 15  1  0  0  0  0
 14 20  1  0  0  0  0
 15 16  1  1  0  0  0
 15 18  1  0  0  0  0
 16 17  2  0  0  0  0
 18 19  1  0  0  0  0
 20 19  1  1  0  0  0
M  CHG  1  22  -1
M  END
>  <CHROM.1>
40.28022877,59.87309161,169.23345045,59.04111915,21.81359108,1.13921874,29.34097888
-2.94640646,-0.70542537,1.17503175

>  <Name>
ligand

>  <RI>
416

>  <Rbt.Current_Directory>
/home/itssahil/PROJECTS/Mol_Feturizer/Test_systems_manuscript/rnas/3slm

>  <Rbt.Executable>
rbdock ($Id: //depot/dev/client3/rdock/2013.1/src/exe/rbdock.cxx#4 $)

>  <Rbt.Library>
libRbt.so (2013.1, Build901 2013/11/27)

>  <Rbt.Parameter_File>
/export/apps/rDock/src/rDock_2013.1_src/data/scripts/dock_solv.prm

>  <Rbt.Receptor>
prm/pocket_docking_4.prm

>  <SCORE>
-18.4452

>  <SCORE.INTER>
-13.188

>  <SCORE.INTER.CONST>
1

>  <SCORE.INTER.POLAR>
0

>  <SCORE.INTER.ROT>
4

>  <SCORE.INTER.SOLV>
27.7899

>  <SCORE.INTER.VDW>
-24.3219

>  <SCORE.INTER.norm>
-0.573389

>  <SCORE.INTRA>
-5.26263

>  <SCORE.INTRA.DIHEDRAL>
-6.31771

>  <SCORE.INTRA.DIHEDRAL.0>
8.62657

>  <SCORE.INTRA.POLAR>
0

>  <SCORE.INTRA.POLAR.0>
0

>  <SCORE.INTRA.REPUL>
0

>  <SCORE.INTRA.REPUL.0>
0

>  <SCORE.INTRA.SOLV>
1.49102

>  <SCORE.INTRA.SOLV.lig_0>
-66.3641

>  <SCORE.INTRA.VDW>
-2.84929

>  <SCORE.INTRA.VDW.0>
0.452231

>  <SCORE.INTRA.norm>
-0.22881

>  <SCORE.RESTR>
0.00541836

>  <SCORE.RESTR.CAVITY>
0.00541836

>  <SCORE.RESTR.norm>
0.000235581

>  <SCORE.SYSTEM>
0

>  <SCORE.SYSTEM.CONST>
0

>  <SCORE.SYSTEM.DIHEDRAL>
0

>  <SCORE.SYSTEM.SOLV>
0

>  <SCORE.SYSTEM.norm>
0

>  <SCORE.heavy>
23

>  <SCORE.norm>
-0.801964

>  <RMSD>
6.134

$$$$
ligand
 OpenBabel02271912143D
libRbt.so/2013.1/901 2013/11/27
 23 25  0  0  0  0  0  0  0  0999 V2000
   23.1058    1.7452   32.1560 P   0  0  1  0  0  0  0  0  0  0  0  0
   22.2760    1.3683   29.7015 C   0  0  0  0  0  0  0  0  0  0  0  0
   22.5927    2.2928   30.7329 O   0  0  0  0  0  0  0  0  0  0  0  0
   21.7452    2.1642   28.5305 C   0  0  1  0  0  0  0  0  0  0  0  0
   20.6819    3.0364   28.9120 O   0  0  0  0  0  0  0  0  0  0  0  0
   22.8651    3.0172   27.9589 C   0  0  1  0  0  0  0  0  0  0  0  0
   22.8641    2.8581   26.5297 O   0  0  0  0  0  0  0  0  0  0  0  0
   22.5363    4.4446   28.3780 C   0  0  0  0  0  0  0  0  0  0  0  0
   21.0451    4.4072   28.7018 C   0  0  2  0  0  0  0  0  0  0  0  0
   18.4228    8.1627   31.0581 N   0  0  0  0  0  0  0  0  0  0  0  0
   18.4039    7.8316   29.7566 C   0  0  2  0  0  0  0  0  0  0  0  0
   17.5999    8.5456   28.9348 N   0  0  0  0  0  0  0  0  0  0  0  0
   19.1582    6.8098   29.2847 N   0  0  0  0  0  0  0  0  0  0  0  0
   19.9430    6.1131   30.1322 C   0  0  2  0  0  0  0  0  0  0  0  0
   19.9752    6.4414   31.4702 C   0  0  1  0  0  0  0  0  0  0  0  0
   19.1907    7.4827   31.9287 C   0  0  0  0  0  0  0  0  0  0  0  0
   19.2007    7.7922   33.1397 O   0  0  0  0  0  0  0  0  0  0  0  0
   20.8347    5.6054   32.0855 N   0  0  0  0  0  0  0  0  0  0  0  0
   21.3202    4.7707   31.1497 C   0  0  0  0  0  0  0  0  0  0  0  0
   20.7807    5.0952   29.9697 N   0  0  1  0  0  0  0  0  0  0  0  0
   24.3899    0.9935   31.9026 O   0  0  0  0  0  0  0  0  0  0  0  0
   23.2691    2.9952   32.9898 O   0  5  0  0  0  0  0  0  0  0  0  0
   21.9707    0.8625   32.5996 O   0  0  0  0  0  0  0  0  0  0  0  0
  1  3  1  6  0  0  0
  1 21  1  0  0  0  0
  1 22  1  0  0  0  0
  1 23  2  0  0  0  0
  2  3  1  0  0  0  0
  4  2  1  1  0  0  0
  4  5  1  0  0  0  0
  4  6  1  0  0  0  0
  6  7  1  6  0  0  0
  6  8  1  0  0  0  0
  8  9  1  0  0  0  0
  9  5  1  1  0  0  0
  9 20  1  0  0  0  0
 10 11  1  0  0  0  0
 10 16  1  0  0  0  0
 11 12  1  1  0  0  0
 11 13  1  0  0  0  0
 14 13  1  6  0  0  0
 14 15  1  0  0  0  0
 14 20  1  0  0  0  0
 15 16  1  1  0  0  0
 15 18  1  0  0  0  0
 16 17  2  0  0  0  0
 18 19  1  0  0  0  0
 20 19  1  1  0  0  0
M  CHG  1  22  -1
M  END
>  <CHROM.1>
61.28578814,-52.56045318,176.46510565,-120.28357030,21.22860456,4.30676891
30.46477561,-0.02177847,-0.95220297,1.51024206

>  <Name>
ligand

>  <RI>
0

>  <Rbt.Current_Directory>
/home/itssahil/PROJECTS/Mol_Feturizer/Test_systems_manuscript/rnas/3slm

>  <Rbt.Executable>
rbdock ($Id: //depot/dev/client3/rdock/2013.1/src/exe/rbdock.cxx#4 $)

>  <Rbt.Library>
libRbt.so (2013.1, Build901 2013/11/27)

>  <Rbt.Parameter_File>
/export/apps/rDock/src/rDock_2013.1_src/data/scripts/dock_solv.prm

>  <Rbt.Receptor>
prm/pocket_docking_8.prm

>  <SCORE>
-17.9259

>  <SCORE.INTER>
-11.9741

>  <SCORE.INTER.CONST>
1

>  <SCORE.INTER.POLAR>
0

>  <SCORE.INTER.ROT>
4

>  <SCORE.INTER.SOLV>
22.3588

>  <SCORE.INTER.VDW>
-21.7023

>  <SCORE.INTER.norm>
-0.520614

>  <SCORE.INTRA>
-5.95176

>  <SCORE.INTRA.DIHEDRAL>
-7.15542

>  <SCORE.INTRA.DIHEDRAL.0>
8.62657

>  <SCORE.INTRA.POLAR>
0

>  <SCORE.INTRA.POLAR.0>
0

>  <SCORE.INTRA.REPUL>
0

>  <SCORE.INTRA.REPUL.0>
0

>  <SCORE.INTRA.SOLV>
0.263242

>  <SCORE.INTRA.SOLV.lig_0>
-66.3641

>  <SCORE.INTRA.VDW>
-2.50567

>  <SCORE.INTRA.VDW.0>
0.452231

>  <SCORE.INTRA.norm>
-0.258772

>  <SCORE.RESTR>
0

>  <SCORE.RESTR.CAVITY>
0

>  <SCORE.RESTR.norm>
0

>  <SCORE.SYSTEM>
0

>  <SCORE.SYSTEM.CONST>
0

>  <SCORE.SYSTEM.DIHEDRAL>
0

>  <SCORE.SYSTEM.SOLV>
0

>  <SCORE.SYSTEM.norm>
0

>  <SCORE.heavy>
23

>  <SCORE.norm>
-0.779386

>  <RMSD>
6.149

$$$$
ligand
 OpenBabel02271912143D
libRbt.so/2013.1/901 2013/11/27
 23 25  0  0  0  0  0  0  0  0999 V2000
   23.6999    0.4990   31.4084 P   0  0  1  0  0  0  0  0  0  0  0  0
   22.5966    0.7475   29.0470 C   0  0  0  0  0  0  0  0  0  0  0  0
   23.0438    1.3840   30.2360 O   0  0  0  0  0  0  0  0  0  0  0  0
   22.0082    1.8186   28.1565 C   0  0  1  0  0  0  0  0  0  0  0  0
   20.9479    2.5270   28.7976 O   0  0  0  0  0  0  0  0  0  0  0  0
   23.0918    2.8230   27.8019 C   0  0  1  0  0  0  0  0  0  0  0  0
   23.0366    3.0591   26.3845 O   0  0  0  0  0  0  0  0  0  0  0  0
   22.7585    4.0735   28.6059 C   0  0  0  0  0  0  0  0  0  0  0  0
   21.2820    3.9119   28.9575 C   0  0  2  0  0  0  0  0  0  0  0  0
   19.1601    7.1738   32.3323 N   0  0  0  0  0  0  0  0  0  0  0  0
   19.1641    7.2572   30.9919 C   0  0  2  0  0  0  0  0  0  0  0  0
   18.5332    8.3105   30.4226 N   0  0  0  0  0  0  0  0  0  0  0  0
   19.7718    6.3119   30.2350 N   0  0  0  0  0  0  0  0  0  0  0  0
   20.3850    5.2703   30.8339 C   0  0  2  0  0  0  0  0  0  0  0  0
   20.3916    5.1713   32.2084 C   0  0  1  0  0  0  0  0  0  0  0  0
   19.7580    6.1439   32.9583 C   0  0  0  0  0  0  0  0  0  0  0  0
   19.7470    6.0690   34.2059 O   0  0  0  0  0  0  0  0  0  0  0  0
   21.0697    4.0560   32.5441 N   0  0  0  0  0  0  0  0  0  0  0  0
   21.4693    3.4712   31.4010 C   0  0  0  0  0  0  0  0  0  0  0  0
   21.0577    4.2217   30.3734 N   0  0  1  0  0  0  0  0  0  0  0  0
   24.7407   -0.3844   30.7646 O   0  0  0  0  0  0  0  0  0  0  0  0
   24.2590    1.5234   32.3686 O   0  5  0  0  0  0  0  0  0  0  0  0
   22.5191   -0.2609   31.9495 O   0  0  0  0  0  0  0  0  0  0  0  0
  1  3  1  6  0  0  0
  1 21  1  0  0  0  0
  1 22  1  0  0  0  0
  1 23  2  0  0  0  0
  2  3  1  0  0  0  0
  4  2  1  1  0  0  0
  4  5  1  0  0  0  0
  4  6  1  0  0  0  0
  6  7  1  6  0  0  0
  6  8  1  0  0  0  0
  8  9  1  0  0  0  0
  9  5  1  1  0  0  0
  9 20  1  0  0  0  0
 10 11  1  0  0  0  0
 10 16  1  0  0  0  0
 11 12  1  6  0  0  0
 11 13  1  0  0  0  0
 14 13  1  1  0  0  0
 14 15  1  0  0  0  0
 14 20  1  0  0  0  0
 15 16  1  6  0  0  0
 15 18  1  0  0  0  0
 16 17  2  0  0  0  0
 18 19  1  0  0  0  0
 20 19  1  6  0  0  0
M  CHG  1  22  -1
M  END
>  <CHROM.1>
49.04230938,-57.40232557,178.80146635,-131.91106679,21.68688071,3.42890716
30.59786197,-0.10296779,-0.98559117,1.70612649

>  <Name>
ligand

>  <RI>
0

>  <Rbt.Current_Directory>
/home/itssahil/PROJECTS/Mol_Feturizer/Test_systems_manuscript/rnas/3slm

>  <Rbt.Executable>
rbdock ($Id: //depot/dev/client3/rdock/2013.1/src/exe/rbdock.cxx#4 $)

>  <Rbt.Library>
libRbt.so (2013.1, Build901 2013/11/27)

>  <Rbt.Parameter_File>
/export/apps/rDock/src/rDock_2013.1_src/data/scripts/dock_solv.prm

>  <Rbt.Receptor>
prm/blind_docking_60.prm

>  <SCORE>
-18.1203

>  <SCORE.INTER>
-11.9498

>  <SCORE.INTER.CONST>
1

>  <SCORE.INTER.POLAR>
0

>  <SCORE.INTER.ROT>
4

>  <SCORE.INTER.SOLV>
20.6668

>  <SCORE.INTER.VDW>
-21.1221

>  <SCORE.INTER.norm>
-0.519556

>  <SCORE.INTRA>
-6.1711

>  <SCORE.INTRA.DIHEDRAL>
-7.18235

>  <SCORE.INTRA.DIHEDRAL.0>
8.62657

>  <SCORE.INTRA.POLAR>
0

>  <SCORE.INTRA.POLAR.0>
0

>  <SCORE.INTRA.REPUL>
0

>  <SCORE.INTRA.REPUL.0>
0

>  <SCORE.INTRA.SOLV>
-0.0155079

>  <SCORE.INTRA.SOLV.lig_0>
-66.3641

>  <SCORE.INTRA.VDW>
-2.57218

>  <SCORE.INTRA.VDW.0>
0.452231

>  <SCORE.INTRA.norm>
-0.268309

>  <SCORE.RESTR>
0.000570687

>  <SCORE.RESTR.CAVITY>
0.000570687

>  <SCORE.RESTR.norm>
2.48125e-05

>  <SCORE.SYSTEM>
0

>  <SCORE.SYSTEM.CONST>
0

>  <SCORE.SYSTEM.DIHEDRAL>
0

>  <SCORE.SYSTEM.SOLV>
0

>  <SCORE.SYSTEM.norm>
0

>  <SCORE.heavy>
23

>  <SCORE.norm>
-0.78784

>  <RMSD>
6.167

$$$$
ligand
 OpenBabel02271912143D
libRbt.so/2013.1/901 2013/11/27
 23 25  0  0  0  0  0  0  0  0999 V2000
   23.7828    0.4800   31.3728 P   0  0  1  0  0  0  0  0  0  0  0  0
   22.6127    0.7481   29.0460 C   0  0  0  0  0  0  0  0  0  0  0  0
   23.1327    1.3792   30.2079 O   0  0  0  0  0  0  0  0  0  0  0  0
   21.9860    1.8257   28.1901 C   0  0  1  0  0  0  0  0  0  0  0  0
   20.9502    2.5244   28.8799 O   0  0  0  0  0  0  0  0  0  0  0  0
   23.0516    2.8369   27.8022 C   0  0  1  0  0  0  0  0  0  0  0  0
   22.9390    3.0863   26.3904 O   0  0  0  0  0  0  0  0  0  0  0  0
   22.7472    4.0786   28.6308 C   0  0  0  0  0  0  0  0  0  0  0  0
   21.2864    3.9089   29.0397 C   0  0  2  0  0  0  0  0  0  0  0  0
   19.2602    7.1111   32.5285 N   0  0  0  0  0  0  0  0  0  0  0  0
   19.2055    7.2046   31.1898 C   0  0  2  0  0  0  0  0  0  0  0  0
   18.5345    8.2520   30.6566 N   0  0  0  0  0  0  0  0  0  0  0  0
   19.7950    6.2748   30.4000 N   0  0  0  0  0  0  0  0  0  0  0  0
   20.4494    5.2387   30.9637 C   0  0  2  0  0  0  0  0  0  0  0  0
   20.5164    5.1294   32.3358 C   0  0  1  0  0  0  0  0  0  0  0  0
   19.9003    6.0862   33.1199 C   0  0  0  0  0  0  0  0  0  0  0  0
   19.9439    6.0018   34.3662 O   0  0  0  0  0  0  0  0  0  0  0  0
   21.2255    4.0226   32.6332 N   0  0  0  0  0  0  0  0  0  0  0  0
   21.5850    3.4529   31.4693 C   0  0  0  0  0  0  0  0  0  0  0  0
   21.1181    4.2044   30.4663 N   0  0  1  0  0  0  0  0  0  0  0  0
   24.3834    1.4300   32.3803 O   0  0  0  0  0  0  0  0  0  0  0  0
   22.6212   -0.3324   31.8970 O   0  5  0  0  0  0  0  0  0  0  0  0
   24.8076   -0.3337   30.6296 O   0  0  0  0  0  0  0  0  0  0  0  0
  1  3  1  6  0  0  0
  1 21  1  0  0  0  0
  1 22  1  0  0  0  0
  1 23  2  0  0  0  0
  2  3  1  0  0  0  0
  4  2  1  1  0  0  0
  4  5  1  0  0  0  0
  4  6  1  0  0  0  0
  6  7  1  6  0  0  0
  6  8  1  0  0  0  0
  8  9  1  0  0  0  0
  9  5  1  1  0  0  0
  9 20  1  0  0  0  0
 10 11  1  0  0  0  0
 10 16  1  0  0  0  0
 11 12  1  6  0  0  0
 11 13  1  0  0  0  0
 14 13  1  1  0  0  0
 14 15  1  0  0  0  0
 14 20  1  0  0  0  0
 15 16  1  6  0  0  0
 15 18  1  0  0  0  0
 16 17  2  0  0  0  0
 18 19  1  0  0  0  0
 20 19  1  1  0  0  0
M  CHG  1  22  -1
M  END
>  <CHROM.1>
173.46789916,-58.72171487,175.94834007,-131.16104812,21.74643141,3.40474954
30.65833970,-0.17321174,-0.98464499,1.65910590

>  <Name>
ligand

>  <RI>
416

>  <Rbt.Current_Directory>
/home/itssahil/PROJECTS/Mol_Feturizer/Test_systems_manuscript/rnas/3slm

>  <Rbt.Executable>
rbdock ($Id: //depot/dev/client3/rdock/2013.1/src/exe/rbdock.cxx#4 $)

>  <Rbt.Library>
libRbt.so (2013.1, Build901 2013/11/27)

>  <Rbt.Parameter_File>
/export/apps/rDock/src/rDock_2013.1_src/data/scripts/dock_solv.prm

>  <Rbt.Receptor>
prm/pocket_docking_6.prm

>  <SCORE>
-19.3309

>  <SCORE.INTER>
-13.5296

>  <SCORE.INTER.CONST>
1

>  <SCORE.INTER.POLAR>
0

>  <SCORE.INTER.ROT>
4

>  <SCORE.INTER.SOLV>
18.1732

>  <SCORE.INTER.VDW>
-21.3441

>  <SCORE.INTER.norm>
-0.588244

>  <SCORE.INTRA>
-5.80127

>  <SCORE.INTRA.DIHEDRAL>
-7.2449

>  <SCORE.INTRA.DIHEDRAL.0>
8.62657

>  <SCORE.INTRA.POLAR>
0

>  <SCORE.INTRA.POLAR.0>
0

>  <SCORE.INTRA.REPUL>
0

>  <SCORE.INTRA.REPUL.0>
0

>  <SCORE.INTRA.SOLV>
0.489629

>  <SCORE.INTRA.SOLV.lig_0>
-66.3641

>  <SCORE.INTRA.VDW>
-2.42364

>  <SCORE.INTRA.VDW.0>
0.452231

>  <SCORE.INTRA.norm>
-0.252229

>  <SCORE.RESTR>
0

>  <SCORE.RESTR.CAVITY>
0

>  <SCORE.RESTR.norm>
0

>  <SCORE.SYSTEM>
0

>  <SCORE.SYSTEM.CONST>
0

>  <SCORE.SYSTEM.DIHEDRAL>
0

>  <SCORE.SYSTEM.SOLV>
0

>  <SCORE.SYSTEM.norm>
0

>  <SCORE.heavy>
23

>  <SCORE.norm>
-0.840473

>  <RMSD>
6.205

$$$$
ligand
 OpenBabel02271912143D
libRbt.so/2013.1/901 2013/11/27
 23 25  0  0  0  0  0  0  0  0999 V2000
   19.3651    1.8744   27.2726 P   0  0  1  0  0  0  0  0  0  0  0  0
   20.7338    2.6400   29.3692 C   0  0  0  0  0  0  0  0  0  0  0  0
   19.7197    1.7973   28.8400 O   0  0  0  0  0  0  0  0  0  0  0  0
   20.6394    2.5666   30.8766 C   0  0  1  0  0  0  0  0  0  0  0  0
   20.8414    1.2402   31.3633 O   0  0  0  0  0  0  0  0  0  0  0  0
   21.7104    3.4548   31.4870 C   0  0  1  0  0  0  0  0  0  0  0  0
   21.0976    4.2533   32.5142 O   0  0  0  0  0  0  0  0  0  0  0  0
   22.7533    2.4973   32.0495 C   0  0  0  0  0  0  0  0  0  0  0  0
   22.0090    1.1724   32.1923 C   0  0  2  0  0  0  0  0  0  0  0  0
   24.5114   -0.6991   28.0975 N   0  0  0  0  0  0  0  0  0  0  0  0
   23.8060    0.4403   28.1860 C   0  0  2  0  0  0  0  0  0  0  0  0
   23.7302    1.2235   27.0849 N   0  0  0  0  0  0  0  0  0  0  0  0
   23.1985    0.7977   29.3432 N   0  0  0  0  0  0  0  0  0  0  0  0
   23.3003   -0.0020   30.4248 C   0  0  2  0  0  0  0  0  0  0  0  0
   24.0189   -1.1755   30.3497 C   0  0  1  0  0  0  0  0  0  0  0  0
   24.6360   -1.5142   29.1605 C   0  0  0  0  0  0  0  0  0  0  0  0
   25.2978   -2.5710   29.0736 O   0  0  0  0  0  0  0  0  0  0  0  0
   23.9558   -1.7822   31.5516 N   0  0  0  0  0  0  0  0  0  0  0  0
   23.2192   -0.9975   32.3578 C   0  0  0  0  0  0  0  0  0  0  0  0
   22.8196    0.0717   31.6607 N   0  0  1  0  0  0  0  0  0  0  0  0
   18.5197    3.1086   27.0717 O   0  0  0  0  0  0  0  0  0  0  0  0
   20.7155    1.9266   26.5959 O   0  5  0  0  0  0  0  0  0  0  0  0
   18.6171    0.5897   27.0391 O   0  0  0  0  0  0  0  0  0  0  0  0
  1  3  1  1  0  0  0
  1 21  1  0  0  0  0
  1 22  1  0  0  0  0
  1 23  2  0  0  0  0
  2  3  1  0  0  0  0
  4  2  1  6  0  0  0
  4  5  1  0  0  0  0
  4  6  1  0  0  0  0
  6  7  1  1  0  0  0
  6  8  1  0  0  0  0
  8  9  1  0  0  0  0
  9  5  1  6  0  0  0
  9 20  1  0  0  0  0
 10 11  1  0  0  0  0
 10 16  1  0  0  0  0
 11 12  1  1  0  0  0
 11 13  1  0  0  0  0
 14 13  1  6  0  0  0
 14 15  1  0  0  0  0
 14 20  1  0  0  0  0
 15 16  1  1  0  0  0
 15 18  1  0  0  0  0
 16 17  2  0  0  0  0
 18 19  1  0  0  0  0
 20 19  1  1  0  0  0
M  CHG  1  22  -1
M  END
>  <CHROM.1>
-77.56128870,60.51805408,168.06967245,59.26383347,21.89918461,1.01367794
29.55543101,-2.97576583,-0.70336663,1.21118080

>  <Name>
ligand

>  <RI>
0

>  <Rbt.Current_Directory>
/home/itssahil/PROJECTS/Mol_Feturizer/Test_systems_manuscript/rnas/3slm

>  <Rbt.Executable>
rbdock ($Id: //depot/dev/client3/rdock/2013.1/src/exe/rbdock.cxx#4 $)

>  <Rbt.Library>
libRbt.so (2013.1, Build901 2013/11/27)

>  <Rbt.Parameter_File>
/export/apps/rDock/src/rDock_2013.1_src/data/scripts/dock_solv.prm

>  <Rbt.Receptor>
prm/pocket_docking_7.prm

>  <SCORE>
-20.1363

>  <SCORE.INTER>
-15.5574

>  <SCORE.INTER.CONST>
1

>  <SCORE.INTER.POLAR>
0

>  <SCORE.INTER.ROT>
4

>  <SCORE.INTER.SOLV>
25.5811

>  <SCORE.INTER.VDW>
-25.1653

>  <SCORE.INTER.norm>
-0.676407

>  <SCORE.INTRA>
-4.57893

>  <SCORE.INTRA.DIHEDRAL>
-6.30327

>  <SCORE.INTRA.DIHEDRAL.0>
8.62657

>  <SCORE.INTRA.POLAR>
0

>  <SCORE.INTRA.POLAR.0>
0

>  <SCORE.INTRA.REPUL>
0

>  <SCORE.INTRA.REPUL.0>
0

>  <SCORE.INTRA.SOLV>
2.68321

>  <SCORE.INTRA.SOLV.lig_0>
-66.3641

>  <SCORE.INTRA.VDW>
-2.7689

>  <SCORE.INTRA.VDW.0>
0.452231

>  <SCORE.INTRA.norm>
-0.199084

>  <SCORE.RESTR>
0

>  <SCORE.RESTR.CAVITY>
0

>  <SCORE.RESTR.norm>
0

>  <SCORE.SYSTEM>
0

>  <SCORE.SYSTEM.CONST>
0

>  <SCORE.SYSTEM.DIHEDRAL>
0

>  <SCORE.SYSTEM.SOLV>
0

>  <SCORE.SYSTEM.norm>
0

>  <SCORE.heavy>
23

>  <SCORE.norm>
-0.87549

>  <RMSD>
6.226

$$$$
ligand
 OpenBabel02271912143D
libRbt.so/2013.1/901 2013/11/27
 23 25  0  0  0  0  0  0  0  0999 V2000
   25.0773   -0.9052   28.8840 P   0  0  1  0  0  0  0  0  0  0  0  0
   23.0256    0.7120   29.0585 C   0  0  0  0  0  0  0  0  0  0  0  0
   24.1432    0.2680   28.3017 O   0  0  0  0  0  0  0  0  0  0  0  0
   22.2513    1.6802   28.1928 C   0  0  1  0  0  0  0  0  0  0  0  0
   21.1654    2.2806   28.8980 O   0  0  0  0  0  0  0  0  0  0  0  0
   23.1802    2.7917   27.7343 C   0  0  1  0  0  0  0  0  0  0  0  0
   22.9932    2.9765   26.3204 O   0  0  0  0  0  0  0  0  0  0  0  0
   22.7626    4.0193   28.5341 C   0  0  0  0  0  0  0  0  0  0  0  0
   21.3454    3.6991   29.0016 C   0  0  2  0  0  0  0  0  0  0  0  0
   19.3222    6.9519   32.4452 N   0  0  0  0  0  0  0  0  0  0  0  0
   19.2493    7.0150   31.1057 C   0  0  2  0  0  0  0  0  0  0  0  0
   18.5580    8.0417   30.5583 N   0  0  0  0  0  0  0  0  0  0  0  0
   19.8408    6.0755   30.3288 N   0  0  0  0  0  0  0  0  0  0  0  0
   20.5157    5.0605   30.9066 C   0  0  2  0  0  0  0  0  0  0  0  0
   20.6015    4.9825   32.2799 C   0  0  1  0  0  0  0  0  0  0  0  0
   19.9831    5.9485   33.0507 C   0  0  0  0  0  0  0  0  0  0  0  0
   20.0436    5.8923   34.2979 O   0  0  0  0  0  0  0  0  0  0  0  0
   21.3287    3.8916   32.5922 N   0  0  0  0  0  0  0  0  0  0  0  0
   21.6807    3.3009   31.4366 C   0  0  0  0  0  0  0  0  0  0  0  0
   21.1913    4.0240   30.4235 N   0  0  1  0  0  0  0  0  0  0  0  0
   24.3621   -2.2087   28.6240 O   0  0  0  0  0  0  0  0  0  0  0  0
   26.3765   -0.7453   28.1285 O   0  5  0  0  0  0  0  0  0  0  0  0
   25.1761   -0.5554   30.3442 O   0  0  0  0  0  0  0  0  0  0  0  0
  1  3  1  6  0  0  0
  1 21  1  0  0  0  0
  1 22  1  0  0  0  0
  1 23  2  0  0  0  0
  2  3  1  0  0  0  0
  4  2  1  1  0  0  0
  4  5  1  0  0  0  0
  4  6  1  0  0  0  0
  6  7  1  6  0  0  0
  6  8  1  0  0  0  0
  8  9  1  0  0  0  0
  9  5  1  1  0  0  0
  9 20  1  0  0  0  0
 10 11  1  0  0  0  0
 10 16  1  0  0  0  0
 11 12  1  1  0  0  0
 11 13  1  0  0  0  0
 14 13  1  6  0  0  0
 14 15  1  0  0  0  0
 14 20  1  0  0  0  0
 15 16  1  1  0  0  0
 15 18  1  0  0  0  0
 16 17  2  0  0  0  0
 18 19  1  0  0  0  0
 20 19  1  1  0  0  0
M  CHG  1  22  -1
M  END
>  <CHROM.1>
79.27979100,-174.91741273,-173.02040866,-137.16686315,22.18302348,2.91967888
29.93721700,-0.27727487,-0.95899720,1.69855042

>  <Name>
ligand

>  <RI>
416

>  <Rbt.Current_Directory>
/home/itssahil/PROJECTS/Mol_Feturizer/Test_systems_manuscript/rnas/3slm

>  <Rbt.Executable>
rbdock ($Id: //depot/dev/client3/rdock/2013.1/src/exe/rbdock.cxx#4 $)

>  <Rbt.Library>
libRbt.so (2013.1, Build901 2013/11/27)

>  <Rbt.Parameter_File>
/export/apps/rDock/src/rDock_2013.1_src/data/scripts/dock_solv.prm

>  <Rbt.Receptor>
prm/pocket_docking_6.prm

>  <SCORE>
-19.175

>  <SCORE.INTER>
-14.5086

>  <SCORE.INTER.CONST>
1

>  <SCORE.INTER.POLAR>
0

>  <SCORE.INTER.ROT>
4

>  <SCORE.INTER.SOLV>
16.7467

>  <SCORE.INTER.VDW>
-21.5213

>  <SCORE.INTER.norm>
-0.630808

>  <SCORE.INTRA>
-4.66638

>  <SCORE.INTRA.DIHEDRAL>
-6.45664

>  <SCORE.INTRA.DIHEDRAL.0>
8.62657

>  <SCORE.INTRA.POLAR>
0

>  <SCORE.INTRA.POLAR.0>
0

>  <SCORE.INTRA.REPUL>
0

>  <SCORE.INTRA.REPUL.0>
0

>  <SCORE.INTRA.SOLV>
-0.357327

>  <SCORE.INTRA.SOLV.lig_0>
-66.3641

>  <SCORE.INTRA.VDW>
-1.2594

>  <SCORE.INTRA.VDW.0>
0.452231

>  <SCORE.INTRA.norm>
-0.202886

>  <SCORE.RESTR>
0

>  <SCORE.RESTR.CAVITY>
0

>  <SCORE.RESTR.norm>
0

>  <SCORE.SYSTEM>
0

>  <SCORE.SYSTEM.CONST>
0

>  <SCORE.SYSTEM.DIHEDRAL>
0

>  <SCORE.SYSTEM.SOLV>
0

>  <SCORE.SYSTEM.norm>
0

>  <SCORE.heavy>
23

>  <SCORE.norm>
-0.833694

>  <RMSD>
6.268

$$$$
ligand
 OpenBabel02271912143D
libRbt.so/2013.1/901 2013/11/27
 23 25  0  0  0  0  0  0  0  0999 V2000
   20.2194    5.0981   31.1840 P   0  0  1  0  0  0  0  0  0  0  0  0
   20.3236    4.9826   28.5703 C   0  0  0  0  0  0  0  0  0  0  0  0
   20.3637    4.2813   29.8054 O   0  0  0  0  0  0  0  0  0  0  0  0
   20.6109    3.9813   27.4742 C   0  0  1  0  0  0  0  0  0  0  0  0
   21.7076    3.1283   27.8002 O   0  0  0  0  0  0  0  0  0  0  0  0
   19.3865    3.1064   27.2649 C   0  0  1  0  0  0  0  0  0  0  0  0
   19.1257    3.0320   25.8526 O   0  0  0  0  0  0  0  0  0  0  0  0
   19.7569    1.7505   27.8526 C   0  0  0  0  0  0  0  0  0  0  0  0
   21.2826    1.7622   27.8926 C   0  0  2  0  0  0  0  0  0  0  0  0
   24.8014   -1.0857   30.3502 N   0  0  0  0  0  0  0  0  0  0  0  0
   24.6745   -0.8876   29.0279 C   0  0  2  0  0  0  0  0  0  0  0  0
   25.5710   -1.4872   28.2104 N   0  0  0  0  0  0  0  0  0  0  0  0
   23.6867   -0.1050   28.5304 N   0  0  0  0  0  0  0  0  0  0  0  0
   22.8141    0.4846   29.3735 C   0  0  2  0  0  0  0  0  0  0  0  0
   22.9295    0.2897   30.7328 C   0  0  1  0  0  0  0  0  0  0  0  0
   23.9503   -0.5066   31.2163 C   0  0  0  0  0  0  0  0  0  0  0  0
   24.0761   -0.6907   32.4462 O   0  0  0  0  0  0  0  0  0  0  0  0
   21.9404    0.9756   31.3391 N   0  0  0  0  0  0  0  0  0  0  0  0
   21.2303    1.5893   30.3761 C   0  0  0  0  0  0  0  0  0  0  0  0
   21.7630    1.2756   29.1901 N   0  0  1  0  0  0  0  0  0  0  0  0
   21.1620    6.2740   31.1009 O   0  0  0  0  0  0  0  0  0  0  0  0
   18.7563    5.4738   31.2331 O   0  5  0  0  0  0  0  0  0  0  0  0
   20.6204    4.0788   32.2158 O   0  0  0  0  0  0  0  0  0  0  0  0
  1  3  1  6  0  0  0
  1 21  1  0  0  0  0
  1 22  1  0  0  0  0
  1 23  2  0  0  0  0
  2  3  1  0  0  0  0
  4  2  1  1  0  0  0
  4  5  1  0  0  0  0
  4  6  1  0  0  0  0
  6  7  1  6  0  0  0
  6  8  1  0  0  0  0
  8  9  1  0  0  0  0
  9  5  1  1  0  0  0
  9 20  1  0  0  0  0
 10 11  1  0  0  0  0
 10 16  1  0  0  0  0
 11 12  1  1  0  0  0
 11 13  1  0  0  0  0
 14 13  1  6  0  0  0
 14 15  1  0  0  0  0
 14 20  1  0  0  0  0
 15 16  1  1  0  0  0
 15 18  1  0  0  0  0
 16 17  2  0  0  0  0
 18 19  1  0  0  0  0
 20 19  1  1  0  0  0
M  CHG  1  22  -1
M  END
>  <CHROM.1>
-47.88115194,-44.82385125,174.83820895,-103.42106940,21.62778237,2.30021562
29.62733909,-2.86882119,0.87925756,-1.95017286

>  <Name>
ligand

>  <RI>
416

>  <Rbt.Current_Directory>
/home/itssahil/PROJECTS/Mol_Feturizer/Test_systems_manuscript/rnas/3slm

>  <Rbt.Executable>
rbdock ($Id: //depot/dev/client3/rdock/2013.1/src/exe/rbdock.cxx#4 $)

>  <Rbt.Library>
libRbt.so (2013.1, Build901 2013/11/27)

>  <Rbt.Parameter_File>
/export/apps/rDock/src/rDock_2013.1_src/data/scripts/dock_solv.prm

>  <Rbt.Receptor>
prm/pocket_docking_5.prm

>  <SCORE>
-18.1113

>  <SCORE.INTER>
-12.5805

>  <SCORE.INTER.CONST>
1

>  <SCORE.INTER.POLAR>
0

>  <SCORE.INTER.ROT>
4

>  <SCORE.INTER.SOLV>
18.7644

>  <SCORE.INTER.VDW>
-20.9084

>  <SCORE.INTER.norm>
-0.546976

>  <SCORE.INTRA>
-5.53082

>  <SCORE.INTRA.DIHEDRAL>
-6.29079

>  <SCORE.INTRA.DIHEDRAL.0>
8.62657

>  <SCORE.INTRA.POLAR>
0

>  <SCORE.INTRA.POLAR.0>
0

>  <SCORE.INTRA.REPUL>
0

>  <SCORE.INTRA.REPUL.0>
0

>  <SCORE.INTRA.SOLV>
0.134099

>  <SCORE.INTRA.SOLV.lig_0>
-66.3641

>  <SCORE.INTRA.VDW>
-2.45247

>  <SCORE.INTRA.VDW.0>
0.452231

>  <SCORE.INTRA.norm>
-0.24047

>  <SCORE.RESTR>
0

>  <SCORE.RESTR.CAVITY>
0

>  <SCORE.RESTR.norm>
0

>  <SCORE.SYSTEM>
0

>  <SCORE.SYSTEM.CONST>
0

>  <SCORE.SYSTEM.DIHEDRAL>
0

>  <SCORE.SYSTEM.SOLV>
0

>  <SCORE.SYSTEM.norm>
0

>  <SCORE.heavy>
23

>  <SCORE.norm>
-0.787447

>  <RMSD>
6.270

$$$$
ligand
 OpenBabel02271912143D
libRbt.so/2013.1/901 2013/11/27
 23 25  0  0  0  0  0  0  0  0999 V2000
   25.5975   -0.0840   28.0860 P   0  0  1  0  0  0  0  0  0  0  0  0
   24.3534    1.7246   29.5129 C   0  0  0  0  0  0  0  0  0  0  0  0
   25.1933    0.5788   29.4951 O   0  0  0  0  0  0  0  0  0  0  0  0
   23.9565    1.9700   30.9512 C   0  0  1  0  0  0  0  0  0  0  0  0
   23.3419    3.2458   31.1285 O   0  0  0  0  0  0  0  0  0  0  0  0
   22.9582    0.9083   31.3810 C   0  0  1  0  0  0  0  0  0  0  0  0
   23.3728    0.3952   32.6589 O   0  0  0  0  0  0  0  0  0  0  0  0
   21.6168    1.6266   31.4583 C   0  0  0  0  0  0  0  0  0  0  0  0
   21.9870    3.1028   31.5747 C   0  0  2  0  0  0  0  0  0  0  0  0
   19.0518    7.3009   31.0342 N   0  0  0  0  0  0  0  0  0  0  0  0
   19.6611    6.8551   32.1449 C   0  0  2  0  0  0  0  0  0  0  0  0
   19.5158    7.5792   33.2790 N   0  0  0  0  0  0  0  0  0  0  0  0
   20.4048    5.7226   32.1272 N   0  0  0  0  0  0  0  0  0  0  0  0
   20.5358    5.0285   30.9780 C   0  0  2  0  0  0  0  0  0  0  0  0
   19.9152    5.4715   29.8300 C   0  0  1  0  0  0  0  0  0  0  0  0
   19.1686    6.6336   29.8718 C   0  0  0  0  0  0  0  0  0  0  0  0
   18.6032    7.0558   28.8401 O   0  0  0  0  0  0  0  0  0  0  0  0
   20.1976    4.6020   28.8397 N   0  0  0  0  0  0  0  0  0  0  0  0
   20.9832    3.6432   29.3610 C   0  0  0  0  0  0  0  0  0  0  0  0
   21.1719    3.9071   30.6585 N   0  0  1  0  0  0  0  0  0  0  0  0
   26.0696    1.0359   27.1909 O   0  0  0  0  0  0  0  0  0  0  0  0
   26.6691   -1.0861   28.4489 O   0  5  0  0  0  0  0  0  0  0  0  0
   24.3068   -0.7112   27.6330 O   0  0  0  0  0  0  0  0  0  0  0  0
  1  3  1  1  0  0  0
  1 21  1  0  0  0  0
  1 22  1  0  0  0  0
  1 23  2  0  0  0  0
  2  3  1  0  0  0  0
  4  2  1  6  0  0  0
  4  5  1  0  0  0  0
  4  6  1  0  0  0  0
  6  7  1  1  0  0  0
  6  8  1  0  0  0  0
  8  9  1  0  0  0  0
  9  5  1  6  0  0  0
  9 20  1  0  0  0  0
 10 11  1  0  0  0  0
 10 16  1  0  0  0  0
 11 12  1  6  0  0  0
 11 13  1  0  0  0  0
 14 13  1  1  0  0  0
 14 15  1  0  0  0  0
 14 20  1  0  0  0  0
 15 16  1  6  0  0  0
 15 18  1  0  0  0  0
 16 17  2  0  0  0  0
 18 19  1  0  0  0  0
 20 19  1  6  0  0  0
M  CHG  1  22  -1
M  END
>  <CHROM.1>
48.67849175,167.95468918,170.34395199,-111.19816202,22.41605399,3.02831730
30.12041224,0.15001855,0.85444886,-1.42733004

>  <Name>
ligand

>  <RI>
0

>  <Rbt.Current_Directory>
/home/itssahil/PROJECTS/Mol_Feturizer/Test_systems_manuscript/rnas/3slm

>  <Rbt.Executable>
rbdock ($Id: //depot/dev/client3/rdock/2013.1/src/exe/rbdock.cxx#4 $)

>  <Rbt.Library>
libRbt.so (2013.1, Build901 2013/11/27)

>  <Rbt.Parameter_File>
/export/apps/rDock/src/rDock_2013.1_src/data/scripts/dock_solv.prm

>  <Rbt.Receptor>
prm/pocket_docking_7.prm

>  <SCORE>
-16.2152

>  <SCORE.INTER>
-11.2243

>  <SCORE.INTER.CONST>
1

>  <SCORE.INTER.POLAR>
0

>  <SCORE.INTER.ROT>
4

>  <SCORE.INTER.SOLV>
19.3579

>  <SCORE.INTER.VDW>
-20.2022

>  <SCORE.INTER.norm>
-0.488013

>  <SCORE.INTRA>
-4.99087

>  <SCORE.INTRA.DIHEDRAL>
-6.30615

>  <SCORE.INTRA.DIHEDRAL.0>
8.62657

>  <SCORE.INTRA.POLAR>
0

>  <SCORE.INTRA.POLAR.0>
0

>  <SCORE.INTRA.REPUL>
0

>  <SCORE.INTRA.REPUL.0>
0

>  <SCORE.INTRA.SOLV>
-0.373629

>  <SCORE.INTRA.SOLV.lig_0>
-66.3641

>  <SCORE.INTRA.VDW>
-1.65098

>  <SCORE.INTRA.VDW.0>
0.452231

>  <SCORE.INTRA.norm>
-0.216994

>  <SCORE.RESTR>
0

>  <SCORE.RESTR.CAVITY>
0

>  <SCORE.RESTR.norm>
0

>  <SCORE.SYSTEM>
0

>  <SCORE.SYSTEM.CONST>
0

>  <SCORE.SYSTEM.DIHEDRAL>
0

>  <SCORE.SYSTEM.SOLV>
0

>  <SCORE.SYSTEM.norm>
0

>  <SCORE.heavy>
23

>  <SCORE.norm>
-0.705008

>  <RMSD>
6.286

$$$$
ligand
 OpenBabel02271912143D
libRbt.so/2013.1/901 2013/11/27
 23 25  0  0  0  0  0  0  0  0999 V2000
   20.3080    6.3906   32.2299 P   0  0  1  0  0  0  0  0  0  0  0  0
   21.1187    4.3079   30.8660 C   0  0  0  0  0  0  0  0  0  0  0  0
   20.0243    5.0712   31.3542 O   0  0  0  0  0  0  0  0  0  0  0  0
   21.6807    5.0409   29.6687 C   0  0  1  0  0  0  0  0  0  0  0  0
   22.8999    4.4599   29.2072 O   0  0  0  0  0  0  0  0  0  0  0  0
   20.6759    4.9808   28.5306 C   0  0  1  0  0  0  0  0  0  0  0  0
   20.5392    6.3038   27.9838 O   0  0  0  0  0  0  0  0  0  0  0  0
   21.2675    4.0017   27.5242 C   0  0  0  0  0  0  0  0  0  0  0  0
   22.7527    3.9554   27.8733 C   0  0  2  0  0  0  0  0  0  0  0  0
   23.6145   -0.1852   30.8135 N   0  0  0  0  0  0  0  0  0  0  0  0
   23.1515    1.0170   31.1932 C   0  0  2  0  0  0  0  0  0  0  0  0
   22.8546    1.1951   32.5015 N   0  0  0  0  0  0  0  0  0  0  0  0
   22.9784    2.0150   30.2933 N   0  0  0  0  0  0  0  0  0  0  0  0
   23.2766    1.8019   28.9951 C   0  0  2  0  0  0  0  0  0  0  0  0
   23.7546    0.5745   28.5897 C   0  0  1  0  0  0  0  0  0  0  0  0
   23.9150   -0.4299   29.5252 C   0  0  0  0  0  0  0  0  0  0  0  0
   24.3410   -1.5521   29.1767 O   0  0  0  0  0  0  0  0  0  0  0  0
   23.9774    0.6304   27.2617 N   0  0  0  0  0  0  0  0  0  0  0  0
   23.6377    1.8648   26.8504 C   0  0  0  0  0  0  0  0  0  0  0  0
   23.2251    2.5675   27.9110 N   0  0  1  0  0  0  0  0  0  0  0  0
   21.4981    7.0830   31.6117 O   0  0  0  0  0  0  0  0  0  0  0  0
   19.0168    7.1712   32.1412 O   0  5  0  0  0  0  0  0  0  0  0  0
   20.5849    5.8268   33.5973 O   0  0  0  0  0  0  0  0  0  0  0  0
  1  3  1  6  0  0  0
  1 21  1  0  0  0  0
  1 22  1  0  0  0  0
  1 23  2  0  0  0  0
  2  3  1  0  0  0  0
  4  2  1  1  0  0  0
  4  5  1  0  0  0  0
  4  6  1  0  0  0  0
  6  7  1  6  0  0  0
  6  8  1  0  0  0  0
  8  9  1  0  0  0  0
  9  5  1  1  0  0  0
  9 20  1  0  0  0  0
 10 11  1  0  0  0  0
 10 16  1  0  0  0  0
 11 12  1  6  0  0  0
 11 13  1  0  0  0  0
 14 13  1  1  0  0  0
 14 15  1  0  0  0  0
 14 20  1  0  0  0  0
 15 16  1  6  0  0  0
 15 18  1  0  0  0  0
 16 17  2  0  0  0  0
 18 19  1  0  0  0  0
 20 19  1  6  0  0  0
M  CHG  1  22  -1
M  END
>  <CHROM.1>
39.18125602,171.94043641,-77.59091448,23.18632227,22.05256964,3.50245061
30.00361182,-3.03398301,1.07965001,-1.27538303

>  <Name>
ligand

>  <RI>
0

>  <Rbt.Current_Directory>
/home/itssahil/PROJECTS/Mol_Feturizer/Test_systems_manuscript/rnas/3slm

>  <Rbt.Executable>
rbdock ($Id: //depot/dev/client3/rdock/2013.1/src/exe/rbdock.cxx#4 $)

>  <Rbt.Library>
libRbt.so (2013.1, Build901 2013/11/27)

>  <Rbt.Parameter_File>
/export/apps/rDock/src/rDock_2013.1_src/data/scripts/dock_solv.prm

>  <Rbt.Receptor>
prm/pocket_docking_7.prm

>  <SCORE>
-17.8828

>  <SCORE.INTER>
-13.9936

>  <SCORE.INTER.CONST>
1

>  <SCORE.INTER.POLAR>
0

>  <SCORE.INTER.ROT>
4

>  <SCORE.INTER.SOLV>
22.1907

>  <SCORE.INTER.VDW>
-22.9926

>  <SCORE.INTER.norm>
-0.608415

>  <SCORE.INTRA>
-3.88924

>  <SCORE.INTRA.DIHEDRAL>
-5.21132

>  <SCORE.INTRA.DIHEDRAL.0>
8.62657

>  <SCORE.INTRA.POLAR>
0

>  <SCORE.INTRA.POLAR.0>
0

>  <SCORE.INTRA.REPUL>
0

>  <SCORE.INTRA.REPUL.0>
0

>  <SCORE.INTRA.SOLV>
1.32445

>  <SCORE.INTRA.SOLV.lig_0>
-66.3641

>  <SCORE.INTRA.VDW>
-1.9458

>  <SCORE.INTRA.VDW.0>
0.452231

>  <SCORE.INTRA.norm>
-0.169097

>  <SCORE.RESTR>
0

>  <SCORE.RESTR.CAVITY>
0

>  <SCORE.RESTR.norm>
0

>  <SCORE.SYSTEM>
0

>  <SCORE.SYSTEM.CONST>
0

>  <SCORE.SYSTEM.DIHEDRAL>
0

>  <SCORE.SYSTEM.SOLV>
0

>  <SCORE.SYSTEM.norm>
0

>  <SCORE.heavy>
23

>  <SCORE.norm>
-0.777513

>  <RMSD>
6.387

$$$$
ligand
 OpenBabel02271912143D
libRbt.so/2013.1/901 2013/11/27
 23 25  0  0  0  0  0  0  0  0999 V2000
   19.4866    5.6135   31.4803 P   0  0  1  0  0  0  0  0  0  0  0  0
   20.7995    4.3749   29.5837 C   0  0  0  0  0  0  0  0  0  0  0  0
   19.7095    5.2147   29.9377 O   0  0  0  0  0  0  0  0  0  0  0  0
   20.6617    4.0540   28.1124 C   0  0  1  0  0  0  0  0  0  0  0  0
   21.8824    3.5725   27.5512 O   0  0  0  0  0  0  0  0  0  0  0  0
   19.6089    2.9730   27.9345 C   0  0  1  0  0  0  0  0  0  0  0  0
   18.7237    3.3800   26.8767 O   0  0  0  0  0  0  0  0  0  0  0  0
   20.3855    1.7111   27.5798 C   0  0  0  0  0  0  0  0  0  0  0  0
   21.7328    2.2265   27.0810 C   0  0  2  0  0  0  0  0  0  0  0  0
   23.4781   -0.0972   31.3338 N   0  0  0  0  0  0  0  0  0  0  0  0
   22.3269    0.5753   31.1719 C   0  0  2  0  0  0  0  0  0  0  0  0
   21.4931    0.6651   32.2341 N   0  0  0  0  0  0  0  0  0  0  0  0
   22.0074    1.1368   29.9809 N   0  0  0  0  0  0  0  0  0  0  0  0
   22.8574    1.0221   28.9398 C   0  0  2  0  0  0  0  0  0  0  0  0
   24.0436    0.3369   29.0901 C   0  0  1  0  0  0  0  0  0  0  0  0
   24.3433   -0.2337   30.3126 C   0  0  0  0  0  0  0  0  0  0  0  0
   25.4110   -0.8647   30.4677 O   0  0  0  0  0  0  0  0  0  0  0  0
   24.7022    0.3782   27.9150 N   0  0  0  0  0  0  0  0  0  0  0  0
   23.9370    1.0686   27.0513 C   0  0  0  0  0  0  0  0  0  0  0  0
   22.8278    1.4619   27.6868 N   0  0  1  0  0  0  0  0  0  0  0  0
   18.7324    4.4764   32.1255 O   0  0  0  0  0  0  0  0  0  0  0  0
   20.8876    5.8132   32.0109 O   0  5  0  0  0  0  0  0  0  0  0  0
   18.6871    6.8845   31.3811 O   0  0  0  0  0  0  0  0  0  0  0  0
  1  3  1  6  0  0  0
  1 21  1  0  0  0  0
  1 22  1  0  0  0  0
  1 23  2  0  0  0  0
  2  3  1  0  0  0  0
  4  2  1  1  0  0  0
  4  5  1  0  0  0  0
  4  6  1  0  0  0  0
  6  7  1  6  0  0  0
  6  8  1  0  0  0  0
  8  9  1  0  0  0  0
  9  5  1  1  0  0  0
  9 20  1  0  0  0  0
 10 11  1  0  0  0  0
 10 16  1  0  0  0  0
 11 12  1  6  0  0  0
 11 13  1  0  0  0  0
 14 13  1  1  0  0  0
 14 15  1  0  0  0  0
 14 20  1  0  0  0  0
 15 16  1  6  0  0  0
 15 18  1  0  0  0  0
 16 17  2  0  0  0  0
 18 19  1  0  0  0  0
 20 19  1  6  0  0  0
M  CHG  1  22  -1
M  END
>  <CHROM.1>
-83.15981250,162.06234277,173.82405046,78.16677359,21.48410800,2.69935071
29.61508594,-2.84029844,0.83809845,-1.68546499

>  <Name>
ligand

>  <RI>
416

>  <Rbt.Current_Directory>
/home/itssahil/PROJECTS/Mol_Feturizer/Test_systems_manuscript/rnas/3slm

>  <Rbt.Executable>
rbdock ($Id: //depot/dev/client3/rdock/2013.1/src/exe/rbdock.cxx#4 $)

>  <Rbt.Library>
libRbt.so (2013.1, Build901 2013/11/27)

>  <Rbt.Parameter_File>
/export/apps/rDock/src/rDock_2013.1_src/data/scripts/dock_solv.prm

>  <Rbt.Receptor>
prm/pocket_docking_5.prm

>  <SCORE>
-16.0219

>  <SCORE.INTER>
-11.6207

>  <SCORE.INTER.CONST>
1

>  <SCORE.INTER.POLAR>
0

>  <SCORE.INTER.ROT>
4

>  <SCORE.INTER.SOLV>
20.1251

>  <SCORE.INTER.VDW>
-20.7221

>  <SCORE.INTER.norm>
-0.505247

>  <SCORE.INTRA>
-4.40121

>  <SCORE.INTRA.DIHEDRAL>
-5.36666

>  <SCORE.INTRA.DIHEDRAL.0>
8.62657

>  <SCORE.INTRA.POLAR>
0

>  <SCORE.INTRA.POLAR.0>
0

>  <SCORE.INTRA.REPUL>
0

>  <SCORE.INTRA.REPUL.0>
0

>  <SCORE.INTRA.SOLV>
-0.264149

>  <SCORE.INTRA.SOLV.lig_0>
-66.3641

>  <SCORE.INTRA.VDW>
-1.58581

>  <SCORE.INTRA.VDW.0>
0.452231

>  <SCORE.INTRA.norm>
-0.191357

>  <SCORE.RESTR>
0

>  <SCORE.RESTR.CAVITY>
0

>  <SCORE.RESTR.norm>
0

>  <SCORE.SYSTEM>
0

>  <SCORE.SYSTEM.CONST>
0

>  <SCORE.SYSTEM.DIHEDRAL>
0

>  <SCORE.SYSTEM.SOLV>
0

>  <SCORE.SYSTEM.norm>
0

>  <SCORE.heavy>
23

>  <SCORE.norm>
-0.696604

>  <RMSD>
6.389

$$$$
ligand
 OpenBabel02271912143D
libRbt.so/2013.1/901 2013/11/27
 23 25  0  0  0  0  0  0  0  0999 V2000
   19.4824    5.5770   31.4884 P   0  0  1  0  0  0  0  0  0  0  0  0
   20.7647    4.2996   29.5965 C   0  0  0  0  0  0  0  0  0  0  0  0
   19.6620    5.1202   29.9563 O   0  0  0  0  0  0  0  0  0  0  0  0
   20.6237    3.9745   28.1264 C   0  0  1  0  0  0  0  0  0  0  0  0
   21.8445    3.4963   27.5628 O   0  0  0  0  0  0  0  0  0  0  0  0
   19.5745    2.8891   27.9543 C   0  0  1  0  0  0  0  0  0  0  0  0
   18.6846    3.2903   26.8982 O   0  0  0  0  0  0  0  0  0  0  0  0
   20.3547    1.6293   27.6004 C   0  0  0  0  0  0  0  0  0  0  0  0
   21.6986    2.1486   27.0963 C   0  0  2  0  0  0  0  0  0  0  0  0
   23.4866   -0.1164   31.3630 N   0  0  0  0  0  0  0  0  0  0  0  0
   22.3357    0.5573   31.2045 C   0  0  2  0  0  0  0  0  0  0  0  0
   21.5147    0.6659   32.2749 N   0  0  0  0  0  0  0  0  0  0  0  0
   22.0039    1.1018   30.0090 N   0  0  0  0  0  0  0  0  0  0  0  0
   22.8412    0.9686   28.9598 C   0  0  2  0  0  0  0  0  0  0  0  0
   24.0270    0.2819   29.1065 C   0  0  1  0  0  0  0  0  0  0  0  0
   24.3393   -0.2712   30.3339 C   0  0  0  0  0  0  0  0  0  0  0  0
   25.4068   -0.9033   30.4860 O   0  0  0  0  0  0  0  0  0  0  0  0
   24.6719    0.3033   27.9233 N   0  0  0  0  0  0  0  0  0  0  0  0
   23.8986    0.9831   27.0583 C   0  0  0  0  0  0  0  0  0  0  0  0
   22.7983    1.3895   27.7008 N   0  0  1  0  0  0  0  0  0  0  0  0
   18.7194    4.4795   32.1894 O   0  0  0  0  0  0  0  0  0  0  0  0
   20.8989    5.7644   31.9809 O   0  5  0  0  0  0  0  0  0  0  0  0
   18.7076    6.8608   31.3622 O   0  0  0  0  0  0  0  0  0  0  0  0
  1  3  1  6  0  0  0
  1 21  1  0  0  0  0
  1 22  1  0  0  0  0
  1 23  2  0  0  0  0
  2  3  1  0  0  0  0
  4  2  1  1  0  0  0
  4  5  1  0  0  0  0
  4  6  1  0  0  0  0
  6  7  1  6  0  0  0
  6  8  1  0  0  0  0
  8  9  1  0  0  0  0
  9  5  1  1  0  0  0
  9 20  1  0  0  0  0
 10 11  1  0  0  0  0
 10 16  1  0  0  0  0
 11 12  1  6  0  0  0
 11 13  1  0  0  0  0
 14 13  1  1  0  0  0
 14 15  1  0  0  0  0
 14 20  1  0  0  0  0
 15 16  1  6  0  0  0
 15 18  1  0  0  0  0
 16 17  2  0  0  0  0
 18 19  1  0  0  0  0
 20 19  1  6  0  0  0
M  CHG  1  22  -1
M  END
>  <CHROM.1>
-86.29896097,162.89364835,176.83695266,77.19908886,21.46804982,2.64590860
29.63146639,-2.82139717,0.83306741,-1.71060302

>  <Name>
ligand

>  <RI>
416

>  <Rbt.Current_Directory>
/home/itssahil/PROJECTS/Mol_Feturizer/Test_systems_manuscript/rnas/3slm

>  <Rbt.Executable>
rbdock ($Id: //depot/dev/client3/rdock/2013.1/src/exe/rbdock.cxx#4 $)

>  <Rbt.Library>
libRbt.so (2013.1, Build901 2013/11/27)

>  <Rbt.Parameter_File>
/export/apps/rDock/src/rDock_2013.1_src/data/scripts/dock_solv.prm

>  <Rbt.Receptor>
prm/pocket_docking_5.prm

>  <SCORE>
-16.0577

>  <SCORE.INTER>
-11.6975

>  <SCORE.INTER.CONST>
1

>  <SCORE.INTER.POLAR>
0

>  <SCORE.INTER.ROT>
4

>  <SCORE.INTER.SOLV>
20.1858

>  <SCORE.INTER.VDW>
-20.7936

>  <SCORE.INTER.norm>
-0.508588

>  <SCORE.INTRA>
-4.36013

>  <SCORE.INTRA.DIHEDRAL>
-5.4091

>  <SCORE.INTRA.DIHEDRAL.0>
8.62657

>  <SCORE.INTRA.POLAR>
0

>  <SCORE.INTRA.POLAR.0>
0

>  <SCORE.INTRA.REPUL>
0

>  <SCORE.INTRA.REPUL.0>
0

>  <SCORE.INTRA.SOLV>
-0.200458

>  <SCORE.INTRA.SOLV.lig_0>
-66.3641

>  <SCORE.INTRA.VDW>
-1.55536

>  <SCORE.INTRA.VDW.0>
0.452231

>  <SCORE.INTRA.norm>
-0.189571

>  <SCORE.RESTR>
0

>  <SCORE.RESTR.CAVITY>
0

>  <SCORE.RESTR.norm>
0

>  <SCORE.SYSTEM>
0

>  <SCORE.SYSTEM.CONST>
0

>  <SCORE.SYSTEM.DIHEDRAL>
0

>  <SCORE.SYSTEM.SOLV>
0

>  <SCORE.SYSTEM.norm>
0

>  <SCORE.heavy>
23

>  <SCORE.norm>
-0.698159

>  <RMSD>
6.392

$$$$
ligand
 OpenBabel02271912143D
libRbt.so/2013.1/901 2013/11/27
 23 25  0  0  0  0  0  0  0  0999 V2000
   19.1792    2.2515   25.5229 P   0  0  1  0  0  0  0  0  0  0  0  0
   19.8098    2.7394   28.0168 C   0  0  0  0  0  0  0  0  0  0  0  0
   19.1472    3.1769   26.8385 O   0  0  0  0  0  0  0  0  0  0  0  0
   20.0449    3.9582   28.8804 C   0  0  1  0  0  0  0  0  0  0  0  0
   20.3521    3.6089   30.2297 O   0  0  0  0  0  0  0  0  0  0  0  0
   21.2197    4.7446   28.3237 C   0  0  1  0  0  0  0  0  0  0  0  0
   20.8417    6.1307   28.2624 O   0  0  0  0  0  0  0  0  0  0  0  0
   22.3631    4.5038   29.3014 C   0  0  0  0  0  0  0  0  0  0  0  0
   21.6720    4.0436   30.5821 C   0  0  2  0  0  0  0  0  0  0  0  0
   24.2509   -0.2881   29.5249 N   0  0  0  0  0  0  0  0  0  0  0  0
   23.7246    0.5934   28.6590 C   0  0  2  0  0  0  0  0  0  0  0  0
   23.8809    0.3504   27.3369 N   0  0  0  0  0  0  0  0  0  0  0  0
   23.0674    1.6947   29.0961 N   0  0  0  0  0  0  0  0  0  0  0  0
   22.9361    1.9113   30.4211 C   0  0  2  0  0  0  0  0  0  0  0  0
   23.4687    1.0152   31.3226 C   0  0  1  0  0  0  0  0  0  0  0  0
   24.1414   -0.0964   30.8520 C   0  0  0  0  0  0  0  0  0  0  0  0
   24.6373   -0.9177   31.6532 O   0  0  0  0  0  0  0  0  0  0  0  0
   23.1931    1.4583   32.5652 N   0  0  0  0  0  0  0  0  0  0  0  0
   22.5099    2.6095   32.4372 C   0  0  0  0  0  0  0  0  0  0  0  0
   22.3517    2.8672   31.1344 N   0  0  1  0  0  0  0  0  0  0  0  0
   20.6081    2.2239   25.0376 O   0  0  0  0  0  0  0  0  0  0  0  0
   18.6579    0.9169   26.0036 O   0  5  0  0  0  0  0  0  0  0  0  0
   18.2421    2.9701   24.5902 O   0  0  0  0  0  0  0  0  0  0  0  0
  1  3  1  1  0  0  0
  1 21  1  0  0  0  0
  1 22  1  0  0  0  0
  1 23  2  0  0  0  0
  2  3  1  0  0  0  0
  4  2  1  6  0  0  0
  4  5  1  0  0  0  0
  4  6  1  0  0  0  0
  6  7  1  1  0  0  0
  6  8  1  0  0  0  0
  8  9  1  0  0  0  0
  9  5  1  6  0  0  0
  9 20  1  0  0  0  0
 10 11  1  0  0  0  0
 10 16  1  0  0  0  0
 11 12  1  6  0  0  0
 11 13  1  0  0  0  0
 14 13  1  6  0  0  0
 14 15  1  0  0  0  0
 14 20  1  0  0  0  0
 15 16  1  1  0  0  0
 15 18  1  0  0  0  0
 16 17  2  0  0  0  0
 18 19  1  0  0  0  0
 20 19  1  1  0  0  0
M  CHG  1  22  -1
M  END
>  <CHROM.1>
-67.08176425,163.41323408,159.99830430,82.29956476,21.52614575,2.30675254
28.69559211,-2.82063391,-0.85332755,0.76975117

>  <Name>
ligand

>  <RI>
0

>  <Rbt.Current_Directory>
/home/itssahil/PROJECTS/Mol_Feturizer/Test_systems_manuscript/rnas/3slm

>  <Rbt.Executable>
rbdock ($Id: //depot/dev/client3/rdock/2013.1/src/exe/rbdock.cxx#4 $)

>  <Rbt.Library>
libRbt.so (2013.1, Build901 2013/11/27)

>  <Rbt.Parameter_File>
/export/apps/rDock/src/rDock_2013.1_src/data/scripts/dock_solv.prm

>  <Rbt.Receptor>
prm/pocket_docking_3.prm

>  <SCORE>
-15.0012

>  <SCORE.INTER>
-10.774

>  <SCORE.INTER.CONST>
1

>  <SCORE.INTER.POLAR>
0

>  <SCORE.INTER.ROT>
4

>  <SCORE.INTER.SOLV>
25.8586

>  <SCORE.INTER.VDW>
-22.0688

>  <SCORE.INTER.norm>
-0.468433

>  <SCORE.INTRA>
-4.23671

>  <SCORE.INTRA.DIHEDRAL>
-4.57082

>  <SCORE.INTRA.DIHEDRAL.0>
8.62657

>  <SCORE.INTRA.POLAR>
0

>  <SCORE.INTRA.POLAR.0>
0

>  <SCORE.INTRA.REPUL>
0

>  <SCORE.INTRA.REPUL.0>
0

>  <SCORE.INTRA.SOLV>
-0.467262

>  <SCORE.INTRA.SOLV.lig_0>
-66.3641

>  <SCORE.INTRA.VDW>
-1.71767

>  <SCORE.INTRA.VDW.0>
0.452231

>  <SCORE.INTRA.norm>
-0.184205

>  <SCORE.RESTR>
0.00950959

>  <SCORE.RESTR.CAVITY>
0.00950959

>  <SCORE.RESTR.norm>
0.000413461

>  <SCORE.SYSTEM>
0

>  <SCORE.SYSTEM.CONST>
0

>  <SCORE.SYSTEM.DIHEDRAL>
0

>  <SCORE.SYSTEM.SOLV>
0

>  <SCORE.SYSTEM.norm>
0

>  <SCORE.heavy>
23

>  <SCORE.norm>
-0.652224

>  <RMSD>
6.414

$$$$
ligand
 OpenBabel02271912143D
libRbt.so/2013.1/901 2013/11/27
 23 25  0  0  0  0  0  0  0  0999 V2000
   18.9391    2.4257   25.4165 P   0  0  1  0  0  0  0  0  0  0  0  0
   19.6148    3.0565   27.8661 C   0  0  0  0  0  0  0  0  0  0  0  0
   18.9774    3.4480   26.6581 O   0  0  0  0  0  0  0  0  0  0  0  0
   19.7601    4.2953   28.7209 C   0  0  1  0  0  0  0  0  0  0  0  0
   20.0519    3.9777   30.0814 O   0  0  0  0  0  0  0  0  0  0  0  0
   20.9033    5.1400   28.1842 C   0  0  1  0  0  0  0  0  0  0  0  0
   20.4508    6.5023   28.0973 O   0  0  0  0  0  0  0  0  0  0  0  0
   22.0332    4.9734   29.1926 C   0  0  0  0  0  0  0  0  0  0  0  0
   21.3364    4.4887   30.4612 C   0  0  2  0  0  0  0  0  0  0  0  0
   24.1277    0.2639   29.5174 N   0  0  0  0  0  0  0  0  0  0  0  0
   23.5684    1.1012   28.6288 C   0  0  2  0  0  0  0  0  0  0  0  0
   23.7484    0.8386   27.3134 N   0  0  0  0  0  0  0  0  0  0  0  0
   22.8555    2.1787   29.0369 N   0  0  0  0  0  0  0  0  0  0  0  0
   22.7017    2.4162   30.3559 C   0  0  2  0  0  0  0  0  0  0  0  0
   23.2677    1.5654   31.2805 C   0  0  1  0  0  0  0  0  0  0  0  0
   23.9969    0.4776   30.8392 C   0  0  0  0  0  0  0  0  0  0  0  0
   24.5237   -0.3024   31.6617 O   0  0  0  0  0  0  0  0  0  0  0  0
   22.9598    2.0206   32.5111 N   0  0  0  0  0  0  0  0  0  0  0  0
   22.2240    3.1350   32.3532 C   0  0  0  0  0  0  0  0  0  0  0  0
   22.0660    3.3578   31.0439 N   0  0  1  0  0  0  0  0  0  0  0  0
   18.1481    3.0944   24.3186 O   0  0  0  0  0  0  0  0  0  0  0  0
   20.3964    2.1994   25.0860 O   0  5  0  0  0  0  0  0  0  0  0  0
   18.2540    1.2203   26.0014 O   0  0  0  0  0  0  0  0  0  0  0  0
  1  3  1  1  0  0  0
  1 21  1  0  0  0  0
  1 22  1  0  0  0  0
  1 23  2  0  0  0  0
  2  3  1  0  0  0  0
  4  2  1  6  0  0  0
  4  5  1  0  0  0  0
  4  6  1  0  0  0  0
  6  7  1  1  0  0  0
  6  8  1  0  0  0  0
  8  9  1  0  0  0  0
  9  5  1  6  0  0  0
  9 20  1  0  0  0  0
 10 11  1  0  0  0  0
 10 16  1  0  0  0  0
 11 12  1  6  0  0  0
 11 13  1  0  0  0  0
 14 13  1  6  0  0  0
 14 15  1  0  0  0  0
 14 20  1  0  0  0  0
 15 16  1  1  0  0  0
 15 18  1  0  0  0  0
 16 17  2  0  0  0  0
 18 19  1  0  0  0  0
 20 19  1  1  0  0  0
M  CHG  1  22  -1
M  END
>  <CHROM.1>
177.37835945,164.28744970,167.87525490,81.12255531,21.29086649,2.69571652
28.60778368,-2.76761160,-0.82649041,0.77150275

>  <Name>
ligand

>  <RI>
416

>  <Rbt.Current_Directory>
/home/itssahil/PROJECTS/Mol_Feturizer/Test_systems_manuscript/rnas/3slm

>  <Rbt.Executable>
rbdock ($Id: //depot/dev/client3/rdock/2013.1/src/exe/rbdock.cxx#4 $)

>  <Rbt.Library>
libRbt.so (2013.1, Build901 2013/11/27)

>  <Rbt.Parameter_File>
/export/apps/rDock/src/rDock_2013.1_src/data/scripts/dock_solv.prm

>  <Rbt.Receptor>
prm/pocket_docking_4.prm

>  <SCORE>
-16.3549

>  <SCORE.INTER>
-12.1352

>  <SCORE.INTER.CONST>
1

>  <SCORE.INTER.POLAR>
0

>  <SCORE.INTER.ROT>
4

>  <SCORE.INTER.SOLV>
24.95

>  <SCORE.INTER.VDW>
-22.6735

>  <SCORE.INTER.norm>
-0.527619

>  <SCORE.INTRA>
-4.21967

>  <SCORE.INTRA.DIHEDRAL>
-5.82434

>  <SCORE.INTRA.DIHEDRAL.0>
8.62657

>  <SCORE.INTRA.POLAR>
0

>  <SCORE.INTRA.POLAR.0>
0

>  <SCORE.INTRA.REPUL>
0

>  <SCORE.INTRA.REPUL.0>
0

>  <SCORE.INTRA.SOLV>
0.719649

>  <SCORE.INTRA.SOLV.lig_0>
-66.3641

>  <SCORE.INTRA.VDW>
-1.66732

>  <SCORE.INTRA.VDW.0>
0.452231

>  <SCORE.INTRA.norm>
-0.183464

>  <SCORE.RESTR>
0

>  <SCORE.RESTR.CAVITY>
0

>  <SCORE.RESTR.norm>
0

>  <SCORE.SYSTEM>
0

>  <SCORE.SYSTEM.CONST>
0

>  <SCORE.SYSTEM.DIHEDRAL>
0

>  <SCORE.SYSTEM.SOLV>
0

>  <SCORE.SYSTEM.norm>
0

>  <SCORE.heavy>
23

>  <SCORE.norm>
-0.711083

>  <RMSD>
6.435

$$$$
ligand
 OpenBabel02271912143D
libRbt.so/2013.1/901 2013/11/27
 23 25  0  0  0  0  0  0  0  0999 V2000
   19.0722    2.2263   25.4189 P   0  0  1  0  0  0  0  0  0  0  0  0
   19.6901    2.8850   27.8765 C   0  0  0  0  0  0  0  0  0  0  0  0
   18.9913    3.2163   26.6846 O   0  0  0  0  0  0  0  0  0  0  0  0
   19.8538    4.1605   28.6721 C   0  0  1  0  0  0  0  0  0  0  0  0
   20.0954    3.9034   30.0550 O   0  0  0  0  0  0  0  0  0  0  0  0
   21.0405    4.9382   28.1286 C   0  0  1  0  0  0  0  0  0  0  0  0
   20.6382    6.3085   27.9598 O   0  0  0  0  0  0  0  0  0  0  0  0
   22.1346    4.7860   29.1779 C   0  0  0  0  0  0  0  0  0  0  0  0
   21.3854    4.3903   30.4475 C   0  0  2  0  0  0  0  0  0  0  0  0
   24.0051    0.0026   29.8016 N   0  0  0  0  0  0  0  0  0  0  0  0
   23.4935    0.8073   28.8559 C   0  0  2  0  0  0  0  0  0  0  0  0
   23.6789    0.4582   27.5615 N   0  0  0  0  0  0  0  0  0  0  0  0
   22.8223    1.9365   29.1877 N   0  0  0  0  0  0  0  0  0  0  0  0
   22.6619    2.2597   30.4876 C   0  0  2  0  0  0  0  0  0  0  0  0
   23.1791    1.4434   31.4702 C   0  0  1  0  0  0  0  0  0  0  0  0
   23.8666    0.3012   31.1061 C   0  0  0  0  0  0  0  0  0  0  0  0
   24.3489   -0.4490   31.9818 O   0  0  0  0  0  0  0  0  0  0  0  0
   22.8752    1.9847   32.6664 N   0  0  0  0  0  0  0  0  0  0  0  0
   22.1899    3.1174   32.4306 C   0  0  0  0  0  0  0  0  0  0  0  0
   22.0583    3.2670   31.1081 N   0  0  1  0  0  0  0  0  0  0  0  0
   20.5103    2.2124   24.9609 O   0  0  0  0  0  0  0  0  0  0  0  0
   18.5767    0.9043   25.9584 O   0  5  0  0  0  0  0  0  0  0  0  0
   18.1346    2.8711   24.4343 O   0  0  0  0  0  0  0  0  0  0  0  0
  1  3  1  1  0  0  0
  1 21  1  0  0  0  0
  1 22  1  0  0  0  0
  1 23  2  0  0  0  0
  2  3  1  0  0  0  0
  4  2  1  6  0  0  0
  4  5  1  0  0  0  0
  4  6  1  0  0  0  0
  6  7  1  1  0  0  0
  6  8  1  0  0  0  0
  8  9  1  0  0  0  0
  9  5  1  6  0  0  0
  9 20  1  0  0  0  0
 10 11  1  0  0  0  0
 10 16  1  0  0  0  0
 11 12  1  6  0  0  0
 11 13  1  0  0  0  0
 14 13  1  1  0  0  0
 14 15  1  0  0  0  0
 14 20  1  0  0  0  0
 15 16  1  6  0  0  0
 15 18  1  0  0  0  0
 16 17  2  0  0  0  0
 18 19  1  0  0  0  0
 20 19  1  1  0  0  0
M  CHG  1  22  -1
M  END
>  <CHROM.1>
-64.39192727,159.05733214,159.97764398,79.97513891,21.31811754,2.52229848
28.67811160,-2.78308119,-0.87975469,0.71647008

>  <Name>
ligand

>  <RI>
416

>  <Rbt.Current_Directory>
/home/itssahil/PROJECTS/Mol_Feturizer/Test_systems_manuscript/rnas/3slm

>  <Rbt.Executable>
rbdock ($Id: //depot/dev/client3/rdock/2013.1/src/exe/rbdock.cxx#4 $)

>  <Rbt.Library>
libRbt.so (2013.1, Build901 2013/11/27)

>  <Rbt.Parameter_File>
/export/apps/rDock/src/rDock_2013.1_src/data/scripts/dock_solv.prm

>  <Rbt.Receptor>
prm/pocket_docking_4.prm

>  <SCORE>
-16.3521

>  <SCORE.INTER>
-12.1734

>  <SCORE.INTER.CONST>
1

>  <SCORE.INTER.POLAR>
0

>  <SCORE.INTER.ROT>
4

>  <SCORE.INTER.SOLV>
25.5961

>  <SCORE.INTER.VDW>
-22.9143

>  <SCORE.INTER.norm>
-0.529278

>  <SCORE.INTRA>
-4.17983

>  <SCORE.INTRA.DIHEDRAL>
-4.11718

>  <SCORE.INTRA.DIHEDRAL.0>
8.62657

>  <SCORE.INTRA.POLAR>
0

>  <SCORE.INTRA.POLAR.0>
0

>  <SCORE.INTRA.REPUL>
0

>  <SCORE.INTRA.REPUL.0>
0

>  <SCORE.INTRA.SOLV>
-0.481633

>  <SCORE.INTRA.SOLV.lig_0>
-66.3641

>  <SCORE.INTRA.VDW>
-1.88043

>  <SCORE.INTRA.VDW.0>
0.452231

>  <SCORE.INTRA.norm>
-0.181732

>  <SCORE.RESTR>
0.00114244

>  <SCORE.RESTR.CAVITY>
0.00114244

>  <SCORE.RESTR.norm>
4.96715e-05

>  <SCORE.SYSTEM>
0

>  <SCORE.SYSTEM.CONST>
0

>  <SCORE.SYSTEM.DIHEDRAL>
0

>  <SCORE.SYSTEM.SOLV>
0

>  <SCORE.SYSTEM.norm>
0

>  <SCORE.heavy>
23

>  <SCORE.norm>
-0.71096

>  <RMSD>
6.439

$$$$
ligand
 OpenBabel02271912143D
libRbt.so/2013.1/901 2013/11/27
 23 25  0  0  0  0  0  0  0  0999 V2000
   19.0398    2.2249   25.4421 P   0  0  1  0  0  0  0  0  0  0  0  0
   19.7161    2.9075   27.8776 C   0  0  0  0  0  0  0  0  0  0  0  0
   19.0205    3.2453   26.6857 O   0  0  0  0  0  0  0  0  0  0  0  0
   19.8754    4.1780   28.6819 C   0  0  1  0  0  0  0  0  0  0  0  0
   20.1195    3.9123   30.0627 O   0  0  0  0  0  0  0  0  0  0  0  0
   21.0583    4.9644   28.1426 C   0  0  1  0  0  0  0  0  0  0  0  0
   20.6501    6.3342   27.9838 O   0  0  0  0  0  0  0  0  0  0  0  0
   22.1541    4.8094   29.1897 C   0  0  0  0  0  0  0  0  0  0  0  0
   21.4080    4.4018   30.4572 C   0  0  2  0  0  0  0  0  0  0  0  0
   24.0412    0.0272   29.7779 N   0  0  0  0  0  0  0  0  0  0  0  0
   23.5247    0.8361   28.8384 C   0  0  2  0  0  0  0  0  0  0  0  0
   23.7084    0.4958   27.5415 N   0  0  0  0  0  0  0  0  0  0  0  0
   22.8504    1.9609   29.1789 N   0  0  0  0  0  0  0  0  0  0  0  0
   22.6919    2.2754   30.4811 C   0  0  2  0  0  0  0  0  0  0  0  0
   23.2141    1.4548   31.4574 C   0  0  1  0  0  0  0  0  0  0  0  0
   23.9047    0.3173   31.0846 C   0  0  0  0  0  0  0  0  0  0  0  0
   24.3916   -0.4367   31.9545 O   0  0  0  0  0  0  0  0  0  0  0  0
   22.9111    1.9875   32.6576 N   0  0  0  0  0  0  0  0  0  0  0  0
   22.2213    3.1193   32.4305 C   0  0  0  0  0  0  0  0  0  0  0  0
   22.0862    3.2767   31.1093 N   0  0  1  0  0  0  0  0  0  0  0  0
   18.0807    2.7679   24.4108 O   0  0  0  0  0  0  0  0  0  0  0  0
   20.4860    2.2127   25.0034 O   0  5  0  0  0  0  0  0  0  0  0  0
   18.5828    0.9341   26.0662 O   0  0  0  0  0  0  0  0  0  0  0  0
  1  3  1  1  0  0  0
  1 21  1  0  0  0  0
  1 22  1  0  0  0  0
  1 23  2  0  0  0  0
  2  3  1  0  0  0  0
  4  2  1  6  0  0  0
  4  5  1  0  0  0  0
  4  6  1  0  0  0  0
  6  7  1  1  0  0  0
  6  8  1  0  0  0  0
  8  9  1  0  0  0  0
  9  5  1  6  0  0  0
  9 20  1  0  0  0  0
 10 11  1  0  0  0  0
 10 16  1  0  0  0  0
 11 12  1  6  0  0  0
 11 13  1  0  0  0  0
 14 13  1  1  0  0  0
 14 15  1  0  0  0  0
 14 20  1  0  0  0  0
 15 16  1  6  0  0  0
 15 18  1  0  0  0  0
 16 17  2  0  0  0  0
 18 19  1  0  0  0  0
 20 19  1  1  0  0  0
M  CHG  1  22  -1
M  END
>  <CHROM.1>
172.76185588,159.34183014,163.34812661,79.88636888,21.33343450,2.53298011
28.68372839,-2.79093301,-0.87167780,0.70645630

>  <Name>
ligand

>  <RI>
416

>  <Rbt.Current_Directory>
/home/itssahil/PROJECTS/Mol_Feturizer/Test_systems_manuscript/rnas/3slm

>  <Rbt.Executable>
rbdock ($Id: //depot/dev/client3/rdock/2013.1/src/exe/rbdock.cxx#4 $)

>  <Rbt.Library>
libRbt.so (2013.1, Build901 2013/11/27)

>  <Rbt.Parameter_File>
/export/apps/rDock/src/rDock_2013.1_src/data/scripts/dock_solv.prm

>  <Rbt.Receptor>
prm/pocket_docking_4.prm

>  <SCORE>
-16.342

>  <SCORE.INTER>
-12.5581

>  <SCORE.INTER.CONST>
1

>  <SCORE.INTER.POLAR>
0

>  <SCORE.INTER.ROT>
4

>  <SCORE.INTER.SOLV>
24.6085

>  <SCORE.INTER.VDW>
-22.8415

>  <SCORE.INTER.norm>
-0.546003

>  <SCORE.INTRA>
-3.78669

>  <SCORE.INTRA.DIHEDRAL>
-4.62318

>  <SCORE.INTRA.DIHEDRAL.0>
8.62657

>  <SCORE.INTRA.POLAR>
0

>  <SCORE.INTRA.POLAR.0>
0

>  <SCORE.INTRA.REPUL>
0

>  <SCORE.INTRA.REPUL.0>
0

>  <SCORE.INTRA.SOLV>
0.515337

>  <SCORE.INTRA.SOLV.lig_0>
-66.3641

>  <SCORE.INTRA.VDW>
-1.73277

>  <SCORE.INTRA.VDW.0>
0.452231

>  <SCORE.INTRA.norm>
-0.164639

>  <SCORE.RESTR>
0.00273924

>  <SCORE.RESTR.CAVITY>
0.00273924

>  <SCORE.RESTR.norm>
0.000119097

>  <SCORE.SYSTEM>
0

>  <SCORE.SYSTEM.CONST>
0

>  <SCORE.SYSTEM.DIHEDRAL>
0

>  <SCORE.SYSTEM.SOLV>
0

>  <SCORE.SYSTEM.norm>
0

>  <SCORE.heavy>
23

>  <SCORE.norm>
-0.710522

>  <RMSD>
6.445

$$$$
ligand
 OpenBabel02271912143D
libRbt.so/2013.1/901 2013/11/27
 23 25  0  0  0  0  0  0  0  0999 V2000
   25.7066   -3.4802   32.4000 P   0  0  1  0  0  0  0  0  0  0  0  0
   24.7584   -2.2286   30.3048 C   0  0  0  0  0  0  0  0  0  0  0  0
   25.8627   -2.8826   30.9145 O   0  0  0  0  0  0  0  0  0  0  0  0
   25.1749   -1.8565   28.8996 C   0  0  1  0  0  0  0  0  0  0  0  0
   24.0940   -1.3067   28.1471 O   0  0  0  0  0  0  0  0  0  0  0  0
   26.2754   -0.8110   28.9662 C   0  0  1  0  0  0  0  0  0  0  0  0
   27.3273   -1.2108   28.0708 O   0  0  0  0  0  0  0  0  0  0  0  0
   25.6170    0.4928   28.5330 C   0  0  0  0  0  0  0  0  0  0  0  0
   24.3694    0.0498   27.7735 C   0  0  2  0  0  0  0  0  0  0  0  0
   21.2219    1.2336   31.6753 N   0  0  0  0  0  0  0  0  0  0  0  0
   22.2556    0.3761   31.6774 C   0  0  2  0  0  0  0  0  0  0  0  0
   22.5405   -0.2669   32.8337 N   0  0  0  0  0  0  0  0  0  0  0  0
   22.9942    0.1696   30.5605 N   0  0  0  0  0  0  0  0  0  0  0  0
   22.6883    0.8327   29.4263 C   0  0  2  0  0  0  0  0  0  0  0  0
   21.6295    1.7146   29.4071 C   0  0  1  0  0  0  0  0  0  0  0  0
   20.8961    1.9139   30.5613 C   0  0  0  0  0  0  0  0  0  0  0  0
   19.9360    2.7143   30.5665 O   0  0  0  0  0  0  0  0  0  0  0  0
   21.5367    2.2297   28.1651 N   0  0  0  0  0  0  0  0  0  0  0  0
   22.5223    1.6840   27.4309 C   0  0  0  0  0  0  0  0  0  0  0  0
   23.2057    0.8322   28.2030 N   0  0  1  0  0  0  0  0  0  0  0  0
   24.6987   -4.6009   32.3211 O   0  0  0  0  0  0  0  0  0  0  0  0
   27.1051   -3.9237   32.7630 O   0  5  0  0  0  0  0  0  0  0  0  0
   25.2225   -2.2915   33.1855 O   0  0  0  0  0  0  0  0  0  0  0  0
  1  3  1  6  0  0  0
  1 21  1  0  0  0  0
  1 22  1  0  0  0  0
  1 23  2  0  0  0  0
  2  3  1  0  0  0  0
  4  2  1  1  0  0  0
  4  5  1  0  0  0  0
  4  6  1  0  0  0  0
  6  7  1  6  0  0  0
  6  8  1  0  0  0  0
  8  9  1  0  0  0  0
  9  5  1  1  0  0  0
  9 20  1  0  0  0  0
 10 11  1  0  0  0  0
 10 16  1  0  0  0  0
 11 12  1  1  0  0  0
 11 13  1  0  0  0  0
 14 13  1  6  0  0  0
 14 15  1  0  0  0  0
 14 20  1  0  0  0  0
 15 16  1  1  0  0  0
 15 18  1  0  0  0  0
 16 17  2  0  0  0  0
 18 19  1  0  0  0  0
 20 19  1  1  0  0  0
M  CHG  1  22  -1
M  END
>  <CHROM.1>
65.64246163,174.29613967,-176.56746590,52.75272548,23.98991659,-0.72057529
30.29076451,0.69530335,-0.64131045,2.08627806

>  <Name>
ligand

>  <RI>
416

>  <Rbt.Current_Directory>
/home/itssahil/PROJECTS/Mol_Feturizer/Test_systems_manuscript/rnas/3slm

>  <Rbt.Executable>
rbdock ($Id: //depot/dev/client3/rdock/2013.1/src/exe/rbdock.cxx#4 $)

>  <Rbt.Library>
libRbt.so (2013.1, Build901 2013/11/27)

>  <Rbt.Parameter_File>
/export/apps/rDock/src/rDock_2013.1_src/data/scripts/dock_solv.prm

>  <Rbt.Receptor>
prm/pocket_docking_6.prm

>  <SCORE>
-12.7102

>  <SCORE.INTER>
-7.9435

>  <SCORE.INTER.CONST>
1

>  <SCORE.INTER.POLAR>
0

>  <SCORE.INTER.ROT>
4

>  <SCORE.INTER.SOLV>
18.4449

>  <SCORE.INTER.VDW>
-17.7106

>  <SCORE.INTER.norm>
-0.34537

>  <SCORE.INTRA>
-4.77268

>  <SCORE.INTRA.DIHEDRAL>
-7.21366

>  <SCORE.INTRA.DIHEDRAL.0>
8.62657

>  <SCORE.INTRA.POLAR>
0

>  <SCORE.INTRA.POLAR.0>
0

>  <SCORE.INTRA.REPUL>
0.0471797

>  <SCORE.INTRA.REPUL.0>
0

>  <SCORE.INTRA.SOLV>
2.28289

>  <SCORE.INTRA.SOLV.lig_0>
-66.3641

>  <SCORE.INTRA.VDW>
-2.54319

>  <SCORE.INTRA.VDW.0>
0.452231

>  <SCORE.INTRA.norm>
-0.207508

>  <SCORE.RESTR>
0.00598844

>  <SCORE.RESTR.CAVITY>
0.00598844

>  <SCORE.RESTR.norm>
0.000260367

>  <SCORE.SYSTEM>
0

>  <SCORE.SYSTEM.CONST>
0

>  <SCORE.SYSTEM.DIHEDRAL>
0

>  <SCORE.SYSTEM.SOLV>
0

>  <SCORE.SYSTEM.norm>
0

>  <SCORE.heavy>
23

>  <SCORE.norm>
-0.552617

>  <RMSD>
6.446

$$$$
ligand
 OpenBabel02271912143D
libRbt.so/2013.1/901 2013/11/27
 23 25  0  0  0  0  0  0  0  0999 V2000
   23.5171    1.2662   30.8691 P   0  0  1  0  0  0  0  0  0  0  0  0
   21.8335    1.1610   28.8667 C   0  0  0  0  0  0  0  0  0  0  0  0
   22.4199    1.9370   29.9024 O   0  0  0  0  0  0  0  0  0  0  0  0
   20.7302    1.9917   28.2509 C   0  0  1  0  0  0  0  0  0  0  0  0
   19.8886    2.5843   29.2395 O   0  0  0  0  0  0  0  0  0  0  0  0
   21.3481    3.1129   27.4324 C   0  0  1  0  0  0  0  0  0  0  0  0
   20.6872    3.1517   26.1558 O   0  0  0  0  0  0  0  0  0  0  0  0
   21.1075    4.3806   28.2425 C   0  0  0  0  0  0  0  0  0  0  0  0
   19.9610    4.0149   29.1814 C   0  0  2  0  0  0  0  0  0  0  0  0
   19.3395    7.7359   32.6885 N   0  0  0  0  0  0  0  0  0  0  0  0
   18.8876    7.7072   31.4241 C   0  0  2  0  0  0  0  0  0  0  0  0
   18.1674    8.7661   30.9866 N   0  0  0  0  0  0  0  0  0  0  0  0
   19.1370    6.6479   30.6170 N   0  0  0  0  0  0  0  0  0  0  0  0
   19.8517    5.6047   31.0869 C   0  0  2  0  0  0  0  0  0  0  0  0
   20.3242    5.6196   32.3814 C   0  0  1  0  0  0  0  0  0  0  0  0
   20.0499    6.7080   33.1875 C   0  0  0  0  0  0  0  0  0  0  0  0
   20.4638    6.7381   34.3666 O   0  0  0  0  0  0  0  0  0  0  0  0
   21.0044    4.4753   32.5915 N   0  0  0  0  0  0  0  0  0  0  0  0
   20.9488    3.7619   31.4530 C   0  0  0  0  0  0  0  0  0  0  0  0
   20.2573    4.4611   30.5467 N   0  0  1  0  0  0  0  0  0  0  0  0
   23.9547    2.3309   31.8454 O   0  0  0  0  0  0  0  0  0  0  0  0
   22.7847    0.1045   31.5002 O   0  5  0  0  0  0  0  0  0  0  0  0
   24.5977    0.8533   29.9067 O   0  0  0  0  0  0  0  0  0  0  0  0
  1  3  1  6  0  0  0
  1 21  1  0  0  0  0
  1 22  1  0  0  0  0
  1 23  2  0  0  0  0
  2  3  1  0  0  0  0
  4  2  1  1  0  0  0
  4  5  1  0  0  0  0
  4  6  1  0  0  0  0
  6  7  1  6  0  0  0
  6  8  1  0  0  0  0
  8  9  1  0  0  0  0
  9  5  1  1  0  0  0
  9 20  1  0  0  0  0
 10 11  1  0  0  0  0
 10 16  1  0  0  0  0
 11 12  1  1  0  0  0
 11 13  1  0  0  0  0
 14 13  1  6  0  0  0
 14 15  1  0  0  0  0
 14 20  1  0  0  0  0
 15 16  1  1  0  0  0
 15 18  1  0  0  0  0
 16 17  2  0  0  0  0
 18 19  1  0  0  0  0
 20 19  1  1  0  0  0
M  CHG  1  22  -1
M  END
>  <CHROM.1>
179.53993746,-47.25030921,172.91074629,-148.39311585,21.13147064,3.88462157
30.54311991,-0.72334691,-0.87350687,1.10287189

>  <Name>
ligand

>  <RI>
0

>  <Rbt.Current_Directory>
/home/itssahil/PROJECTS/Mol_Feturizer/Test_systems_manuscript/rnas/3slm

>  <Rbt.Executable>
rbdock ($Id: //depot/dev/client3/rdock/2013.1/src/exe/rbdock.cxx#4 $)

>  <Rbt.Library>
libRbt.so (2013.1, Build901 2013/11/27)

>  <Rbt.Parameter_File>
/export/apps/rDock/src/rDock_2013.1_src/data/scripts/dock_solv.prm

>  <Rbt.Receptor>
prm/pocket_docking_7.prm

>  <SCORE>
-18.2098

>  <SCORE.INTER>
-12.6117

>  <SCORE.INTER.CONST>
1

>  <SCORE.INTER.POLAR>
0

>  <SCORE.INTER.ROT>
4

>  <SCORE.INTER.SOLV>
16.813

>  <SCORE.INTER.VDW>
-20.2788

>  <SCORE.INTER.norm>
-0.548336

>  <SCORE.INTRA>
-5.59812

>  <SCORE.INTRA.DIHEDRAL>
-6.55269

>  <SCORE.INTRA.DIHEDRAL.0>
8.62657

>  <SCORE.INTRA.POLAR>
0

>  <SCORE.INTRA.POLAR.0>
0

>  <SCORE.INTRA.REPUL>
0

>  <SCORE.INTRA.REPUL.0>
0

>  <SCORE.INTRA.SOLV>
0.34765

>  <SCORE.INTRA.SOLV.lig_0>
-66.3641

>  <SCORE.INTRA.VDW>
-2.49559

>  <SCORE.INTRA.VDW.0>
0.452231

>  <SCORE.INTRA.norm>
-0.243396

>  <SCORE.RESTR>
0

>  <SCORE.RESTR.CAVITY>
0

>  <SCORE.RESTR.norm>
0

>  <SCORE.SYSTEM>
0

>  <SCORE.SYSTEM.CONST>
0

>  <SCORE.SYSTEM.DIHEDRAL>
0

>  <SCORE.SYSTEM.SOLV>
0

>  <SCORE.SYSTEM.norm>
0

>  <SCORE.heavy>
23

>  <SCORE.norm>
-0.791732

>  <RMSD>
6.458

$$$$
ligand
 OpenBabel02271912143D
libRbt.so/2013.1/901 2013/11/27
 23 25  0  0  0  0  0  0  0  0999 V2000
   21.2130    4.3593   27.7829 P   0  0  1  0  0  0  0  0  0  0  0  0
   21.0703    2.4986   29.6194 C   0  0  0  0  0  0  0  0  0  0  0  0
   20.8651    3.8610   29.2725 O   0  0  0  0  0  0  0  0  0  0  0  0
   20.9360    2.3909   31.1217 C   0  0  1  0  0  0  0  0  0  0  0  0
   21.0820    1.0468   31.5788 O   0  0  0  0  0  0  0  0  0  0  0  0
   22.0200    3.2273   31.7803 C   0  0  1  0  0  0  0  0  0  0  0  0
   21.4085    4.0201   32.8126 O   0  0  0  0  0  0  0  0  0  0  0  0
   23.0165    2.2216   32.3430 C   0  0  0  0  0  0  0  0  0  0  0  0
   22.2257    0.9193   32.4338 C   0  0  2  0  0  0  0  0  0  0  0  0
   24.6030   -1.0205   28.2964 N   0  0  0  0  0  0  0  0  0  0  0  0
   23.9097    0.1259   28.3903 C   0  0  2  0  0  0  0  0  0  0  0  0
   23.8115    0.8972   27.2825 N   0  0  0  0  0  0  0  0  0  0  0  0
   23.3362    0.5018   29.5588 N   0  0  0  0  0  0  0  0  0  0  0  0
   23.4598   -0.2864   30.6466 C   0  0  2  0  0  0  0  0  0  0  0  0
   24.1663   -1.4669   30.5663 C   0  0  1  0  0  0  0  0  0  0  0  0
   24.7488   -1.8245   29.3652 C   0  0  0  0  0  0  0  0  0  0  0  0
   25.3991   -2.8880   29.2732 O   0  0  0  0  0  0  0  0  0  0  0  0
   24.1299   -2.0592   31.7763 N   0  0  0  0  0  0  0  0  0  0  0  0
   23.4215   -1.2590   32.5925 C   0  0  0  0  0  0  0  0  0  0  0  0
   23.0126   -0.1944   31.8939 N   0  0  1  0  0  0  0  0  0  0  0  0
   22.6689    4.0431   27.5407 O   0  0  0  0  0  0  0  0  0  0  0  0
   20.2532    3.5872   26.9072 O   0  5  0  0  0  0  0  0  0  0  0  0
   20.9221    5.8341   27.8510 O   0  0  0  0  0  0  0  0  0  0  0  0
  1  3  1  1  0  0  0
  1 21  1  0  0  0  0
  1 22  1  0  0  0  0
  1 23  2  0  0  0  0
  2  3  1  0  0  0  0
  4  2  1  6  0  0  0
  4  5  1  0  0  0  0
  4  6  1  0  0  0  0
  6  7  1  1  0  0  0
  6  8  1  0  0  0  0
  8  9  1  0  0  0  0
  9  5  1  6  0  0  0
  9 20  1  0  0  0  0
 10 11  1  0  0  0  0
 10 16  1  0  0  0  0
 11 12  1  1  0  0  0
 11 13  1  0  0  0  0
 14 13  1  6  0  0  0
 14 15  1  0  0  0  0
 14 20  1  0  0  0  0
 15 16  1  1  0  0  0
 15 18  1  0  0  0  0
 16 17  2  0  0  0  0
 18 19  1  0  0  0  0
 20 19  1  1  0  0  0
M  CHG  1  22  -1
M  END
>  <CHROM.1>
-57.71834970,178.10230032,168.54872433,55.39626181,22.54359519,1.51560818
29.86520450,-2.58330059,-1.00874799,1.87225309

>  <Name>
ligand

>  <RI>
416

>  <Rbt.Current_Directory>
/home/itssahil/PROJECTS/Mol_Feturizer/Test_systems_manuscript/rnas/3slm

>  <Rbt.Executable>
rbdock ($Id: //depot/dev/client3/rdock/2013.1/src/exe/rbdock.cxx#4 $)

>  <Rbt.Library>
libRbt.so (2013.1, Build901 2013/11/27)

>  <Rbt.Parameter_File>
/export/apps/rDock/src/rDock_2013.1_src/data/scripts/dock_solv.prm

>  <Rbt.Receptor>
prm/pocket_docking_6.prm

>  <SCORE>
-17.368

>  <SCORE.INTER>
-12.1277

>  <SCORE.INTER.CONST>
1

>  <SCORE.INTER.POLAR>
0

>  <SCORE.INTER.ROT>
4

>  <SCORE.INTER.SOLV>
23.8538

>  <SCORE.INTER.VDW>
-22.3031

>  <SCORE.INTER.norm>
-0.52729

>  <SCORE.INTRA>
-5.24039

>  <SCORE.INTRA.DIHEDRAL>
-6.78835

>  <SCORE.INTRA.DIHEDRAL.0>
8.62657

>  <SCORE.INTRA.POLAR>
0

>  <SCORE.INTRA.POLAR.0>
0

>  <SCORE.INTRA.REPUL>
0

>  <SCORE.INTRA.REPUL.0>
0

>  <SCORE.INTRA.SOLV>
1.69797

>  <SCORE.INTRA.SOLV.lig_0>
-66.3641

>  <SCORE.INTRA.VDW>
-2.6952

>  <SCORE.INTRA.VDW.0>
0.452231

>  <SCORE.INTRA.norm>
-0.227843

>  <SCORE.RESTR>
0

>  <SCORE.RESTR.CAVITY>
0

>  <SCORE.RESTR.norm>
0

>  <SCORE.SYSTEM>
0

>  <SCORE.SYSTEM.CONST>
0

>  <SCORE.SYSTEM.DIHEDRAL>
0

>  <SCORE.SYSTEM.SOLV>
0

>  <SCORE.SYSTEM.norm>
0

>  <SCORE.heavy>
23

>  <SCORE.norm>
-0.755133

>  <RMSD>
6.465

$$$$
ligand
 OpenBabel02271912143D
libRbt.so/2013.1/901 2013/11/27
 23 25  0  0  0  0  0  0  0  0999 V2000
   19.1980    2.3795   25.6295 P   0  0  1  0  0  0  0  0  0  0  0  0
   20.0363    2.2042   28.1038 C   0  0  0  0  0  0  0  0  0  0  0  0
   19.3946    2.9866   27.1064 O   0  0  0  0  0  0  0  0  0  0  0  0
   20.0303    3.0112   29.3825 C   0  0  1  0  0  0  0  0  0  0  0  0
   20.1283    2.1828   30.5406 O   0  0  0  0  0  0  0  0  0  0  0  0
   21.2214    3.9544   29.3824 C   0  0  1  0  0  0  0  0  0  0  0  0
   20.7581    5.2606   29.7661 O   0  0  0  0  0  0  0  0  0  0  0  0
   22.1963    3.3699   30.3968 C   0  0  0  0  0  0  0  0  0  0  0  0
   21.3332    2.4597   31.2664 C   0  0  2  0  0  0  0  0  0  0  0  0
   24.6923   -0.9536   29.3697 N   0  0  0  0  0  0  0  0  0  0  0  0
   24.3060    0.2141   28.8303 C   0  0  2  0  0  0  0  0  0  0  0  0
   24.8543    0.5754   27.6469 N   0  0  0  0  0  0  0  0  0  0  0  0
   23.4039    1.0082   29.4560 N   0  0  0  0  0  0  0  0  0  0  0  0
   22.8824    0.6222   30.6386 C   0  0  2  0  0  0  0  0  0  0  0  0
   23.2669   -0.5741   31.2045 C   0  0  1  0  0  0  0  0  0  0  0  0
   24.1944   -1.3628   30.5506 C   0  0  0  0  0  0  0  0  0  0  0  0
   24.5612   -2.4483   31.0503 O   0  0  0  0  0  0  0  0  0  0  0  0
   22.5987   -0.7215   32.3656 N   0  0  0  0  0  0  0  0  0  0  0  0
   21.8210    0.3646   32.5204 C   0  0  0  0  0  0  0  0  0  0  0  0
   21.9939    1.1653   31.4632 N   0  0  1  0  0  0  0  0  0  0  0  0
   18.3186    3.3428   24.8700 O   0  0  0  0  0  0  0  0  0  0  0  0
   20.6061    2.2645   25.0927 O   0  5  0  0  0  0  0  0  0  0  0  0
   18.5408    1.0535   25.9018 O   0  0  0  0  0  0  0  0  0  0  0  0
  1  3  1  1  0  0  0
  1 21  1  0  0  0  0
  1 22  1  0  0  0  0
  1 23  2  0  0  0  0
  2  3  1  0  0  0  0
  4  2  1  6  0  0  0
  4  5  1  0  0  0  0
  4  6  1  0  0  0  0
  6  7  1  1  0  0  0
  6  8  1  0  0  0  0
  8  9  1  0  0  0  0
  9  5  1  6  0  0  0
  9 20  1  0  0  0  0
 10 11  1  0  0  0  0
 10 16  1  0  0  0  0
 11 12  1  1  0  0  0
 11 13  1  0  0  0  0
 14 13  1  6  0  0  0
 14 15  1  0  0  0  0
 14 20  1  0  0  0  0
 15 16  1  1  0  0  0
 15 18  1  0  0  0  0
 16 17  2  0  0  0  0
 18 19  1  0  0  0  0
 20 19  1  1  0  0  0
M  CHG  1  22  -1
M  END
>  <CHROM.1>
171.75773105,156.02603485,-178.02622889,90.66078667,21.53041150,1.51415780
28.94890065,-2.65796657,-0.81927941,1.23366186

>  <Name>
ligand

>  <RI>
0

>  <Rbt.Current_Directory>
/home/itssahil/PROJECTS/Mol_Feturizer/Test_systems_manuscript/rnas/3slm

>  <Rbt.Executable>
rbdock ($Id: //depot/dev/client3/rdock/2013.1/src/exe/rbdock.cxx#4 $)

>  <Rbt.Library>
libRbt.so (2013.1, Build901 2013/11/27)

>  <Rbt.Parameter_File>
/export/apps/rDock/src/rDock_2013.1_src/data/scripts/dock_solv.prm

>  <Rbt.Receptor>
prm/pocket_docking_3.prm

>  <SCORE>
-15.5385

>  <SCORE.INTER>
-11.8744

>  <SCORE.INTER.CONST>
1

>  <SCORE.INTER.POLAR>
0

>  <SCORE.INTER.ROT>
4

>  <SCORE.INTER.SOLV>
21.8954

>  <SCORE.INTER.VDW>
-21.4814

>  <SCORE.INTER.norm>
-0.516278

>  <SCORE.INTRA>
-3.66406

>  <SCORE.INTRA.DIHEDRAL>
-5.43418

>  <SCORE.INTRA.DIHEDRAL.0>
8.62657

>  <SCORE.INTRA.POLAR>
0

>  <SCORE.INTRA.POLAR.0>
0

>  <SCORE.INTRA.REPUL>
0

>  <SCORE.INTRA.REPUL.0>
0

>  <SCORE.INTRA.SOLV>
0.0540319

>  <SCORE.INTRA.SOLV.lig_0>
-66.3641

>  <SCORE.INTRA.VDW>
-0.973983

>  <SCORE.INTRA.VDW.0>
0.452231

>  <SCORE.INTRA.norm>
-0.159307

>  <SCORE.RESTR>
0

>  <SCORE.RESTR.CAVITY>
0

>  <SCORE.RESTR.norm>
0

>  <SCORE.SYSTEM>
0

>  <SCORE.SYSTEM.CONST>
0

>  <SCORE.SYSTEM.DIHEDRAL>
0

>  <SCORE.SYSTEM.SOLV>
0

>  <SCORE.SYSTEM.norm>
0

>  <SCORE.heavy>
23

>  <SCORE.norm>
-0.675585

>  <RMSD>
6.468

$$$$
ligand
 OpenBabel02271912143D
libRbt.so/2013.1/901 2013/11/27
 23 25  0  0  0  0  0  0  0  0999 V2000
   24.3801   -0.3432   28.0709 P   0  0  1  0  0  0  0  0  0  0  0  0
   24.5567   -0.8647   30.6306 C   0  0  0  0  0  0  0  0  0  0  0  0
   23.9545   -0.0916   29.6019 O   0  0  0  0  0  0  0  0  0  0  0  0
   24.1701   -0.2370   31.9509 C   0  0  1  0  0  0  0  0  0  0  0  0
   24.2982    1.1842   31.9277 O   0  0  0  0  0  0  0  0  0  0  0  0
   22.7189   -0.5690   32.2547 C   0  0  1  0  0  0  0  0  0  0  0  0
   22.6388   -1.0200   33.6179 O   0  0  0  0  0  0  0  0  0  0  0  0
   21.9552    0.7307   32.0341 C   0  0  0  0  0  0  0  0  0  0  0  0
   23.0256    1.8152   32.1218 C   0  0  2  0  0  0  0  0  0  0  0  0
   20.7043    6.1100   30.4791 N   0  0  0  0  0  0  0  0  0  0  0  0
   20.5455    5.4822   31.6557 C   0  0  2  0  0  0  0  0  0  0  0  0
   19.6840    6.0225   32.5488 N   0  0  0  0  0  0  0  0  0  0  0  0
   21.2331    4.3504   31.9421 N   0  0  0  0  0  0  0  0  0  0  0  0
   22.0901    3.8423   31.0326 C   0  0  2  0  0  0  0  0  0  0  0  0
   22.2629    4.4734   29.8198 C   0  0  1  0  0  0  0  0  0  0  0  0
   21.5560    5.6308   29.5544 C   0  0  0  0  0  0  0  0  0  0  0  0
   21.7033    6.2219   28.4630 O   0  0  0  0  0  0  0  0  0  0  0  0
   23.1566    3.7639   29.1027 N   0  0  0  0  0  0  0  0  0  0  0  0
   23.5360    2.7181   29.8581 C   0  0  0  0  0  0  0  0  0  0  0  0
   22.8753    2.7711   31.0198 N   0  0  1  0  0  0  0  0  0  0  0  0
   23.9450   -1.7444   27.7166 O   0  0  0  0  0  0  0  0  0  0  0  0
   23.6595    0.7451   27.3090 O   0  5  0  0  0  0  0  0  0  0  0  0
   25.8745   -0.1705   28.1104 O   0  0  0  0  0  0  0  0  0  0  0  0
  1  3  1  1  0  0  0
  1 21  1  0  0  0  0
  1 22  1  0  0  0  0
  1 23  2  0  0  0  0
  2  3  1  0  0  0  0
  4  2  1  6  0  0  0
  4  5  1  0  0  0  0
  4  6  1  0  0  0  0
  6  7  1  1  0  0  0
  6  8  1  0  0  0  0
  8  9  1  0  0  0  0
  9  5  1  6  0  0  0
  9 20  1  0  0  0  0
 10 11  1  0  0  0  0
 10 16  1  0  0  0  0
 11 12  1  1  0  0  0
 11 13  1  0  0  0  0
 14 13  1  6  0  0  0
 14 15  1  0  0  0  0
 14 20  1  0  0  0  0
 15 16  1  1  0  0  0
 15 18  1  0  0  0  0
 16 17  2  0  0  0  0
 18 19  1  0  0  0  0
 20 19  1  1  0  0  0
M  CHG  1  22  -1
M  END
>  <CHROM.1>
64.63516324,-44.78989926,169.36427661,-156.97068078,22.94102967,1.97264690
30.30086066,-0.36629279,1.06270996,-0.92899226

>  <Name>
ligand

>  <RI>
0

>  <Rbt.Current_Directory>
/home/itssahil/PROJECTS/Mol_Feturizer/Test_systems_manuscript/rnas/3slm

>  <Rbt.Executable>
rbdock ($Id: //depot/dev/client3/rdock/2013.1/src/exe/rbdock.cxx#4 $)

>  <Rbt.Library>
libRbt.so (2013.1, Build901 2013/11/27)

>  <Rbt.Parameter_File>
/export/apps/rDock/src/rDock_2013.1_src/data/scripts/dock_solv.prm

>  <Rbt.Receptor>
prm/pocket_docking_7.prm

>  <SCORE>
-20.2955

>  <SCORE.INTER>
-14.9203

>  <SCORE.INTER.CONST>
1

>  <SCORE.INTER.POLAR>
0

>  <SCORE.INTER.ROT>
4

>  <SCORE.INTER.SOLV>
20.4496

>  <SCORE.INTER.VDW>
-23.0301

>  <SCORE.INTER.norm>
-0.648709

>  <SCORE.INTRA>
-5.37522

>  <SCORE.INTRA.DIHEDRAL>
-5.98784

>  <SCORE.INTRA.DIHEDRAL.0>
8.62657

>  <SCORE.INTRA.POLAR>
0

>  <SCORE.INTRA.POLAR.0>
0

>  <SCORE.INTRA.REPUL>
0

>  <SCORE.INTRA.REPUL.0>
0

>  <SCORE.INTRA.SOLV>
0.361801

>  <SCORE.INTRA.SOLV.lig_0>
-66.3641

>  <SCORE.INTRA.VDW>
-2.56221

>  <SCORE.INTRA.VDW.0>
0.452231

>  <SCORE.INTRA.norm>
-0.233705

>  <SCORE.RESTR>
0

>  <SCORE.RESTR.CAVITY>
0

>  <SCORE.RESTR.norm>
0

>  <SCORE.SYSTEM>
0

>  <SCORE.SYSTEM.CONST>
0

>  <SCORE.SYSTEM.DIHEDRAL>
0

>  <SCORE.SYSTEM.SOLV>
0

>  <SCORE.SYSTEM.norm>
0

>  <SCORE.heavy>
23

>  <SCORE.norm>
-0.882414

>  <RMSD>
6.468

$$$$
ligand
 OpenBabel02271912143D
libRbt.so/2013.1/901 2013/11/27
 23 25  0  0  0  0  0  0  0  0999 V2000
   20.3998    5.9140   32.2311 P   0  0  1  0  0  0  0  0  0  0  0  0
   21.5008    3.7827   31.1820 C   0  0  0  0  0  0  0  0  0  0  0  0
   20.3078    4.4517   31.5668 O   0  0  0  0  0  0  0  0  0  0  0  0
   21.9815    4.4214   29.8984 C   0  0  1  0  0  0  0  0  0  0  0  0
   23.2258    3.8764   29.4607 O   0  0  0  0  0  0  0  0  0  0  0  0
   20.9553    4.1765   28.8050 C   0  0  1  0  0  0  0  0  0  0  0  0
   20.7148    5.4231   28.1295 O   0  0  0  0  0  0  0  0  0  0  0  0
   21.5876    3.1383   27.8865 C   0  0  0  0  0  0  0  0  0  0  0  0
   23.0806    3.2263   28.1913 C   0  0  2  0  0  0  0  0  0  0  0  0
   23.4308   -0.9185   31.2295 N   0  0  0  0  0  0  0  0  0  0  0  0
   22.7687    0.2260   31.4649 C   0  0  2  0  0  0  0  0  0  0  0  0
   22.0899    0.3348   32.6307 N   0  0  0  0  0  0  0  0  0  0  0  0
   22.7727    1.2343   30.5598 N   0  0  0  0  0  0  0  0  0  0  0  0
   23.4530    1.0905   29.4039 C   0  0  2  0  0  0  0  0  0  0  0  0
   24.1392   -0.0769   29.1480 C   0  0  1  0  0  0  0  0  0  0  0  0
   24.1133   -1.0939   30.0834 C   0  0  0  0  0  0  0  0  0  0  0  0
   24.7238   -2.1630   29.8676 O   0  0  0  0  0  0  0  0  0  0  0  0
   24.7315    0.0415   27.9433 N   0  0  0  0  0  0  0  0  0  0  0  0
   24.4133    1.2548   27.4584 C   0  0  0  0  0  0  0  0  0  0  0  0
   23.6477    1.8839   28.3566 N   0  0  1  0  0  0  0  0  0  0  0  0
   21.4297    6.6907   31.4474 O   0  0  0  0  0  0  0  0  0  0  0  0
   18.9928    6.4544   32.1186 O   0  5  0  0  0  0  0  0  0  0  0  0
   20.8233    5.6100   33.6427 O   0  0  0  0  0  0  0  0  0  0  0  0
  1  3  1  6  0  0  0
  1 21  1  0  0  0  0
  1 22  1  0  0  0  0
  1 23  2  0  0  0  0
  2  3  1  0  0  0  0
  4  2  1  1  0  0  0
  4  5  1  0  0  0  0
  4  6  1  0  0  0  0
  6  7  1  6  0  0  0
  6  8  1  0  0  0  0
  8  9  1  0  0  0  0
  9  5  1  1  0  0  0
  9 20  1  0  0  0  0
 10 11  1  0  0  0  0
 10 16  1  0  0  0  0
 11 12  1  6  0  0  0
 11 13  1  0  0  0  0
 14 13  1  1  0  0  0
 14 15  1  0  0  0  0
 14 20  1  0  0  0  0
 15 16  1  6  0  0  0
 15 18  1  0  0  0  0
 16 17  2  0  0  0  0
 18 19  1  0  0  0  0
 20 19  1  6  0  0  0
M  CHG  1  22  -1
M  END
>  <CHROM.1>
42.38364413,176.48381722,-76.20952460,43.09634185,22.22804713,2.85911338
30.28252615,2.93894850,1.05334623,-0.99801705

>  <Name>
ligand

>  <RI>
416

>  <Rbt.Current_Directory>
/home/itssahil/PROJECTS/Mol_Feturizer/Test_systems_manuscript/rnas/3slm

>  <Rbt.Executable>
rbdock ($Id: //depot/dev/client3/rdock/2013.1/src/exe/rbdock.cxx#4 $)

>  <Rbt.Library>
libRbt.so (2013.1, Build901 2013/11/27)

>  <Rbt.Parameter_File>
/export/apps/rDock/src/rDock_2013.1_src/data/scripts/dock_solv.prm

>  <Rbt.Receptor>
prm/pocket_docking_6.prm

>  <SCORE>
-16.4865

>  <SCORE.INTER>
-12.244

>  <SCORE.INTER.CONST>
1

>  <SCORE.INTER.POLAR>
0

>  <SCORE.INTER.ROT>
4

>  <SCORE.INTER.SOLV>
22.4882

>  <SCORE.INTER.VDW>
-21.9254

>  <SCORE.INTER.norm>
-0.532348

>  <SCORE.INTRA>
-4.2425

>  <SCORE.INTRA.DIHEDRAL>
-5.75885

>  <SCORE.INTRA.DIHEDRAL.0>
8.62657

>  <SCORE.INTRA.POLAR>
0

>  <SCORE.INTRA.POLAR.0>
0

>  <SCORE.INTRA.REPUL>
0

>  <SCORE.INTRA.REPUL.0>
0

>  <SCORE.INTRA.SOLV>
1.63141

>  <SCORE.INTRA.SOLV.lig_0>
-66.3641

>  <SCORE.INTRA.VDW>
-2.17877

>  <SCORE.INTRA.VDW.0>
0.452231

>  <SCORE.INTRA.norm>
-0.184456

>  <SCORE.RESTR>
0

>  <SCORE.RESTR.CAVITY>
0

>  <SCORE.RESTR.norm>
0

>  <SCORE.SYSTEM>
0

>  <SCORE.SYSTEM.CONST>
0

>  <SCORE.SYSTEM.DIHEDRAL>
0

>  <SCORE.SYSTEM.SOLV>
0

>  <SCORE.SYSTEM.norm>
0

>  <SCORE.heavy>
23

>  <SCORE.norm>
-0.716804

>  <RMSD>
6.493

$$$$
ligand
 OpenBabel02271912143D
libRbt.so/2013.1/901 2013/11/27
 23 25  0  0  0  0  0  0  0  0999 V2000
   25.7931   -1.2245   28.5843 P   0  0  1  0  0  0  0  0  0  0  0  0
   24.1918   -1.1318   30.6538 C   0  0  0  0  0  0  0  0  0  0  0  0
   25.3792   -0.6594   30.0326 O   0  0  0  0  0  0  0  0  0  0  0  0
   24.0485   -0.3984   31.9683 C   0  0  1  0  0  0  0  0  0  0  0  0
   24.3335    0.9942   31.8400 O   0  0  0  0  0  0  0  0  0  0  0  0
   22.6188   -0.5375   32.4635 C   0  0  1  0  0  0  0  0  0  0  0  0
   22.6603   -0.9085   33.8523 O   0  0  0  0  0  0  0  0  0  0  0  0
   21.9863    0.8325   32.2537 C   0  0  0  0  0  0  0  0  0  0  0  0
   23.1757    1.7829   32.1443 C   0  0  2  0  0  0  0  0  0  0  0  0
   20.7256    5.9448   30.3532 N   0  0  0  0  0  0  0  0  0  0  0  0
   20.5846    5.3535   31.5508 C   0  0  2  0  0  0  0  0  0  0  0  0
   19.7058    5.8977   32.4244 N   0  0  0  0  0  0  0  0  0  0  0  0
   21.3063    4.2540   31.8764 N   0  0  0  0  0  0  0  0  0  0  0  0
   22.1797    3.7413   30.9853 C   0  0  2  0  0  0  0  0  0  0  0  0
   22.3346    4.3350   29.7513 C   0  0  1  0  0  0  0  0  0  0  0  0
   21.5928    5.4603   29.4459 C   0  0  0  0  0  0  0  0  0  0  0  0
   21.7233    6.0175   28.3346 O   0  0  0  0  0  0  0  0  0  0  0  0
   23.2506    3.6290   29.0595 N   0  0  0  0  0  0  0  0  0  0  0  0
   23.6610    2.6221   29.8508 C   0  0  0  0  0  0  0  0  0  0  0  0
   22.9975    2.6950   31.0097 N   0  0  1  0  0  0  0  0  0  0  0  0
   24.5261   -1.3213   27.7699 O   0  0  0  0  0  0  0  0  0  0  0  0
   26.7896   -0.2115   28.0694 O   0  5  0  0  0  0  0  0  0  0  0  0
   26.3999   -2.5619   28.9122 O   0  0  0  0  0  0  0  0  0  0  0  0
  1  3  1  1  0  0  0
  1 21  1  0  0  0  0
  1 22  1  0  0  0  0
  1 23  2  0  0  0  0
  2  3  1  0  0  0  0
  4  2  1  6  0  0  0
  4  5  1  0  0  0  0
  4  6  1  0  0  0  0
  6  7  1  1  0  0  0
  6  8  1  0  0  0  0
  8  9  1  0  0  0  0
  9  5  1  6  0  0  0
  9 20  1  0  0  0  0
 10 11  1  0  0  0  0
 10 16  1  0  0  0  0
 11 12  1  1  0  0  0
 11 13  1  0  0  0  0
 14 13  1  6  0  0  0
 14 15  1  0  0  0  0
 14 20  1  0  0  0  0
 15 16  1  1  0  0  0
 15 18  1  0  0  0  0
 16 17  2  0  0  0  0
 18 19  1  0  0  0  0
 20 19  1  1  0  0  0
M  CHG  1  22  -1
M  END
>  <CHROM.1>
40.76316291,43.39049873,-178.36584586,-168.13151585,23.34954633,1.65477578
30.43715664,-0.48025960,0.91198612,-0.78550776

>  <Name>
ligand

>  <RI>
0

>  <Rbt.Current_Directory>
/home/itssahil/PROJECTS/Mol_Feturizer/Test_systems_manuscript/rnas/3slm

>  <Rbt.Executable>
rbdock ($Id: //depot/dev/client3/rdock/2013.1/src/exe/rbdock.cxx#4 $)

>  <Rbt.Library>
libRbt.so (2013.1, Build901 2013/11/27)

>  <Rbt.Parameter_File>
/export/apps/rDock/src/rDock_2013.1_src/data/scripts/dock_solv.prm

>  <Rbt.Receptor>
prm/blind_docking_60.prm

>  <SCORE>
-19.1998

>  <SCORE.INTER>
-14.2044

>  <SCORE.INTER.CONST>
1

>  <SCORE.INTER.POLAR>
0

>  <SCORE.INTER.ROT>
4

>  <SCORE.INTER.SOLV>
18.6841

>  <SCORE.INTER.VDW>
-21.9643

>  <SCORE.INTER.norm>
-0.617581

>  <SCORE.INTRA>
-4.99547

>  <SCORE.INTRA.DIHEDRAL>
-5.91556

>  <SCORE.INTRA.DIHEDRAL.0>
8.62657

>  <SCORE.INTRA.POLAR>
0

>  <SCORE.INTRA.POLAR.0>
0

>  <SCORE.INTRA.REPUL>
0

>  <SCORE.INTRA.REPUL.0>
0

>  <SCORE.INTRA.SOLV>
-0.754283

>  <SCORE.INTRA.SOLV.lig_0>
-66.3641

>  <SCORE.INTRA.VDW>
-1.66055

>  <SCORE.INTRA.VDW.0>
0.452231

>  <SCORE.INTRA.norm>
-0.217194

>  <SCORE.RESTR>
0

>  <SCORE.RESTR.CAVITY>
0

>  <SCORE.RESTR.norm>
0

>  <SCORE.SYSTEM>
0

>  <SCORE.SYSTEM.CONST>
0

>  <SCORE.SYSTEM.DIHEDRAL>
0

>  <SCORE.SYSTEM.SOLV>
0

>  <SCORE.SYSTEM.norm>
0

>  <SCORE.heavy>
23

>  <SCORE.norm>
-0.834775

>  <RMSD>
6.500

$$$$
ligand
 OpenBabel02271912143D
libRbt.so/2013.1/901 2013/11/27
 23 25  0  0  0  0  0  0  0  0999 V2000
   19.3840    1.8175   26.6925 P   0  0  1  0  0  0  0  0  0  0  0  0
   21.6264    2.1657   27.9985 C   0  0  0  0  0  0  0  0  0  0  0  0
   20.6419    1.2575   27.5246 O   0  0  0  0  0  0  0  0  0  0  0  0
   21.0837    2.8013   29.2586 C   0  0  1  0  0  0  0  0  0  0  0  0
   20.8052    1.8344   30.2707 O   0  0  0  0  0  0  0  0  0  0  0  0
   22.1146    3.7708   29.8117 C   0  0  1  0  0  0  0  0  0  0  0  0
   21.4447    5.0030   30.1298 O   0  0  0  0  0  0  0  0  0  0  0  0
   22.6823    3.0894   31.0505 C   0  0  0  0  0  0  0  0  0  0  0  0
   21.6284    2.0505   31.4243 C   0  0  2  0  0  0  0  0  0  0  0  0
   24.8950   -1.5728   29.7710 N   0  0  0  0  0  0  0  0  0  0  0  0
   24.5278   -0.4425   29.1454 C   0  0  2  0  0  0  0  0  0  0  0  0
   25.0715   -0.1865   27.9327 N   0  0  0  0  0  0  0  0  0  0  0  0
   23.6493    0.4175   29.7150 N   0  0  0  0  0  0  0  0  0  0  0  0
   23.1318    0.1362   30.9286 C   0  0  2  0  0  0  0  0  0  0  0  0
   23.4968   -1.0205   31.5828 C   0  0  1  0  0  0  0  0  0  0  0  0
   24.4007   -1.8778   30.9845 C   0  0  0  0  0  0  0  0  0  0  0  0
   24.7496   -2.9288   31.5641 O   0  0  0  0  0  0  0  0  0  0  0  0
   22.8376   -1.0624   32.7575 N   0  0  0  0  0  0  0  0  0  0  0  0
   22.0847    0.0492   32.8338 C   0  0  0  0  0  0  0  0  0  0  0  0
   22.2636    0.7612   31.7158 N   0  0  1  0  0  0  0  0  0  0  0  0
   18.7828    2.9396   27.5034 O   0  0  0  0  0  0  0  0  0  0  0  0
   19.9834    2.2520   25.3748 O   0  5  0  0  0  0  0  0  0  0  0  0
   18.4933    0.6093   26.5863 O   0  0  0  0  0  0  0  0  0  0  0  0
  1  3  1  1  0  0  0
  1 21  1  0  0  0  0
  1 22  1  0  0  0  0
  1 23  2  0  0  0  0
  2  3  1  0  0  0  0
  4  2  1  6  0  0  0
  4  5  1  0  0  0  0
  4  6  1  0  0  0  0
  6  7  1  1  0  0  0
  6  8  1  0  0  0  0
  8  9  1  0  0  0  0
  9  5  1  6  0  0  0
  9 20  1  0  0  0  0
 10 11  1  0  0  0  0
 10 16  1  0  0  0  0
 11 12  1  1  0  0  0
 11 13  1  0  0  0  0
 14 13  1  6  0  0  0
 14 15  1  0  0  0  0
 14 20  1  0  0  0  0
 15 16  1  1  0  0  0
 15 18  1  0  0  0  0
 16 17  2  0  0  0  0
 18 19  1  0  0  0  0
 20 19  1  1  0  0  0
M  CHG  1  22  -1
M  END
>  <CHROM.1>
-51.16580838,59.87501058,80.13345844,64.90048776,21.93042114,1.04893855,29.43021984
-2.96559143,-0.88022231,0.93356454

>  <Name>
ligand

>  <RI>
416

>  <Rbt.Current_Directory>
/home/itssahil/PROJECTS/Mol_Feturizer/Test_systems_manuscript/rnas/3slm

>  <Rbt.Executable>
rbdock ($Id: //depot/dev/client3/rdock/2013.1/src/exe/rbdock.cxx#4 $)

>  <Rbt.Library>
libRbt.so (2013.1, Build901 2013/11/27)

>  <Rbt.Parameter_File>
/export/apps/rDock/src/rDock_2013.1_src/data/scripts/dock_solv.prm

>  <Rbt.Receptor>
prm/pocket_docking_4.prm

>  <SCORE>
-18.3507

>  <SCORE.INTER>
-13.4396

>  <SCORE.INTER.CONST>
1

>  <SCORE.INTER.POLAR>
0

>  <SCORE.INTER.ROT>
4

>  <SCORE.INTER.SOLV>
19.9035

>  <SCORE.INTER.VDW>
-21.8609

>  <SCORE.INTER.norm>
-0.584331

>  <SCORE.INTRA>
-4.91112

>  <SCORE.INTRA.DIHEDRAL>
-5.44996

>  <SCORE.INTRA.DIHEDRAL.0>
8.62657

>  <SCORE.INTRA.POLAR>
0

>  <SCORE.INTRA.POLAR.0>
0

>  <SCORE.INTRA.REPUL>
0

>  <SCORE.INTRA.REPUL.0>
0

>  <SCORE.INTRA.SOLV>
0.779375

>  <SCORE.INTRA.SOLV.lig_0>
-66.3641

>  <SCORE.INTRA.VDW>
-2.57583

>  <SCORE.INTRA.VDW.0>
0.452231

>  <SCORE.INTRA.norm>
-0.213527

>  <SCORE.RESTR>
0

>  <SCORE.RESTR.CAVITY>
0

>  <SCORE.RESTR.norm>
0

>  <SCORE.SYSTEM>
0

>  <SCORE.SYSTEM.CONST>
0

>  <SCORE.SYSTEM.DIHEDRAL>
0

>  <SCORE.SYSTEM.SOLV>
0

>  <SCORE.SYSTEM.norm>
0

>  <SCORE.heavy>
23

>  <SCORE.norm>
-0.797858

>  <RMSD>
6.534

$$$$
ligand
 OpenBabel02271912143D
libRbt.so/2013.1/901 2013/11/27
 23 25  0  0  0  0  0  0  0  0999 V2000
   19.9120    4.8414   31.9521 P   0  0  1  0  0  0  0  0  0  0  0  0
   21.7619    3.8269   30.4016 C   0  0  0  0  0  0  0  0  0  0  0  0
   20.7828    4.8374   30.5993 O   0  0  0  0  0  0  0  0  0  0  0  0
   22.2710    3.9641   28.9844 C   0  0  1  0  0  0  0  0  0  0  0  0
   23.4432    3.1824   28.7570 O   0  0  0  0  0  0  0  0  0  0  0  0
   21.1981    3.4858   28.0208 C   0  0  1  0  0  0  0  0  0  0  0  0
   21.0659    4.4652   26.9761 O   0  0  0  0  0  0  0  0  0  0  0  0
   21.7001    2.1476   27.4932 C   0  0  0  0  0  0  0  0  0  0  0  0
   23.2017    2.1756   27.7653 C   0  0  2  0  0  0  0  0  0  0  0  0
   23.4853   -0.6489   32.0634 N   0  0  0  0  0  0  0  0  0  0  0  0
   22.9869    0.5898   31.9191 C   0  0  2  0  0  0  0  0  0  0  0  0
   22.4785    1.1979   33.0161 N   0  0  0  0  0  0  0  0  0  0  0  0
   22.9847    1.2058   30.7123 N   0  0  0  0  0  0  0  0  0  0  0  0
   23.4920    0.5685   29.6371 C   0  0  2  0  0  0  0  0  0  0  0  0
   24.0090   -0.7021   29.7688 C   0  0  1  0  0  0  0  0  0  0  0  0
   23.9927   -1.3123   31.0086 C   0  0  0  0  0  0  0  0  0  0  0  0
   24.4509   -2.4669   31.1479 O   0  0  0  0  0  0  0  0  0  0  0  0
   24.4518   -1.1008   28.5599 N   0  0  0  0  0  0  0  0  0  0  0  0
   24.2079   -0.1009   27.6945 C   0  0  0  0  0  0  0  0  0  0  0  0
   23.6362    0.9079   28.3611 N   0  0  1  0  0  0  0  0  0  0  0  0
   18.9994    3.6406   31.8929 O   0  0  0  0  0  0  0  0  0  0  0  0
   20.9472    4.7843   33.0518 O   0  5  0  0  0  0  0  0  0  0  0  0
   19.1821    6.1548   31.8718 O   0  0  0  0  0  0  0  0  0  0  0  0
  1  3  1  6  0  0  0
  1 21  1  0  0  0  0
  1 22  1  0  0  0  0
  1 23  2  0  0  0  0
  2  3  1  0  0  0  0
  4  2  1  1  0  0  0
  4  5  1  0  0  0  0
  4  6  1  0  0  0  0
  6  7  1  6  0  0  0
  6  8  1  0  0  0  0
  8  9  1  0  0  0  0
  9  5  1  1  0  0  0
  9 20  1  0  0  0  0
 10 11  1  0  0  0  0
 10 16  1  0  0  0  0
 11 12  1  6  0  0  0
 11 13  1  0  0  0  0
 14 13  1  1  0  0  0
 14 15  1  0  0  0  0
 14 20  1  0  0  0  0
 15 16  1  6  0  0  0
 15 18  1  0  0  0  0
 16 17  2  0  0  0  0
 18 19  1  0  0  0  0
 20 19  1  6  0  0  0
M  CHG  1  22  -1
M  END
>  <CHROM.1>
-69.00340746,168.14645873,172.23686471,36.90869485,22.16866931,2.24303110
30.20558741,3.04470020,0.97367309,-1.20518468

>  <Name>
ligand

>  <RI>
416

>  <Rbt.Current_Directory>
/home/itssahil/PROJECTS/Mol_Feturizer/Test_systems_manuscript/rnas/3slm

>  <Rbt.Executable>
rbdock ($Id: //depot/dev/client3/rdock/2013.1/src/exe/rbdock.cxx#4 $)

>  <Rbt.Library>
libRbt.so (2013.1, Build901 2013/11/27)

>  <Rbt.Parameter_File>
/export/apps/rDock/src/rDock_2013.1_src/data/scripts/dock_solv.prm

>  <Rbt.Receptor>
prm/pocket_docking_6.prm

>  <SCORE>
-16.2501

>  <SCORE.INTER>
-11.367

>  <SCORE.INTER.CONST>
1

>  <SCORE.INTER.POLAR>
0

>  <SCORE.INTER.ROT>
4

>  <SCORE.INTER.SOLV>
23.4761

>  <SCORE.INTER.VDW>
-21.67

>  <SCORE.INTER.norm>
-0.494216

>  <SCORE.INTRA>
-4.88316

>  <SCORE.INTRA.DIHEDRAL>
-6.5813

>  <SCORE.INTRA.DIHEDRAL.0>
8.62657

>  <SCORE.INTRA.POLAR>
0

>  <SCORE.INTRA.POLAR.0>
0

>  <SCORE.INTRA.REPUL>
0

>  <SCORE.INTRA.REPUL.0>
0

>  <SCORE.INTRA.SOLV>
1.56079

>  <SCORE.INTRA.SOLV.lig_0>
-66.3641

>  <SCORE.INTRA.VDW>
-2.3729

>  <SCORE.INTRA.VDW.0>
0.452231

>  <SCORE.INTRA.norm>
-0.212311

>  <SCORE.RESTR>
0

>  <SCORE.RESTR.CAVITY>
0

>  <SCORE.RESTR.norm>
0

>  <SCORE.SYSTEM>
0

>  <SCORE.SYSTEM.CONST>
0

>  <SCORE.SYSTEM.DIHEDRAL>
0

>  <SCORE.SYSTEM.SOLV>
0

>  <SCORE.SYSTEM.norm>
0

>  <SCORE.heavy>
23

>  <SCORE.norm>
-0.706527

>  <RMSD>
6.539

$$$$
ligand
 OpenBabel02271912143D
libRbt.so/2013.1/901 2013/11/27
 23 25  0  0  0  0  0  0  0  0999 V2000
   20.2085    5.1622   31.9420 P   0  0  1  0  0  0  0  0  0  0  0  0
   20.3476    2.7710   30.8844 C   0  0  0  0  0  0  0  0  0  0  0  0
   20.8191    3.6753   31.8738 O   0  0  0  0  0  0  0  0  0  0  0  0
   20.7654    3.3182   29.5381 C   0  0  1  0  0  0  0  0  0  0  0  0
   22.1300    3.0256   29.2397 O   0  0  0  0  0  0  0  0  0  0  0  0
   19.9062    2.6876   28.4553 C   0  0  1  0  0  0  0  0  0  0  0  0
   19.4403    3.7350   27.5869 O   0  0  0  0  0  0  0  0  0  0  0  0
   20.8242    1.7090   27.7336 C   0  0  0  0  0  0  0  0  0  0  0  0
   22.2313    2.1879   28.0806 C   0  0  2  0  0  0  0  0  0  0  0  0
   23.4634   -1.1223   31.8298 N   0  0  0  0  0  0  0  0  0  0  0  0
   22.5701   -0.1203   31.8717 C   0  0  2  0  0  0  0  0  0  0  0  0
   21.8829    0.0655   33.0227 N   0  0  0  0  0  0  0  0  0  0  0  0
   22.3577    0.6718   30.7932 N   0  0  0  0  0  0  0  0  0  0  0  0
   23.0540    0.4546   29.6584 C   0  0  2  0  0  0  0  0  0  0  0  0
   23.9758   -0.5682   29.5998 C   0  0  1  0  0  0  0  0  0  0  0  0
   24.1687   -1.3673   30.7107 C   0  0  0  0  0  0  0  0  0  0  0  0
   24.9954   -2.3042   30.6759 O   0  0  0  0  0  0  0  0  0  0  0  0
   24.5297   -0.5621   28.3713 N   0  0  0  0  0  0  0  0  0  0  0  0
   23.9580    0.4393   27.6794 C   0  0  0  0  0  0  0  0  0  0  0  0
   23.0741    1.0537   28.4732 N   0  0  1  0  0  0  0  0  0  0  0  0
   20.8265    5.9454   30.8094 O   0  0  0  0  0  0  0  0  0  0  0  0
   18.7177    4.9499   31.8128 O   0  5  0  0  0  0  0  0  0  0  0  0
   20.6396    5.6346   33.3041 O   0  0  0  0  0  0  0  0  0  0  0  0
  1  3  1  6  0  0  0
  1 21  1  0  0  0  0
  1 22  1  0  0  0  0
  1 23  2  0  0  0  0
  2  3  1  0  0  0  0
  4  2  1  1  0  0  0
  4  5  1  0  0  0  0
  4  6  1  0  0  0  0
  6  7  1  6  0  0  0
  6  8  1  0  0  0  0
  8  9  1  0  0  0  0
  9  5  1  1  0  0  0
  9 20  1  0  0  0  0
 10 11  1  0  0  0  0
 10 16  1  0  0  0  0
 11 12  1  6  0  0  0
 11 13  1  0  0  0  0
 14 13  1  1  0  0  0
 14 15  1  0  0  0  0
 14 20  1  0  0  0  0
 15 16  1  6  0  0  0
 15 18  1  0  0  0  0
 16 17  2  0  0  0  0
 18 19  1  0  0  0  0
 20 19  1  6  0  0  0
M  CHG  1  22  -1
M  END
>  <CHROM.1>
-76.09630210,80.01900102,65.98193137,37.85056376,21.79059247,2.09166669,30.30458042
-2.91963774,0.97187890,-1.60468482

>  <Name>
ligand

>  <RI>
0

>  <Rbt.Current_Directory>
/home/itssahil/PROJECTS/Mol_Feturizer/Test_systems_manuscript/rnas/3slm

>  <Rbt.Executable>
rbdock ($Id: //depot/dev/client3/rdock/2013.1/src/exe/rbdock.cxx#4 $)

>  <Rbt.Library>
libRbt.so (2013.1, Build901 2013/11/27)

>  <Rbt.Parameter_File>
/export/apps/rDock/src/rDock_2013.1_src/data/scripts/dock_solv.prm

>  <Rbt.Receptor>
prm/pocket_docking_8.prm

>  <SCORE>
-15.8144

>  <SCORE.INTER>
-11.8452

>  <SCORE.INTER.CONST>
1

>  <SCORE.INTER.POLAR>
0

>  <SCORE.INTER.ROT>
4

>  <SCORE.INTER.SOLV>
23.8943

>  <SCORE.INTER.VDW>
-22.1283

>  <SCORE.INTER.norm>
-0.515011

>  <SCORE.INTRA>
-3.96912

>  <SCORE.INTRA.DIHEDRAL>
-5.60295

>  <SCORE.INTRA.DIHEDRAL.0>
8.62657

>  <SCORE.INTRA.POLAR>
0

>  <SCORE.INTRA.POLAR.0>
0

>  <SCORE.INTRA.REPUL>
0

>  <SCORE.INTRA.REPUL.0>
0

>  <SCORE.INTRA.SOLV>
2.36773

>  <SCORE.INTRA.SOLV.lig_0>
-66.3641

>  <SCORE.INTRA.VDW>
-2.35151

>  <SCORE.INTRA.VDW.0>
0.452231

>  <SCORE.INTRA.norm>
-0.172571

>  <SCORE.RESTR>
0

>  <SCORE.RESTR.CAVITY>
0

>  <SCORE.RESTR.norm>
0

>  <SCORE.SYSTEM>
0

>  <SCORE.SYSTEM.CONST>
0

>  <SCORE.SYSTEM.DIHEDRAL>
0

>  <SCORE.SYSTEM.SOLV>
0

>  <SCORE.SYSTEM.norm>
0

>  <SCORE.heavy>
23

>  <SCORE.norm>
-0.687581

>  <RMSD>
6.541

$$$$
ligand
 OpenBabel02271912143D
libRbt.so/2013.1/901 2013/11/27
 23 25  0  0  0  0  0  0  0  0999 V2000
   19.2723    1.5182   26.9057 P   0  0  1  0  0  0  0  0  0  0  0  0
   20.8594    2.4304   28.7777 C   0  0  0  0  0  0  0  0  0  0  0  0
   19.5288    2.2636   28.3081 O   0  0  0  0  0  0  0  0  0  0  0  0
   20.7770    3.0517   30.1538 C   0  0  1  0  0  0  0  0  0  0  0  0
   20.7376    2.0670   31.1861 O   0  0  0  0  0  0  0  0  0  0  0  0
   22.0035    3.9186   30.3836 C   0  0  1  0  0  0  0  0  0  0  0  0
   21.5656    5.1828   30.9112 O   0  0  0  0  0  0  0  0  0  0  0  0
   22.8599    3.1464   31.3792 C   0  0  0  0  0  0  0  0  0  0  0  0
   21.8856    2.1738   32.0382 C   0  0  2  0  0  0  0  0  0  0  0  0
   24.6571   -1.3983   29.5703 N   0  0  0  0  0  0  0  0  0  0  0  0
   24.2824   -0.1882   29.1243 C   0  0  2  0  0  0  0  0  0  0  0  0
   24.6722    0.1750   27.8802 N   0  0  0  0  0  0  0  0  0  0  0  0
   23.5465    0.6449   29.8990 N   0  0  0  0  0  0  0  0  0  0  0  0
   23.1811    0.2551   31.1377 C   0  0  2  0  0  0  0  0  0  0  0  0
   23.5559   -0.9843   31.6095 C   0  0  1  0  0  0  0  0  0  0  0  0
   24.3131   -1.8127   30.8032 C   0  0  0  0  0  0  0  0  0  0  0  0
   24.6686   -2.9381   31.2148 O   0  0  0  0  0  0  0  0  0  0  0  0
   23.0605   -1.1250   32.8549 N   0  0  0  0  0  0  0  0  0  0  0  0
   22.3983    0.0069   33.1525 C   0  0  0  0  0  0  0  0  0  0  0  0
   22.4698    0.8300   32.1008 N   0  0  1  0  0  0  0  0  0  0  0  0
   19.2459    0.0365   27.1920 O   0  0  0  0  0  0  0  0  0  0  0  0
   17.9551    2.0845   26.4278 O   0  5  0  0  0  0  0  0  0  0  0  0
   20.4547    1.9494   26.0808 O   0  0  0  0  0  0  0  0  0  0  0  0
  1  3  1  1  0  0  0
  1 21  1  0  0  0  0
  1 22  1  0  0  0  0
  1 23  2  0  0  0  0
  2  3  1  0  0  0  0
  4  2  1  6  0  0  0
  4  5  1  0  0  0  0
  4  6  1  0  0  0  0
  6  7  1  1  0  0  0
  6  8  1  0  0  0  0
  8  9  1  0  0  0  0
  9  5  1  6  0  0  0
  9 20  1  0  0  0  0
 10 11  1  0  0  0  0
 10 16  1  0  0  0  0
 11 12  1  1  0  0  0
 11 13  1  0  0  0  0
 14 13  1  6  0  0  0
 14 15  1  0  0  0  0
 14 20  1  0  0  0  0
 15 16  1  1  0  0  0
 15 18  1  0  0  0  0
 16 17  2  0  0  0  0
 18 19  1  0  0  0  0
 20 19  1  1  0  0  0
M  CHG  1  22  -1
M  END
>  <CHROM.1>
84.84070049,91.30495371,-175.38830867,75.64919995,21.84511137,1.08675423
29.71573871,-3.01536438,-0.83651009,0.82008530

>  <Name>
ligand

>  <RI>
416

>  <Rbt.Current_Directory>
/home/itssahil/PROJECTS/Mol_Feturizer/Test_systems_manuscript/rnas/3slm

>  <Rbt.Executable>
rbdock ($Id: //depot/dev/client3/rdock/2013.1/src/exe/rbdock.cxx#4 $)

>  <Rbt.Library>
libRbt.so (2013.1, Build901 2013/11/27)

>  <Rbt.Parameter_File>
/export/apps/rDock/src/rDock_2013.1_src/data/scripts/dock_solv.prm

>  <Rbt.Receptor>
prm/pocket_docking_4.prm

>  <SCORE>
-17.3987

>  <SCORE.INTER>
-13.9168

>  <SCORE.INTER.CONST>
1

>  <SCORE.INTER.POLAR>
0

>  <SCORE.INTER.ROT>
4

>  <SCORE.INTER.SOLV>
22.5329

>  <SCORE.INTER.VDW>
-23.0555

>  <SCORE.INTER.norm>
-0.605077

>  <SCORE.INTRA>
-3.48192

>  <SCORE.INTRA.DIHEDRAL>
-3.54549

>  <SCORE.INTRA.DIHEDRAL.0>
8.62657

>  <SCORE.INTRA.POLAR>
0

>  <SCORE.INTRA.POLAR.0>
0

>  <SCORE.INTRA.REPUL>
0

>  <SCORE.INTRA.REPUL.0>
0

>  <SCORE.INTRA.SOLV>
-0.312813

>  <SCORE.INTRA.SOLV.lig_0>
-66.3641

>  <SCORE.INTRA.VDW>
-1.55277

>  <SCORE.INTRA.VDW.0>
0.452231

>  <SCORE.INTRA.norm>
-0.151388

>  <SCORE.RESTR>
0

>  <SCORE.RESTR.CAVITY>
0

>  <SCORE.RESTR.norm>
0

>  <SCORE.SYSTEM>
0

>  <SCORE.SYSTEM.CONST>
0

>  <SCORE.SYSTEM.DIHEDRAL>
0

>  <SCORE.SYSTEM.SOLV>
0

>  <SCORE.SYSTEM.norm>
0

>  <SCORE.heavy>
23

>  <SCORE.norm>
-0.756465

>  <RMSD>
6.559

$$$$
ligand
 OpenBabel02271912143D
libRbt.so/2013.1/901 2013/11/27
 23 25  0  0  0  0  0  0  0  0999 V2000
   19.1269    2.0780   25.1312 P   0  0  1  0  0  0  0  0  0  0  0  0
   20.7716    3.0830   26.9032 C   0  0  0  0  0  0  0  0  0  0  0  0
   20.6070    2.4419   25.6460 O   0  0  0  0  0  0  0  0  0  0  0  0
   22.2567    3.2527   27.1315 C   0  0  1  0  0  0  0  0  0  0  0  0
   22.5354    4.1153   28.2338 O   0  0  0  0  0  0  0  0  0  0  0  0
   22.8729    1.8971   27.4334 C   0  0  1  0  0  0  0  0  0  0  0  0
   24.0552    1.7533   26.6274 O   0  0  0  0  0  0  0  0  0  0  0  0
   23.1928    1.9244   28.9227 C   0  0  0  0  0  0  0  0  0  0  0  0
   23.2270    3.4097   29.2726 C   0  0  2  0  0  0  0  0  0  0  0  0
   19.1842    5.7947   31.3940 N   0  0  0  0  0  0  0  0  0  0  0  0
   19.5892    5.8332   30.1140 C   0  0  2  0  0  0  0  0  0  0  0  0
   18.8629    6.5725   29.2437 N   0  0  0  0  0  0  0  0  0  0  0  0
   20.6836    5.1462   29.7065 N   0  0  0  0  0  0  0  0  0  0  0  0
   21.3809    4.4124   30.5982 C   0  0  2  0  0  0  0  0  0  0  0  0
   20.9796    4.3640   31.9157 C   0  0  1  0  0  0  0  0  0  0  0  0
   19.8555    5.0671   32.3051 C   0  0  0  0  0  0  0  0  0  0  0  0
   19.4712    5.0312   33.4940 O   0  0  0  0  0  0  0  0  0  0  0  0
   21.8431    3.5767   32.5872 N   0  0  0  0  0  0  0  0  0  0  0  0
   22.7571    3.1398   31.7030 C   0  0  0  0  0  0  0  0  0  0  0  0
   22.4723    3.6612   30.5047 N   0  0  1  0  0  0  0  0  0  0  0  0
   18.3508    3.3711   25.0698 O   0  0  0  0  0  0  0  0  0  0  0  0
   19.3587    1.4255   23.7878 O   0  5  0  0  0  0  0  0  0  0  0  0
   18.6320    1.1304   26.1901 O   0  0  0  0  0  0  0  0  0  0  0  0
  1  3  1  1  0  0  0
  1 21  1  0  0  0  0
  1 22  1  0  0  0  0
  1 23  2  0  0  0  0
  2  3  1  0  0  0  0
  4  2  1  1  0  0  0
  4  5  1  0  0  0  0
  4  6  1  0  0  0  0
  6  7  1  6  0  0  0
  6  8  1  0  0  0  0
  8  9  1  0  0  0  0
  9  5  1  6  0  0  0
  9 20  1  0  0  0  0
 10 11  1  0  0  0  0
 10 16  1  0  0  0  0
 11 12  1  6  0  0  0
 11 13  1  0  0  0  0
 14 13  1  1  0  0  0
 14 15  1  0  0  0  0
 14 20  1  0  0  0  0
 15 16  1  6  0  0  0
 15 18  1  0  0  0  0
 16 17  2  0  0  0  0
 18 19  1  0  0  0  0
 20 19  1  6  0  0  0
M  CHG  1  22  -1
M  END
>  <CHROM.1>
58.52138423,168.50062586,178.19447952,-0.74598646,20.83189061,3.45433667
28.53907919,1.69328980,0.37649506,-2.00835516

>  <Name>
ligand

>  <RI>
416

>  <Rbt.Current_Directory>
/home/itssahil/PROJECTS/Mol_Feturizer/Test_systems_manuscript/rnas/3slm

>  <Rbt.Executable>
rbdock ($Id: //depot/dev/client3/rdock/2013.1/src/exe/rbdock.cxx#4 $)

>  <Rbt.Library>
libRbt.so (2013.1, Build901 2013/11/27)

>  <Rbt.Parameter_File>
/export/apps/rDock/src/rDock_2013.1_src/data/scripts/dock_solv.prm

>  <Rbt.Receptor>
prm/pocket_docking_5.prm

>  <SCORE>
-20.2231

>  <SCORE.INTER>
-15.6063

>  <SCORE.INTER.CONST>
1

>  <SCORE.INTER.POLAR>
0

>  <SCORE.INTER.ROT>
4

>  <SCORE.INTER.SOLV>
25.1585

>  <SCORE.INTER.VDW>
-25.057

>  <SCORE.INTER.norm>
-0.678535

>  <SCORE.INTRA>
-5.01156

>  <SCORE.INTRA.DIHEDRAL>
-6.94037

>  <SCORE.INTRA.DIHEDRAL.0>
8.62657

>  <SCORE.INTRA.POLAR>
0

>  <SCORE.INTRA.POLAR.0>
0

>  <SCORE.INTRA.REPUL>
0

>  <SCORE.INTRA.REPUL.0>
0

>  <SCORE.INTRA.SOLV>
-0.269042

>  <SCORE.INTRA.SOLV.lig_0>
-66.3641

>  <SCORE.INTRA.VDW>
-1.40685

>  <SCORE.INTRA.VDW.0>
0.452231

>  <SCORE.INTRA.norm>
-0.217894

>  <SCORE.RESTR>
0.394753

>  <SCORE.RESTR.CAVITY>
0.394753

>  <SCORE.RESTR.norm>
0.0171632

>  <SCORE.SYSTEM>
0

>  <SCORE.SYSTEM.CONST>
0

>  <SCORE.SYSTEM.DIHEDRAL>
0

>  <SCORE.SYSTEM.SOLV>
0

>  <SCORE.SYSTEM.norm>
0

>  <SCORE.heavy>
23

>  <SCORE.norm>
-0.879265

>  <RMSD>
6.564

$$$$
ligand
 OpenBabel02271912143D
libRbt.so/2013.1/901 2013/11/27
 23 25  0  0  0  0  0  0  0  0999 V2000
   26.3436   -1.5412   29.1600 P   0  0  1  0  0  0  0  0  0  0  0  0
   24.3269   -1.1149   30.7745 C   0  0  0  0  0  0  0  0  0  0  0  0
   25.7135   -0.9452   30.5150 O   0  0  0  0  0  0  0  0  0  0  0  0
   24.0239   -0.4149   32.0802 C   0  0  1  0  0  0  0  0  0  0  0  0
   24.2357    0.9939   31.9959 O   0  0  0  0  0  0  0  0  0  0  0  0
   22.5668   -0.6460   32.4433 C   0  0  1  0  0  0  0  0  0  0  0  0
   22.5067   -1.0390   33.8253 O   0  0  0  0  0  0  0  0  0  0  0  0
   21.8748    0.6885   32.1951 C   0  0  0  0  0  0  0  0  0  0  0  0
   23.0105    1.7083   32.2051 C   0  0  2  0  0  0  0  0  0  0  0  0
   20.7962    6.0043   30.4236 N   0  0  0  0  0  0  0  0  0  0  0  0
   20.6272    5.4225   31.6223 C   0  0  2  0  0  0  0  0  0  0  0  0
   19.7856    6.0168   32.4998 N   0  0  0  0  0  0  0  0  0  0  0  0
   21.2857    4.2832   31.9449 N   0  0  0  0  0  0  0  0  0  0  0  0
   22.1236    3.7207   31.0498 C   0  0  2  0  0  0  0  0  0  0  0  0
   22.3065    4.3041   29.8148 C   0  0  1  0  0  0  0  0  0  0  0  0
   21.6295    5.4703   29.5124 C   0  0  0  0  0  0  0  0  0  0  0  0
   21.7866    6.0187   28.4002 O   0  0  0  0  0  0  0  0  0  0  0  0
   23.1769    3.5461   29.1189 N   0  0  0  0  0  0  0  0  0  0  0  0
   23.5322    2.5174   29.9087 C   0  0  0  0  0  0  0  0  0  0  0  0
   22.8797    2.6288   31.0709 N   0  0  1  0  0  0  0  0  0  0  0  0
   26.0264   -3.0167   29.1376 O   0  0  0  0  0  0  0  0  0  0  0  0
   25.6741   -0.7427   28.0652 O   0  5  0  0  0  0  0  0  0  0  0  0
   27.8103   -1.2446   29.3188 O   0  0  0  0  0  0  0  0  0  0  0  0
  1  3  1  1  0  0  0
  1 21  1  0  0  0  0
  1 22  1  0  0  0  0
  1 23  2  0  0  0  0
  2  3  1  0  0  0  0
  4  2  1  6  0  0  0
  4  5  1  0  0  0  0
  4  6  1  0  0  0  0
  6  7  1  1  0  0  0
  6  8  1  0  0  0  0
  8  9  1  0  0  0  0
  9  5  1  6  0  0  0
  9 20  1  0  0  0  0
 10 11  1  0  0  0  0
 10 16  1  0  0  0  0
 11 12  1  1  0  0  0
 11 13  1  0  0  0  0
 14 13  1  6  0  0  0
 14 15  1  0  0  0  0
 14 20  1  0  0  0  0
 15 16  1  1  0  0  0
 15 18  1  0  0  0  0
 16 17  2  0  0  0  0
 18 19  1  0  0  0  0
 20 19  1  1  0  0  0
M  CHG  1  22  -1
M  END
>  <CHROM.1>
-56.23397573,64.15535000,-178.02962808,-159.47841449,23.47545428,1.55044458
30.63828275,-0.57502371,0.82803232,-0.71068389

>  <Name>
ligand

>  <RI>
0

>  <Rbt.Current_Directory>
/home/itssahil/PROJECTS/Mol_Feturizer/Test_systems_manuscript/rnas/3slm

>  <Rbt.Executable>
rbdock ($Id: //depot/dev/client3/rdock/2013.1/src/exe/rbdock.cxx#4 $)

>  <Rbt.Library>
libRbt.so (2013.1, Build901 2013/11/27)

>  <Rbt.Parameter_File>
/export/apps/rDock/src/rDock_2013.1_src/data/scripts/dock_solv.prm

>  <Rbt.Receptor>
prm/pocket_docking_7.prm

>  <SCORE>
-19.1832

>  <SCORE.INTER>
-13.3201

>  <SCORE.INTER.CONST>
1

>  <SCORE.INTER.POLAR>
0

>  <SCORE.INTER.ROT>
4

>  <SCORE.INTER.SOLV>
15.9547

>  <SCORE.INTER.VDW>
-20.4649

>  <SCORE.INTER.norm>
-0.579134

>  <SCORE.INTRA>
-5.86311

>  <SCORE.INTRA.DIHEDRAL>
-7.26278

>  <SCORE.INTRA.DIHEDRAL.0>
8.62657

>  <SCORE.INTRA.POLAR>
0

>  <SCORE.INTRA.POLAR.0>
0

>  <SCORE.INTRA.REPUL>
0

>  <SCORE.INTRA.REPUL.0>
0

>  <SCORE.INTRA.SOLV>
-0.71035

>  <SCORE.INTRA.SOLV.lig_0>
-66.3641

>  <SCORE.INTRA.VDW>
-1.87654

>  <SCORE.INTRA.VDW.0>
0.452231

>  <SCORE.INTRA.norm>
-0.254918

>  <SCORE.RESTR>
0

>  <SCORE.RESTR.CAVITY>
0

>  <SCORE.RESTR.norm>
0

>  <SCORE.SYSTEM>
0

>  <SCORE.SYSTEM.CONST>
0

>  <SCORE.SYSTEM.DIHEDRAL>
0

>  <SCORE.SYSTEM.SOLV>
0

>  <SCORE.SYSTEM.norm>
0

>  <SCORE.heavy>
23

>  <SCORE.norm>
-0.834051

>  <RMSD>
6.596

$$$$
ligand
 OpenBabel02271912143D
libRbt.so/2013.1/901 2013/11/27
 23 25  0  0  0  0  0  0  0  0999 V2000
   18.8820    2.0824   26.3711 P   0  0  1  0  0  0  0  0  0  0  0  0
   21.1809    1.7836   27.5880 C   0  0  0  0  0  0  0  0  0  0  0  0
   20.4868    2.1859   26.4153 O   0  0  0  0  0  0  0  0  0  0  0  0
   20.8059    2.7511   28.6878 C   0  0  1  0  0  0  0  0  0  0  0  0
   20.6872    2.1043   29.9545 O   0  0  0  0  0  0  0  0  0  0  0  0
   21.8855    3.8136   28.8067 C   0  0  1  0  0  0  0  0  0  0  0  0
   21.2438    5.0993   28.8639 O   0  0  0  0  0  0  0  0  0  0  0  0
   22.6310    3.4860   30.0944 C   0  0  0  0  0  0  0  0  0  0  0  0
   21.6577    2.6112   30.8800 C   0  0  2  0  0  0  0  0  0  0  0  0
   25.0844   -1.1262   29.9737 N   0  0  0  0  0  0  0  0  0  0  0  0
   24.6670   -0.1653   29.1334 C   0  0  2  0  0  0  0  0  0  0  0  0
   25.1988   -0.1394   27.8892 N   0  0  0  0  0  0  0  0  0  0  0  0
   23.7504    0.7535   29.5228 N   0  0  0  0  0  0  0  0  0  0  0  0
   23.2459    0.7042   30.7729 C   0  0  2  0  0  0  0  0  0  0  0  0
   23.6624   -0.2768   31.6467 C   0  0  1  0  0  0  0  0  0  0  0  0
   24.6041   -1.1977   31.2284 C   0  0  0  0  0  0  0  0  0  0  0  0
   24.9998   -2.0913   32.0077 O   0  0  0  0  0  0  0  0  0  0  0  0
   23.0055   -0.1062   32.8110 N   0  0  0  0  0  0  0  0  0  0  0  0
   22.2033    0.9631   32.6650 C   0  0  0  0  0  0  0  0  0  0  0  0
   22.3502    1.4382   31.4234 N   0  0  1  0  0  0  0  0  0  0  0  0
   18.5099    0.7430   26.9591 O   0  0  0  0  0  0  0  0  0  0  0  0
   18.4179    3.2702   27.1823 O   0  5  0  0  0  0  0  0  0  0  0  0
   18.5836    2.1964   24.9006 O   0  0  0  0  0  0  0  0  0  0  0  0
  1  3  1  1  0  0  0
  1 21  1  0  0  0  0
  1 22  1  0  0  0  0
  1 23  2  0  0  0  0
  2  3  1  0  0  0  0
  4  2  1  6  0  0  0
  4  5  1  0  0  0  0
  4  6  1  0  0  0  0
  6  7  1  1  0  0  0
  6  8  1  0  0  0  0
  8  9  1  0  0  0  0
  9  5  1  6  0  0  0
  9 20  1  0  0  0  0
 10 11  1  0  0  0  0
 10 16  1  0  0  0  0
 11 12  1  1  0  0  0
 11 13  1  0  0  0  0
 14 13  1  6  0  0  0
 14 15  1  0  0  0  0
 14 20  1  0  0  0  0
 15 16  1  1  0  0  0
 15 18  1  0  0  0  0
 16 17  2  0  0  0  0
 18 19  1  0  0  0  0
 20 19  1  1  0  0  0
M  CHG  1  22  -1
M  END
>  <CHROM.1>
-44.28051822,143.19018929,-66.39988793,74.08112055,21.80704362,1.42813363
29.12566165,-2.86315437,-0.79391944,0.96227831

>  <Name>
ligand

>  <RI>
0

>  <Rbt.Current_Directory>
/home/itssahil/PROJECTS/Mol_Feturizer/Test_systems_manuscript/rnas/3slm

>  <Rbt.Executable>
rbdock ($Id: //depot/dev/client3/rdock/2013.1/src/exe/rbdock.cxx#4 $)

>  <Rbt.Library>
libRbt.so (2013.1, Build901 2013/11/27)

>  <Rbt.Parameter_File>
/export/apps/rDock/src/rDock_2013.1_src/data/scripts/dock_solv.prm

>  <Rbt.Receptor>
prm/pocket_docking_3.prm

>  <SCORE>
-14.8569

>  <SCORE.INTER>
-12.1975

>  <SCORE.INTER.CONST>
1

>  <SCORE.INTER.POLAR>
0

>  <SCORE.INTER.ROT>
4

>  <SCORE.INTER.SOLV>
20.8924

>  <SCORE.INTER.VDW>
-21.3625

>  <SCORE.INTER.norm>
-0.530328

>  <SCORE.INTRA>
-2.6594

>  <SCORE.INTRA.DIHEDRAL>
-3.22219

>  <SCORE.INTRA.DIHEDRAL.0>
8.62657

>  <SCORE.INTRA.POLAR>
0

>  <SCORE.INTRA.POLAR.0>
0

>  <SCORE.INTRA.REPUL>
0

>  <SCORE.INTRA.REPUL.0>
0

>  <SCORE.INTRA.SOLV>
2.07293

>  <SCORE.INTRA.SOLV.lig_0>
-66.3641

>  <SCORE.INTRA.VDW>
-2.08477

>  <SCORE.INTRA.VDW.0>
0.452231

>  <SCORE.INTRA.norm>
-0.115626

>  <SCORE.RESTR>
0

>  <SCORE.RESTR.CAVITY>
0

>  <SCORE.RESTR.norm>
0

>  <SCORE.SYSTEM>
0

>  <SCORE.SYSTEM.CONST>
0

>  <SCORE.SYSTEM.DIHEDRAL>
0

>  <SCORE.SYSTEM.SOLV>
0

>  <SCORE.SYSTEM.norm>
0

>  <SCORE.heavy>
23

>  <SCORE.norm>
-0.645954

>  <RMSD>
6.631

$$$$
ligand
 OpenBabel02271912143D
libRbt.so/2013.1/901 2013/11/27
 23 25  0  0  0  0  0  0  0  0999 V2000
   18.8836    2.0288   25.4416 P   0  0  1  0  0  0  0  0  0  0  0  0
   20.5932    3.1741   27.0605 C   0  0  0  0  0  0  0  0  0  0  0  0
   20.3847    2.3893   25.8946 O   0  0  0  0  0  0  0  0  0  0  0  0
   22.0850    3.3707   27.2104 C   0  0  1  0  0  0  0  0  0  0  0  0
   22.4070    4.2157   28.3145 O   0  0  0  0  0  0  0  0  0  0  0  0
   22.7441    2.0225   27.4479 C   0  0  1  0  0  0  0  0  0  0  0  0
   23.8826    1.9209   26.5751 O   0  0  0  0  0  0  0  0  0  0  0  0
   23.1456    2.0254   28.9176 C   0  0  0  0  0  0  0  0  0  0  0  0
   23.1692    3.5034   29.2979 C   0  0  2  0  0  0  0  0  0  0  0  0
   19.3455    5.9457   31.7366 N   0  0  0  0  0  0  0  0  0  0  0  0
   19.6999    6.0457   30.4450 C   0  0  2  0  0  0  0  0  0  0  0  0
   18.9786    6.8742   29.6544 N   0  0  0  0  0  0  0  0  0  0  0  0
   20.7396    5.3327   29.9486 N   0  0  0  0  0  0  0  0  0  0  0  0
   21.4330    4.5098   30.7620 C   0  0  2  0  0  0  0  0  0  0  0  0
   21.0834    4.3974   32.0903 C   0  0  1  0  0  0  0  0  0  0  0  0
   20.0141    5.1291   32.5710 C   0  0  0  0  0  0  0  0  0  0  0  0
   19.6769    5.0364   33.7710 O   0  0  0  0  0  0  0  0  0  0  0  0
   21.9309    3.5270   32.6737 N   0  0  0  0  0  0  0  0  0  0  0  0
   22.7844    3.1026   31.7251 C   0  0  0  0  0  0  0  0  0  0  0  0
   22.4790    3.7129   30.5749 N   0  0  1  0  0  0  0  0  0  0  0  0
   18.2028    1.3986   26.6322 O   0  0  0  0  0  0  0  0  0  0  0  0
   18.3007    3.3584   25.0215 O   0  5  0  0  0  0  0  0  0  0  0  0
   19.1031    1.0731   24.3001 O   0  0  0  0  0  0  0  0  0  0  0  0
  1  3  1  1  0  0  0
  1 21  1  0  0  0  0
  1 22  1  0  0  0  0
  1 23  2  0  0  0  0
  2  3  1  0  0  0  0
  4  2  1  1  0  0  0
  4  5  1  0  0  0  0
  4  6  1  0  0  0  0
  6  7  1  6  0  0  0
  6  8  1  0  0  0  0
  8  9  1  0  0  0  0
  9  5  1  6  0  0  0
  9 20  1  0  0  0  0
 10 11  1  0  0  0  0
 10 16  1  0  0  0  0
 11 12  1  6  0  0  0
 11 13  1  0  0  0  0
 14 13  1  1  0  0  0
 14 15  1  0  0  0  0
 14 20  1  0  0  0  0
 15 16  1  6  0  0  0
 15 18  1  0  0  0  0
 16 17  2  0  0  0  0
 18 19  1  0  0  0  0
 20 19  1  6  0  0  0
M  CHG  1  22  -1
M  END
>  <CHROM.1>
-53.59414302,176.62018106,-178.73462696,-5.54732497,20.77079776,3.51588414
28.72807328,1.73259488,0.34338755,-2.04043547

>  <Name>
ligand

>  <RI>
0

>  <Rbt.Current_Directory>
/home/itssahil/PROJECTS/Mol_Feturizer/Test_systems_manuscript/rnas/3slm

>  <Rbt.Executable>
rbdock ($Id: //depot/dev/client3/rdock/2013.1/src/exe/rbdock.cxx#4 $)

>  <Rbt.Library>
libRbt.so (2013.1, Build901 2013/11/27)

>  <Rbt.Parameter_File>
/export/apps/rDock/src/rDock_2013.1_src/data/scripts/dock_solv.prm

>  <Rbt.Receptor>
prm/blind_docking_60.prm

>  <SCORE>
-20.703

>  <SCORE.INTER>
-15.4947

>  <SCORE.INTER.CONST>
1

>  <SCORE.INTER.POLAR>
0

>  <SCORE.INTER.ROT>
4

>  <SCORE.INTER.SOLV>
25.8259

>  <SCORE.INTER.VDW>
-25.2051

>  <SCORE.INTER.norm>
-0.673683

>  <SCORE.INTRA>
-5.20826

>  <SCORE.INTRA.DIHEDRAL>
-7.27895

>  <SCORE.INTRA.DIHEDRAL.0>
8.62657

>  <SCORE.INTRA.POLAR>
0

>  <SCORE.INTRA.POLAR.0>
0

>  <SCORE.INTRA.REPUL>
0

>  <SCORE.INTRA.REPUL.0>
0

>  <SCORE.INTRA.SOLV>
-0.502621

>  <SCORE.INTRA.SOLV.lig_0>
-66.3641

>  <SCORE.INTRA.VDW>
-1.31748

>  <SCORE.INTRA.VDW.0>
0.452231

>  <SCORE.INTRA.norm>
-0.226446

>  <SCORE.RESTR>
0

>  <SCORE.RESTR.CAVITY>
0

>  <SCORE.RESTR.norm>
0

>  <SCORE.SYSTEM>
0

>  <SCORE.SYSTEM.CONST>
0

>  <SCORE.SYSTEM.DIHEDRAL>
0

>  <SCORE.SYSTEM.SOLV>
0

>  <SCORE.SYSTEM.norm>
0

>  <SCORE.heavy>
23

>  <SCORE.norm>
-0.900129

>  <RMSD>
6.655

$$$$
ligand
 OpenBabel02271912143D
libRbt.so/2013.1/901 2013/11/27
 23 25  0  0  0  0  0  0  0  0999 V2000
   19.9697    5.5965   31.2793 P   0  0  1  0  0  0  0  0  0  0  0  0
   21.5152    4.2917   29.6167 C   0  0  0  0  0  0  0  0  0  0  0  0
   20.3277    5.0475   29.8101 O   0  0  0  0  0  0  0  0  0  0  0  0
   21.5362    3.8475   28.1714 C   0  0  1  0  0  0  0  0  0  0  0  0
   22.6954    3.0737   27.8644 O   0  0  0  0  0  0  0  0  0  0  0  0
   20.3150    2.9863   27.8967 C   0  0  1  0  0  0  0  0  0  0  0  0
   19.7090    3.4453   26.6760 O   0  0  0  0  0  0  0  0  0  0  0  0
   20.8465    1.5637   27.7745 C   0  0  0  0  0  0  0  0  0  0  0  0
   22.3329    1.7420   27.4766 C   0  0  2  0  0  0  0  0  0  0  0  0
   23.8896    0.6195   32.2566 N   0  0  0  0  0  0  0  0  0  0  0  0
   23.1006    1.6313   31.8599 C   0  0  2  0  0  0  0  0  0  0  0  0
   22.6297    2.4743   32.8081 N   0  0  0  0  0  0  0  0  0  0  0  0
   22.7792    1.7960   30.5540 N   0  0  0  0  0  0  0  0  0  0  0  0
   23.2591    0.9330   29.6349 C   0  0  2  0  0  0  0  0  0  0  0  0
   24.0717   -0.1093   30.0254 C   0  0  1  0  0  0  0  0  0  0  0  0
   24.3786   -0.2607   31.3643 C   0  0  0  0  0  0  0  0  0  0  0  0
   25.1087   -1.2033   31.7398 O   0  0  0  0  0  0  0  0  0  0  0  0
   24.4145   -0.8074   28.9247 N   0  0  0  0  0  0  0  0  0  0  0  0
   23.8208   -0.2146   27.8738 C   0  0  0  0  0  0  0  0  0  0  0  0
   23.1330    0.8439   28.3157 N   0  0  1  0  0  0  0  0  0  0  0  0
   18.6119    6.2493   31.1877 O   0  0  0  0  0  0  0  0  0  0  0  0
   20.0106    4.3615   32.1495 O   0  5  0  0  0  0  0  0  0  0  0  0
   21.0861    6.5685   31.5502 O   0  0  0  0  0  0  0  0  0  0  0  0
  1  3  1  6  0  0  0
  1 21  1  0  0  0  0
  1 22  1  0  0  0  0
  1 23  2  0  0  0  0
  2  3  1  0  0  0  0
  4  2  1  1  0  0  0
  4  5  1  0  0  0  0
  4  6  1  0  0  0  0
  6  7  1  6  0  0  0
  6  8  1  0  0  0  0
  8  9  1  0  0  0  0
  9  5  1  1  0  0  0
  9 20  1  0  0  0  0
 10 11  1  0  0  0  0
 10 16  1  0  0  0  0
 11 12  1  1  0  0  0
 11 13  1  0  0  0  0
 14 13  1  6  0  0  0
 14 15  1  0  0  0  0
 14 20  1  0  0  0  0
 15 16  1  1  0  0  0
 15 18  1  0  0  0  0
 16 17  2  0  0  0  0
 18 19  1  0  0  0  0
 20 19  1  1  0  0  0
M  CHG  1  22  -1
M  END
>  <CHROM.1>
-175.30640507,-179.97436554,176.57321876,48.92430090,21.96130521,2.64742747
29.95234470,-2.82031120,0.89258482,-1.88152400

>  <Name>
ligand

>  <RI>
416

>  <Rbt.Current_Directory>
/home/itssahil/PROJECTS/Mol_Feturizer/Test_systems_manuscript/rnas/3slm

>  <Rbt.Executable>
rbdock ($Id: //depot/dev/client3/rdock/2013.1/src/exe/rbdock.cxx#4 $)

>  <Rbt.Library>
libRbt.so (2013.1, Build901 2013/11/27)

>  <Rbt.Parameter_File>
/export/apps/rDock/src/rDock_2013.1_src/data/scripts/dock_solv.prm

>  <Rbt.Receptor>
prm/pocket_docking_5.prm

>  <SCORE>
-15.093

>  <SCORE.INTER>
-10.6343

>  <SCORE.INTER.CONST>
1

>  <SCORE.INTER.POLAR>
0

>  <SCORE.INTER.ROT>
4

>  <SCORE.INTER.SOLV>
21.5489

>  <SCORE.INTER.VDW>
-20.5392

>  <SCORE.INTER.norm>
-0.462361

>  <SCORE.INTRA>
-4.45866

>  <SCORE.INTRA.DIHEDRAL>
-7.35724

>  <SCORE.INTRA.DIHEDRAL.0>
8.62657

>  <SCORE.INTRA.POLAR>
0

>  <SCORE.INTRA.POLAR.0>
0

>  <SCORE.INTRA.REPUL>
0

>  <SCORE.INTRA.REPUL.0>
0

>  <SCORE.INTRA.SOLV>
3.39454

>  <SCORE.INTRA.SOLV.lig_0>
-66.3641

>  <SCORE.INTRA.VDW>
-2.47731

>  <SCORE.INTRA.VDW.0>
0.452231

>  <SCORE.INTRA.norm>
-0.193855

>  <SCORE.RESTR>
0

>  <SCORE.RESTR.CAVITY>
0

>  <SCORE.RESTR.norm>
0

>  <SCORE.SYSTEM>
0

>  <SCORE.SYSTEM.CONST>
0

>  <SCORE.SYSTEM.DIHEDRAL>
0

>  <SCORE.SYSTEM.SOLV>
0

>  <SCORE.SYSTEM.norm>
0

>  <SCORE.heavy>
23

>  <SCORE.norm>
-0.656216

>  <RMSD>
6.665

$$$$
ligand
 OpenBabel02271912143D
libRbt.so/2013.1/901 2013/11/27
 23 25  0  0  0  0  0  0  0  0999 V2000
   17.3117    0.1656   23.8352 P   0  0  1  0  0  0  0  0  0  0  0  0
   18.2465    0.5813   26.2454 C   0  0  0  0  0  0  0  0  0  0  0  0
   17.1344    0.2323   25.4329 O   0  0  0  0  0  0  0  0  0  0  0  0
   18.5155    2.0540   26.0326 C   0  0  1  0  0  0  0  0  0  0  0  0
   18.7252    2.7448   27.2637 O   0  0  0  0  0  0  0  0  0  0  0  0
   19.7686    2.2151   25.1887 C   0  0  1  0  0  0  0  0  0  0  0  0
   19.4879    3.1668   24.1477 O   0  0  0  0  0  0  0  0  0  0  0  0
   20.8388    2.7153   26.1508 C   0  0  0  0  0  0  0  0  0  0  0  0
   20.0502    3.2888   27.3251 C   0  0  2  0  0  0  0  0  0  0  0  0
   24.0841    1.0853   29.6498 N   0  0  0  0  0  0  0  0  0  0  0  0
   23.9218    1.3413   28.3414 C   0  0  2  0  0  0  0  0  0  0  0  0
   24.9270    1.0005   27.5017 N   0  0  0  0  0  0  0  0  0  0  0  0
   22.7925    1.9305   27.8796 N   0  0  0  0  0  0  0  0  0  0  0  0
   21.8128    2.2647   28.7446 C   0  0  2  0  0  0  0  0  0  0  0  0
   21.9630    2.0069   30.0901 C   0  0  1  0  0  0  0  0  0  0  0  0
   23.1275    1.4124   30.5375 C   0  0  0  0  0  0  0  0  0  0  0  0
   23.2860    1.1760   31.7546 O   0  0  0  0  0  0  0  0  0  0  0  0
   20.8497    2.4267   30.7232 N   0  0  0  0  0  0  0  0  0  0  0  0
   20.0288    2.9411   29.7906 C   0  0  0  0  0  0  0  0  0  0  0  0
   20.6189    2.8274   28.5957 N   0  0  1  0  0  0  0  0  0  0  0  0
   18.6314   -0.5155   23.5659 O   0  0  0  0  0  0  0  0  0  0  0  0
   16.1023   -0.6102   23.3667 O   0  5  0  0  0  0  0  0  0  0  0  0
   17.2936    1.6174   23.4396 O   0  0  0  0  0  0  0  0  0  0  0  0
  1  3  1  1  0  0  0
  1 21  1  0  0  0  0
  1 22  1  0  0  0  0
  1 23  2  0  0  0  0
  2  3  1  0  0  0  0
  4  2  1  1  0  0  0
  4  5  1  0  0  0  0
  4  6  1  0  0  0  0
  6  7  1  6  0  0  0
  6  8  1  0  0  0  0
  8  9  1  0  0  0  0
  9  5  1  6  0  0  0
  9 20  1  0  0  0  0
 10 11  1  0  0  0  0
 10 16  1  0  0  0  0
 11 12  1  1  0  0  0
 11 13  1  0  0  0  0
 14 13  1  6  0  0  0
 14 15  1  0  0  0  0
 14 20  1  0  0  0  0
 15 16  1  1  0  0  0
 15 18  1  0  0  0  0
 16 17  2  0  0  0  0
 18 19  1  0  0  0  0
 20 19  1  1  0  0  0
M  CHG  1  22  -1
M  END
>  <CHROM.1>
42.36870197,134.06516830,71.37190664,131.08051700,20.14422421,1.54129993
26.90658460,-2.33502710,-0.18428180,1.19800983

>  <Name>
ligand

>  <RI>
416

>  <Rbt.Current_Directory>
/home/itssahil/PROJECTS/Mol_Feturizer/Test_systems_manuscript/rnas/3slm

>  <Rbt.Executable>
rbdock ($Id: //depot/dev/client3/rdock/2013.1/src/exe/rbdock.cxx#4 $)

>  <Rbt.Library>
libRbt.so (2013.1, Build901 2013/11/27)

>  <Rbt.Parameter_File>
/export/apps/rDock/src/rDock_2013.1_src/data/scripts/dock_solv.prm

>  <Rbt.Receptor>
prm/pocket_docking_2.prm

>  <SCORE>
-9.87812

>  <SCORE.INTER>
-10.9678

>  <SCORE.INTER.CONST>
1

>  <SCORE.INTER.POLAR>
0

>  <SCORE.INTER.ROT>
4

>  <SCORE.INTER.SOLV>
24.9481

>  <SCORE.INTER.VDW>
-21.8946

>  <SCORE.INTER.norm>
-0.47686

>  <SCORE.INTRA>
0.137487

>  <SCORE.INTRA.DIHEDRAL>
-1.79368

>  <SCORE.INTRA.DIHEDRAL.0>
8.62657

>  <SCORE.INTRA.POLAR>
0

>  <SCORE.INTRA.POLAR.0>
0

>  <SCORE.INTRA.REPUL>
0

>  <SCORE.INTRA.REPUL.0>
0

>  <SCORE.INTRA.SOLV>
2.91233

>  <SCORE.INTRA.SOLV.lig_0>
-66.3641

>  <SCORE.INTRA.VDW>
-0.421841

>  <SCORE.INTRA.VDW.0>
0.452231

>  <SCORE.INTRA.norm>
0.00597771

>  <SCORE.RESTR>
0.95217

>  <SCORE.RESTR.CAVITY>
0.95217

>  <SCORE.RESTR.norm>
0.0413987

>  <SCORE.SYSTEM>
0

>  <SCORE.SYSTEM.CONST>
0

>  <SCORE.SYSTEM.DIHEDRAL>
0

>  <SCORE.SYSTEM.SOLV>
0

>  <SCORE.SYSTEM.norm>
0

>  <SCORE.heavy>
23

>  <SCORE.norm>
-0.429484

>  <RMSD>
6.677

$$$$
ligand
 OpenBabel02271912143D
libRbt.so/2013.1/901 2013/11/27
 23 25  0  0  0  0  0  0  0  0999 V2000
   17.1204   -3.3345   23.9841 P   0  0  1  0  0  0  0  0  0  0  0  0
   18.0788   -0.8987   23.9221 C   0  0  0  0  0  0  0  0  0  0  0  0
   16.9437   -1.7384   24.0812 O   0  0  0  0  0  0  0  0  0  0  0  0
   17.5861    0.5308   23.9276 C   0  0  1  0  0  0  0  0  0  0  0  0
   17.3630    1.0169   25.2508 O   0  0  0  0  0  0  0  0  0  0  0  0
   18.6303    1.4205   23.2744 C   0  0  1  0  0  0  0  0  0  0  0  0
   17.9624    2.2764   22.3313 O   0  0  0  0  0  0  0  0  0  0  0  0
   19.2597    2.2065   24.4177 C   0  0  0  0  0  0  0  0  0  0  0  0
   18.2345    2.1166   25.5449 C   0  0  2  0  0  0  0  0  0  0  0  0
   20.3353    3.9417   29.8793 N   0  0  0  0  0  0  0  0  0  0  0  0
   19.8066    4.6376   28.8597 C   0  0  2  0  0  0  0  0  0  0  0  0
   19.7989    5.9878   28.9532 N   0  0  0  0  0  0  0  0  0  0  0  0
   19.2892    4.0074   27.7776 N   0  0  0  0  0  0  0  0  0  0  0  0
   19.3055    2.6598   27.7194 C   0  0  2  0  0  0  0  0  0  0  0  0
   19.8463    1.9310   28.7566 C   0  0  1  0  0  0  0  0  0  0  0  0
   20.3606    2.5968   29.8529 C   0  0  0  0  0  0  0  0  0  0  0  0
   20.8497    1.9541   30.8069 O   0  0  0  0  0  0  0  0  0  0  0  0
   19.7448    0.6234   28.4464 N   0  0  0  0  0  0  0  0  0  0  0  0
   19.1468    0.5423   27.2447 C   0  0  0  0  0  0  0  0  0  0  0  0
   18.8955    1.7821   26.8106 N   0  0  1  0  0  0  0  0  0  0  0  0
   18.2330   -3.7136   24.9310 O   0  0  0  0  0  0  0  0  0  0  0  0
   15.7626   -3.8753   24.3689 O   0  5  0  0  0  0  0  0  0  0  0  0
   17.4688   -3.5412   22.5348 O   0  0  0  0  0  0  0  0  0  0  0  0
  1  3  1  1  0  0  0
  1 21  1  0  0  0  0
  1 22  1  0  0  0  0
  1 23  2  0  0  0  0
  2  3  1  0  0  0  0
  4  2  1  1  0  0  0
  4  5  1  0  0  0  0
  4  6  1  0  0  0  0
  6  7  1  6  0  0  0
  6  8  1  0  0  0  0
  8  9  1  0  0  0  0
  9  5  1  6  0  0  0
  9 20  1  0  0  0  0
 10 11  1  0  0  0  0
 10 16  1  0  0  0  0
 11 12  1  1  0  0  0
 11 13  1  0  0  0  0
 14 13  1  6  0  0  0
 14 15  1  0  0  0  0
 14 20  1  0  0  0  0
 15 16  1  1  0  0  0
 15 18  1  0  0  0  0
 16 17  2  0  0  0  0
 18 19  1  0  0  0  0
 20 19  1  1  0  0  0
M  CHG  1  22  -1
M  END
>  <CHROM.1>
51.88254397,80.92585243,174.56828727,-149.46796015,18.55665848,0.65713037
26.03018329,-2.78213481,-1.21909581,-0.47973818

>  <Name>
ligand

>  <RI>
416

>  <Rbt.Current_Directory>
/home/itssahil/PROJECTS/Mol_Feturizer/Test_systems_manuscript/rnas/3slm

>  <Rbt.Executable>
rbdock ($Id: //depot/dev/client3/rdock/2013.1/src/exe/rbdock.cxx#4 $)

>  <Rbt.Library>
libRbt.so (2013.1, Build901 2013/11/27)

>  <Rbt.Parameter_File>
/export/apps/rDock/src/rDock_2013.1_src/data/scripts/dock_solv.prm

>  <Rbt.Receptor>
prm/pocket_docking_5.prm

>  <SCORE>
-21.6741

>  <SCORE.INTER>
-16.5975

>  <SCORE.INTER.CONST>
1

>  <SCORE.INTER.POLAR>
0

>  <SCORE.INTER.ROT>
4

>  <SCORE.INTER.SOLV>
24.5172

>  <SCORE.INTER.VDW>
-25.5041

>  <SCORE.INTER.norm>
-0.721631

>  <SCORE.INTRA>
-5.07661

>  <SCORE.INTRA.DIHEDRAL>
-5.69351

>  <SCORE.INTRA.DIHEDRAL.0>
8.62657

>  <SCORE.INTRA.POLAR>
0

>  <SCORE.INTRA.POLAR.0>
0

>  <SCORE.INTRA.REPUL>
0

>  <SCORE.INTRA.REPUL.0>
0

>  <SCORE.INTRA.SOLV>
-0.788757

>  <SCORE.INTRA.SOLV.lig_0>
-66.3641

>  <SCORE.INTRA.VDW>
-1.83548

>  <SCORE.INTRA.VDW.0>
0.452231

>  <SCORE.INTRA.norm>
-0.220722

>  <SCORE.RESTR>
0

>  <SCORE.RESTR.CAVITY>
0

>  <SCORE.RESTR.norm>
0

>  <SCORE.SYSTEM>
0

>  <SCORE.SYSTEM.CONST>
0

>  <SCORE.SYSTEM.DIHEDRAL>
0

>  <SCORE.SYSTEM.SOLV>
0

>  <SCORE.SYSTEM.norm>
0

>  <SCORE.heavy>
23

>  <SCORE.norm>
-0.942353

>  <RMSD>
6.678

$$$$
ligand
 OpenBabel02271912143D
libRbt.so/2013.1/901 2013/11/27
 23 25  0  0  0  0  0  0  0  0999 V2000
   20.1288    5.3515   30.6837 P   0  0  1  0  0  0  0  0  0  0  0  0
   21.6627    3.2347   30.5373 C   0  0  0  0  0  0  0  0  0  0  0  0
   20.3450    3.7658   30.5193 O   0  0  0  0  0  0  0  0  0  0  0  0
   22.3074    3.5841   29.2149 C   0  0  1  0  0  0  0  0  0  0  0  0
   23.5906    2.9774   29.0663 O   0  0  0  0  0  0  0  0  0  0  0  0
   21.4236    3.0881   28.0830 C   0  0  1  0  0  0  0  0  0  0  0  0
   21.2834    4.1519   27.1254 O   0  0  0  0  0  0  0  0  0  0  0  0
   22.1543    1.8844   27.5013 C   0  0  0  0  0  0  0  0  0  0  0  0
   23.5983    2.0622   27.9628 C   0  0  2  0  0  0  0  0  0  0  0  0
   23.5053   -1.3177   31.8486 N   0  0  0  0  0  0  0  0  0  0  0  0
   22.8296   -0.1621   31.7413 C   0  0  2  0  0  0  0  0  0  0  0  0
   22.0049    0.1842   32.7570 N   0  0  0  0  0  0  0  0  0  0  0  0
   22.9624    0.6259   30.6471 N   0  0  0  0  0  0  0  0  0  0  0  0
   23.7869    0.2475   29.6487 C   0  0  2  0  0  0  0  0  0  0  0  0
   24.4890   -0.9345   29.7444 C   0  0  1  0  0  0  0  0  0  0  0  0
   24.3304   -1.7246   30.8670 C   0  0  0  0  0  0  0  0  0  0  0  0
   24.9532   -2.8035   30.9702 O   0  0  0  0  0  0  0  0  0  0  0  0
   25.2354   -1.0690   28.6303 N   0  0  0  0  0  0  0  0  0  0  0  0
   24.9957    0.0040   27.8560 C   0  0  0  0  0  0  0  0  0  0  0  0
   24.1253    0.7985   28.4885 N   0  0  1  0  0  0  0  0  0  0  0  0
   18.6512    5.6144   30.5225 O   0  0  0  0  0  0  0  0  0  0  0  0
   20.6688    5.6517   32.0630 O   0  5  0  0  0  0  0  0  0  0  0  0
   20.9645    5.9167   29.5672 O   0  0  0  0  0  0  0  0  0  0  0  0
  1  3  1  6  0  0  0
  1 21  1  0  0  0  0
  1 22  1  0  0  0  0
  1 23  2  0  0  0  0
  2  3  1  0  0  0  0
  4  2  1  1  0  0  0
  4  5  1  0  0  0  0
  4  6  1  0  0  0  0
  6  7  1  6  0  0  0
  6  8  1  0  0  0  0
  8  9  1  0  0  0  0
  9  5  1  1  0  0  0
  9 20  1  0  0  0  0
 10 11  1  0  0  0  0
 10 16  1  0  0  0  0
 11 12  1  6  0  0  0
 11 13  1  0  0  0  0
 14 13  1  1  0  0  0
 14 15  1  0  0  0  0
 14 20  1  0  0  0  0
 15 16  1  6  0  0  0
 15 18  1  0  0  0  0
 16 17  2  0  0  0  0
 18 19  1  0  0  0  0
 20 19  1  6  0  0  0
M  CHG  1  22  -1
M  END
>  <CHROM.1>
175.90591557,-173.84767070,-74.10228960,43.46842808,22.39715225,2.09863608
29.88479160,2.68441613,0.92205085,-1.00984958

>  <Name>
ligand

>  <RI>
416

>  <Rbt.Current_Directory>
/home/itssahil/PROJECTS/Mol_Feturizer/Test_systems_manuscript/rnas/3slm

>  <Rbt.Executable>
rbdock ($Id: //depot/dev/client3/rdock/2013.1/src/exe/rbdock.cxx#4 $)

>  <Rbt.Library>
libRbt.so (2013.1, Build901 2013/11/27)

>  <Rbt.Parameter_File>
/export/apps/rDock/src/rDock_2013.1_src/data/scripts/dock_solv.prm

>  <Rbt.Receptor>
prm/pocket_docking_4.prm

>  <SCORE>
-12.9409

>  <SCORE.INTER>
-10.2673

>  <SCORE.INTER.CONST>
1

>  <SCORE.INTER.POLAR>
0

>  <SCORE.INTER.ROT>
4

>  <SCORE.INTER.SOLV>
16.525

>  <SCORE.INTER.VDW>
-18.6199

>  <SCORE.INTER.norm>
-0.446405

>  <SCORE.INTRA>
-2.67382

>  <SCORE.INTRA.DIHEDRAL>
-6.37622

>  <SCORE.INTRA.DIHEDRAL.0>
8.62657

>  <SCORE.INTRA.POLAR>
0

>  <SCORE.INTRA.POLAR.0>
0

>  <SCORE.INTRA.REPUL>
0

>  <SCORE.INTRA.REPUL.0>
0

>  <SCORE.INTRA.SOLV>
4.65863

>  <SCORE.INTRA.SOLV.lig_0>
-66.3641

>  <SCORE.INTRA.VDW>
-1.81503

>  <SCORE.INTRA.VDW.0>
0.452231

>  <SCORE.INTRA.norm>
-0.116253

>  <SCORE.RESTR>
0.000178862

>  <SCORE.RESTR.CAVITY>
0.000178862

>  <SCORE.RESTR.norm>
7.77662e-06

>  <SCORE.SYSTEM>
0

>  <SCORE.SYSTEM.CONST>
0

>  <SCORE.SYSTEM.DIHEDRAL>
0

>  <SCORE.SYSTEM.SOLV>
0

>  <SCORE.SYSTEM.norm>
0

>  <SCORE.heavy>
23

>  <SCORE.norm>
-0.56265

>  <RMSD>
6.679

$$$$
ligand
 OpenBabel02271912143D
libRbt.so/2013.1/901 2013/11/27
 23 25  0  0  0  0  0  0  0  0999 V2000
   19.5338    5.5163   31.4707 P   0  0  1  0  0  0  0  0  0  0  0  0
   21.0679    4.1767   29.8253 C   0  0  0  0  0  0  0  0  0  0  0  0
   19.9500    5.0377   29.9922 O   0  0  0  0  0  0  0  0  0  0  0  0
   21.1685    3.8493   28.3525 C   0  0  1  0  0  0  0  0  0  0  0  0
   22.3964    3.1972   28.0301 O   0  0  0  0  0  0  0  0  0  0  0  0
   20.0315    2.9167   27.9703 C   0  0  1  0  0  0  0  0  0  0  0  0
   19.4260    3.4191   26.7665 O   0  0  0  0  0  0  0  0  0  0  0  0
   20.6823    1.5552   27.7608 C   0  0  0  0  0  0  0  0  0  0  0  0
   22.1570    1.8749   27.5307 C   0  0  2  0  0  0  0  0  0  0  0  0
   23.8971    0.7133   32.2376 N   0  0  0  0  0  0  0  0  0  0  0  0
   23.0742    1.7140   31.8836 C   0  0  2  0  0  0  0  0  0  0  0  0
   22.6181    2.5323   32.8603 N   0  0  0  0  0  0  0  0  0  0  0  0
   22.7056    1.8916   30.5919 N   0  0  0  0  0  0  0  0  0  0  0  0
   23.1721    1.0531   29.6437 C   0  0  2  0  0  0  0  0  0  0  0  0
   24.0188    0.0226   29.9903 C   0  0  1  0  0  0  0  0  0  0  0  0
   24.3739   -0.1426   31.3156 C   0  0  0  0  0  0  0  0  0  0  0  0
   25.1356   -1.0750   31.6515 O   0  0  0  0  0  0  0  0  0  0  0  0
   24.3388   -0.6513   28.8678 N   0  0  0  0  0  0  0  0  0  0  0  0
   23.6978   -0.0554   27.8468 C   0  0  0  0  0  0  0  0  0  0  0  0
   23.0034    0.9814   28.3282 N   0  0  1  0  0  0  0  0  0  0  0  0
   18.8111    4.3618   32.1211 O   0  0  0  0  0  0  0  0  0  0  0  0
   20.8500    5.8744   32.1216 O   0  5  0  0  0  0  0  0  0  0  0  0
   18.6481    6.7017   31.1976 O   0  0  0  0  0  0  0  0  0  0  0  0
  1  3  1  6  0  0  0
  1 21  1  0  0  0  0
  1 22  1  0  0  0  0
  1 23  2  0  0  0  0
  2  3  1  0  0  0  0
  4  2  1  1  0  0  0
  4  5  1  0  0  0  0
  4  6  1  0  0  0  0
  6  7  1  6  0  0  0
  6  8  1  0  0  0  0
  8  9  1  0  0  0  0
  9  5  1  1  0  0  0
  9 20  1  0  0  0  0
 10 11  1  0  0  0  0
 10 16  1  0  0  0  0
 11 12  1  1  0  0  0
 11 13  1  0  0  0  0
 14 13  1  6  0  0  0
 14 15  1  0  0  0  0
 14 20  1  0  0  0  0
 15 16  1  1  0  0  0
 15 18  1  0  0  0  0
 16 17  2  0  0  0  0
 18 19  1  0  0  0  0
 20 19  1  1  0  0  0
M  CHG  1  22  -1
M  END
>  <CHROM.1>
-77.51893513,169.00206447,177.24553919,42.69743345,21.73303385,2.68020500
30.03044581,-2.80616323,0.82330160,-1.87367411

>  <Name>
ligand

>  <RI>
416

>  <Rbt.Current_Directory>
/home/itssahil/PROJECTS/Mol_Feturizer/Test_systems_manuscript/rnas/3slm

>  <Rbt.Executable>
rbdock ($Id: //depot/dev/client3/rdock/2013.1/src/exe/rbdock.cxx#4 $)

>  <Rbt.Library>
libRbt.so (2013.1, Build901 2013/11/27)

>  <Rbt.Parameter_File>
/export/apps/rDock/src/rDock_2013.1_src/data/scripts/dock_solv.prm

>  <Rbt.Receptor>
prm/pocket_docking_5.prm

>  <SCORE>
-16.0555

>  <SCORE.INTER>
-11.337

>  <SCORE.INTER.CONST>
1

>  <SCORE.INTER.POLAR>
0

>  <SCORE.INTER.ROT>
4

>  <SCORE.INTER.SOLV>
22.2992

>  <SCORE.INTER.VDW>
-21.2578

>  <SCORE.INTER.norm>
-0.492915

>  <SCORE.INTRA>
-4.71842

>  <SCORE.INTRA.DIHEDRAL>
-6.56786

>  <SCORE.INTRA.DIHEDRAL.0>
8.62657

>  <SCORE.INTRA.POLAR>
0

>  <SCORE.INTRA.POLAR.0>
0

>  <SCORE.INTRA.REPUL>
0

>  <SCORE.INTRA.REPUL.0>
0

>  <SCORE.INTRA.SOLV>
1.82033

>  <SCORE.INTRA.SOLV.lig_0>
-66.3641

>  <SCORE.INTRA.VDW>
-2.34465

>  <SCORE.INTRA.VDW.0>
0.452231

>  <SCORE.INTRA.norm>
-0.205149

>  <SCORE.RESTR>
0

>  <SCORE.RESTR.CAVITY>
0

>  <SCORE.RESTR.norm>
0

>  <SCORE.SYSTEM>
0

>  <SCORE.SYSTEM.CONST>
0

>  <SCORE.SYSTEM.DIHEDRAL>
0

>  <SCORE.SYSTEM.SOLV>
0

>  <SCORE.SYSTEM.norm>
0

>  <SCORE.heavy>
23

>  <SCORE.norm>
-0.698064

>  <RMSD>
6.684

$$$$
ligand
 OpenBabel02271912143D
libRbt.so/2013.1/901 2013/11/27
 23 25  0  0  0  0  0  0  0  0999 V2000
   19.5833    5.5467   31.4884 P   0  0  1  0  0  0  0  0  0  0  0  0
   21.1203    4.2113   29.8423 C   0  0  0  0  0  0  0  0  0  0  0  0
   20.0304    5.1080   30.0066 O   0  0  0  0  0  0  0  0  0  0  0  0
   21.1962    3.8587   28.3739 C   0  0  1  0  0  0  0  0  0  0  0  0
   22.4084    3.1801   28.0467 O   0  0  0  0  0  0  0  0  0  0  0  0
   20.0384    2.9402   28.0212 C   0  0  1  0  0  0  0  0  0  0  0  0
   19.4263    3.4338   26.8171 O   0  0  0  0  0  0  0  0  0  0  0  0
   20.6628    1.5644   27.8256 C   0  0  0  0  0  0  0  0  0  0  0  0
   22.1397    1.8544   27.5718 C   0  0  2  0  0  0  0  0  0  0  0  0
   23.9249    0.7418   32.2736 N   0  0  0  0  0  0  0  0  0  0  0  0
   23.1157    1.7515   31.9136 C   0  0  2  0  0  0  0  0  0  0  0  0
   22.6889    2.5949   32.8821 N   0  0  0  0  0  0  0  0  0  0  0  0
   22.7321    1.9136   30.6243 N   0  0  0  0  0  0  0  0  0  0  0  0
   23.1694    1.0504   29.6845 C   0  0  2  0  0  0  0  0  0  0  0  0
   24.0018    0.0102   30.0372 C   0  0  1  0  0  0  0  0  0  0  0  0
   24.3726   -0.1387   31.3601 C   0  0  0  0  0  0  0  0  0  0  0  0
   25.1217   -1.0792   31.7017 O   0  0  0  0  0  0  0  0  0  0  0  0
   24.2932   -0.6887   28.9224 N   0  0  0  0  0  0  0  0  0  0  0  0
   23.6489   -0.0987   27.9002 C   0  0  0  0  0  0  0  0  0  0  0  0
   22.9807    0.9591   28.3729 N   0  0  1  0  0  0  0  0  0  0  0  0
   18.8813    4.3620   32.1064 O   0  0  0  0  0  0  0  0  0  0  0  0
   20.8816    5.9242   32.1638 O   0  5  0  0  0  0  0  0  0  0  0  0
   18.6719    6.7151   31.2266 O   0  0  0  0  0  0  0  0  0  0  0  0
  1  3  1  6  0  0  0
  1 21  1  0  0  0  0
  1 22  1  0  0  0  0
  1 23  2  0  0  0  0
  2  3  1  0  0  0  0
  4  2  1  1  0  0  0
  4  5  1  0  0  0  0
  4  6  1  0  0  0  0
  6  7  1  6  0  0  0
  6  8  1  0  0  0  0
  8  9  1  0  0  0  0
  9  5  1  1  0  0  0
  9 20  1  0  0  0  0
 10 11  1  0  0  0  0
 10 16  1  0  0  0  0
 11 12  1  1  0  0  0
 11 13  1  0  0  0  0
 14 13  1  6  0  0  0
 14 15  1  0  0  0  0
 14 20  1  0  0  0  0
 15 16  1  1  0  0  0
 15 18  1  0  0  0  0
 16 17  2  0  0  0  0
 18 19  1  0  0  0  0
 20 19  1  1  0  0  0
M  CHG  1  22  -1
M  END
>  <CHROM.1>
-73.60559567,168.25955132,173.31006858,42.57015473,21.75050045,2.69283437
30.06402829,-2.79154615,0.82918184,-1.89751094

>  <Name>
ligand

>  <RI>
0

>  <Rbt.Current_Directory>
/home/itssahil/PROJECTS/Mol_Feturizer/Test_systems_manuscript/rnas/3slm

>  <Rbt.Executable>
rbdock ($Id: //depot/dev/client3/rdock/2013.1/src/exe/rbdock.cxx#4 $)

>  <Rbt.Library>
libRbt.so (2013.1, Build901 2013/11/27)

>  <Rbt.Parameter_File>
/export/apps/rDock/src/rDock_2013.1_src/data/scripts/dock_solv.prm

>  <Rbt.Receptor>
prm/pocket_docking_8.prm

>  <SCORE>
-16.0691

>  <SCORE.INTER>
-11.303

>  <SCORE.INTER.CONST>
1

>  <SCORE.INTER.POLAR>
0

>  <SCORE.INTER.ROT>
4

>  <SCORE.INTER.SOLV>
22.5488

>  <SCORE.INTER.VDW>
-21.3183

>  <SCORE.INTER.norm>
-0.491435

>  <SCORE.INTRA>
-4.76611

>  <SCORE.INTRA.DIHEDRAL>
-6.50321

>  <SCORE.INTRA.DIHEDRAL.0>
8.62657

>  <SCORE.INTRA.POLAR>
0

>  <SCORE.INTRA.POLAR.0>
0

>  <SCORE.INTRA.REPUL>
0

>  <SCORE.INTRA.REPUL.0>
0

>  <SCORE.INTRA.SOLV>
1.81168

>  <SCORE.INTRA.SOLV.lig_0>
-66.3641

>  <SCORE.INTRA.VDW>
-2.42035

>  <SCORE.INTRA.VDW.0>
0.452231

>  <SCORE.INTRA.norm>
-0.207222

>  <SCORE.RESTR>
0

>  <SCORE.RESTR.CAVITY>
0

>  <SCORE.RESTR.norm>
0

>  <SCORE.SYSTEM>
0

>  <SCORE.SYSTEM.CONST>
0

>  <SCORE.SYSTEM.DIHEDRAL>
0

>  <SCORE.SYSTEM.SOLV>
0

>  <SCORE.SYSTEM.norm>
0

>  <SCORE.heavy>
23

>  <SCORE.norm>
-0.698657

>  <RMSD>
6.697

$$$$
ligand
 OpenBabel02271912143D
libRbt.so/2013.1/901 2013/11/27
 23 25  0  0  0  0  0  0  0  0999 V2000
   19.4633    2.2593   26.5240 P   0  0  1  0  0  0  0  0  0  0  0  0
   20.4364    1.9050   28.9288 C   0  0  0  0  0  0  0  0  0  0  0  0
   19.6996    2.7357   28.0424 O   0  0  0  0  0  0  0  0  0  0  0  0
   20.5424    2.6361   30.2482 C   0  0  1  0  0  0  0  0  0  0  0  0
   20.6803    1.7390   31.3496 O   0  0  0  0  0  0  0  0  0  0  0  0
   21.7672    3.5348   30.2232 C   0  0  1  0  0  0  0  0  0  0  0  0
   21.3804    4.8321   30.7083 O   0  0  0  0  0  0  0  0  0  0  0  0
   22.7802    2.8581   31.1381 C   0  0  0  0  0  0  0  0  0  0  0  0
   21.9384    1.9302   32.0099 C   0  0  2  0  0  0  0  0  0  0  0  0
   24.7874   -1.6085   29.5825 N   0  0  0  0  0  0  0  0  0  0  0  0
   24.3772   -0.4167   29.1187 C   0  0  2  0  0  0  0  0  0  0  0  0
   24.7483   -0.0648   27.8658 N   0  0  0  0  0  0  0  0  0  0  0  0
   23.6247    0.4096   29.8847 N   0  0  0  0  0  0  0  0  0  0  0  0
   23.2786    0.0317   31.1325 C   0  0  2  0  0  0  0  0  0  0  0  0
   23.6898   -1.1890   31.6225 C   0  0  1  0  0  0  0  0  0  0  0  0
   24.4633   -2.0107   30.8248 C   0  0  0  0  0  0  0  0  0  0  0  0
   24.8518   -3.1189   31.2529 O   0  0  0  0  0  0  0  0  0  0  0  0
   23.2072   -1.3214   32.8739 N   0  0  0  0  0  0  0  0  0  0  0  0
   22.5169   -0.2027   33.1571 C   0  0  0  0  0  0  0  0  0  0  0  0
   22.5589    0.6038   32.0910 N   0  0  1  0  0  0  0  0  0  0  0  0
   18.4495    3.1997   25.9192 O   0  0  0  0  0  0  0  0  0  0  0  0
   20.8374    2.3382   25.8996 O   0  5  0  0  0  0  0  0  0  0  0  0
   18.9525    0.8541   26.6940 O   0  0  0  0  0  0  0  0  0  0  0  0
  1  3  1  1  0  0  0
  1 21  1  0  0  0  0
  1 22  1  0  0  0  0
  1 23  2  0  0  0  0
  2  3  1  0  0  0  0
  4  2  1  6  0  0  0
  4  5  1  0  0  0  0
  4  6  1  0  0  0  0
  6  7  1  1  0  0  0
  6  8  1  0  0  0  0
  8  9  1  0  0  0  0
  9  5  1  6  0  0  0
  9 20  1  0  0  0  0
 10 11  1  0  0  0  0
 10 16  1  0  0  0  0
 11 12  1  1  0  0  0
 11 13  1  0  0  0  0
 14 13  1  6  0  0  0
 14 15  1  0  0  0  0
 14 20  1  0  0  0  0
 15 16  1  1  0  0  0
 15 18  1  0  0  0  0
 16 17  2  0  0  0  0
 18 19  1  0  0  0  0
 20 19  1  1  0  0  0
M  CHG  1  22  -1
M  END
>  <CHROM.1>
169.55377832,152.85110966,177.58188291,84.56729431,21.90090626,1.08854024
29.60595336,-2.79718473,-0.86599918,1.16629794

>  <Name>
ligand

>  <RI>
0

>  <Rbt.Current_Directory>
/home/itssahil/PROJECTS/Mol_Feturizer/Test_systems_manuscript/rnas/3slm

>  <Rbt.Executable>
rbdock ($Id: //depot/dev/client3/rdock/2013.1/src/exe/rbdock.cxx#4 $)

>  <Rbt.Library>
libRbt.so (2013.1, Build901 2013/11/27)

>  <Rbt.Parameter_File>
/export/apps/rDock/src/rDock_2013.1_src/data/scripts/dock_solv.prm

>  <Rbt.Receptor>
prm/blind_docking_80.prm

>  <SCORE>
-17.0057

>  <SCORE.INTER>
-13.2248

>  <SCORE.INTER.CONST>
1

>  <SCORE.INTER.POLAR>
0

>  <SCORE.INTER.ROT>
4

>  <SCORE.INTER.SOLV>
20.8508

>  <SCORE.INTER.VDW>
-22.0334

>  <SCORE.INTER.norm>
-0.57499

>  <SCORE.INTRA>
-3.78091

>  <SCORE.INTRA.DIHEDRAL>
-4.93989

>  <SCORE.INTRA.DIHEDRAL.0>
8.62657

>  <SCORE.INTRA.POLAR>
0

>  <SCORE.INTRA.POLAR.0>
0

>  <SCORE.INTRA.REPUL>
0

>  <SCORE.INTRA.REPUL.0>
0

>  <SCORE.INTRA.SOLV>
0.0970168

>  <SCORE.INTRA.SOLV.lig_0>
-66.3641

>  <SCORE.INTRA.VDW>
-1.35947

>  <SCORE.INTRA.VDW.0>
0.452231

>  <SCORE.INTRA.norm>
-0.164387

>  <SCORE.RESTR>
0

>  <SCORE.RESTR.CAVITY>
0

>  <SCORE.RESTR.norm>
0

>  <SCORE.SYSTEM>
0

>  <SCORE.SYSTEM.CONST>
0

>  <SCORE.SYSTEM.DIHEDRAL>
0

>  <SCORE.SYSTEM.SOLV>
0

>  <SCORE.SYSTEM.norm>
0

>  <SCORE.heavy>
23

>  <SCORE.norm>
-0.739377

>  <RMSD>
6.702

$$$$
ligand
 OpenBabel02271912143D
libRbt.so/2013.1/901 2013/11/27
 23 25  0  0  0  0  0  0  0  0999 V2000
   19.8488    4.8656   31.9842 P   0  0  1  0  0  0  0  0  0  0  0  0
   21.2874    2.7668   31.3670 C   0  0  0  0  0  0  0  0  0  0  0  0
   21.1912    3.9854   32.0913 O   0  0  0  0  0  0  0  0  0  0  0  0
   21.3750    3.1207   29.8995 C   0  0  1  0  0  0  0  0  0  0  0  0
   22.6046    2.6911   29.3161 O   0  0  0  0  0  0  0  0  0  0  0  0
   20.2416    2.4371   29.1533 C   0  0  1  0  0  0  0  0  0  0  0  0
   19.6193    3.4098   28.2961 O   0  0  0  0  0  0  0  0  0  0  0  0
   20.9012    1.3138   28.3632 C   0  0  0  0  0  0  0  0  0  0  0  0
   22.3707    1.7197   28.2880 C   0  0  2  0  0  0  0  0  0  0  0  0
   23.8425   -1.6435   31.9012 N   0  0  0  0  0  0  0  0  0  0  0  0
   22.9594   -0.6383   32.0174 C   0  0  2  0  0  0  0  0  0  0  0  0
   22.3545   -0.4642   33.2155 N   0  0  0  0  0  0  0  0  0  0  0  0
   22.6768    0.1685   30.9662 N   0  0  0  0  0  0  0  0  0  0  0  0
   23.2917   -0.0372   29.7833 C   0  0  2  0  0  0  0  0  0  0  0  0
   24.2019   -1.0631   29.6481 C   0  0  1  0  0  0  0  0  0  0  0  0
   24.4672   -1.8772   30.7328 C   0  0  0  0  0  0  0  0  0  0  0  0
   25.2846   -2.8172   30.6291 O   0  0  0  0  0  0  0  0  0  0  0  0
   24.6694   -1.0437   28.3842 N   0  0  0  0  0  0  0  0  0  0  0  0
   24.0564   -0.0310   27.7463 C   0  0  0  0  0  0  0  0  0  0  0  0
   23.2328    0.5769   28.6070 N   0  0  1  0  0  0  0  0  0  0  0  0
   18.6856    3.9185   32.1523 O   0  0  0  0  0  0  0  0  0  0  0  0
   19.9905    5.8823   33.0934 O   0  5  0  0  0  0  0  0  0  0  0  0
   19.9488    5.4546   30.6031 O   0  0  0  0  0  0  0  0  0  0  0  0
  1  3  1  1  0  0  0
  1 21  1  0  0  0  0
  1 22  1  0  0  0  0
  1 23  2  0  0  0  0
  2  3  1  0  0  0  0
  4  2  1  1  0  0  0
  4  5  1  0  0  0  0
  4  6  1  0  0  0  0
  6  7  1  6  0  0  0
  6  8  1  0  0  0  0
  8  9  1  0  0  0  0
  9  5  1  1  0  0  0
  9 20  1  0  0  0  0
 10 11  1  0  0  0  0
 10 16  1  0  0  0  0
 11 12  1  6  0  0  0
 11 13  1  0  0  0  0
 14 13  1  1  0  0  0
 14 15  1  0  0  0  0
 14 20  1  0  0  0  0
 15 16  1  6  0  0  0
 15 18  1  0  0  0  0
 16 17  2  0  0  0  0
 18 19  1  0  0  0  0
 20 19  1  6  0  0  0
M  CHG  1  22  -1
M  END
>  <CHROM.1>
46.52118019,117.81547203,69.52003343,51.41058321,21.93438864,1.72140423,30.48254911
-3.02890645,0.95592040,-1.47481672

>  <Name>
ligand

>  <RI>
416

>  <Rbt.Current_Directory>
/home/itssahil/PROJECTS/Mol_Feturizer/Test_systems_manuscript/rnas/3slm

>  <Rbt.Executable>
rbdock ($Id: //depot/dev/client3/rdock/2013.1/src/exe/rbdock.cxx#4 $)

>  <Rbt.Library>
libRbt.so (2013.1, Build901 2013/11/27)

>  <Rbt.Parameter_File>
/export/apps/rDock/src/rDock_2013.1_src/data/scripts/dock_solv.prm

>  <Rbt.Receptor>
prm/pocket_docking_5.prm

>  <SCORE>
-16.8368

>  <SCORE.INTER>
-15.1856

>  <SCORE.INTER.CONST>
1

>  <SCORE.INTER.POLAR>
0

>  <SCORE.INTER.ROT>
4

>  <SCORE.INTER.SOLV>
18.8951

>  <SCORE.INTER.VDW>
-22.6888

>  <SCORE.INTER.norm>
-0.660244

>  <SCORE.INTRA>
-1.65122

>  <SCORE.INTRA.DIHEDRAL>
-1.48831

>  <SCORE.INTRA.DIHEDRAL.0>
8.62657

>  <SCORE.INTRA.POLAR>
0

>  <SCORE.INTRA.POLAR.0>
0

>  <SCORE.INTRA.REPUL>
0

>  <SCORE.INTRA.REPUL.0>
0

>  <SCORE.INTRA.SOLV>
3.50656

>  <SCORE.INTRA.SOLV.lig_0>
-66.3641

>  <SCORE.INTRA.VDW>
-2.66035

>  <SCORE.INTRA.VDW.0>
0.452231

>  <SCORE.INTRA.norm>
-0.0717921

>  <SCORE.RESTR>
0

>  <SCORE.RESTR.CAVITY>
0

>  <SCORE.RESTR.norm>
0

>  <SCORE.SYSTEM>
0

>  <SCORE.SYSTEM.CONST>
0

>  <SCORE.SYSTEM.DIHEDRAL>
0

>  <SCORE.SYSTEM.SOLV>
0

>  <SCORE.SYSTEM.norm>
0

>  <SCORE.heavy>
23

>  <SCORE.norm>
-0.732036

>  <RMSD>
6.715

$$$$
ligand
 OpenBabel02271912143D
libRbt.so/2013.1/901 2013/11/27
 23 25  0  0  0  0  0  0  0  0999 V2000
   19.2230    2.5904   26.2484 P   0  0  1  0  0  0  0  0  0  0  0  0
   21.0207    1.6498   27.9033 C   0  0  0  0  0  0  0  0  0  0  0  0
   20.7456    2.4129   26.7367 O   0  0  0  0  0  0  0  0  0  0  0  0
   20.6242    2.4909   29.0957 C   0  0  1  0  0  0  0  0  0  0  0  0
   20.5236    1.7158   30.2898 O   0  0  0  0  0  0  0  0  0  0  0  0
   21.6777    3.5619   29.3229 C   0  0  1  0  0  0  0  0  0  0  0  0
   21.0049    4.8190   29.5103 O   0  0  0  0  0  0  0  0  0  0  0  0
   22.4332    3.1232   30.5710 C   0  0  0  0  0  0  0  0  0  0  0  0
   21.4830    2.1494   31.2628 C   0  0  2  0  0  0  0  0  0  0  0  0
   25.0080   -1.3836   29.9885 N   0  0  0  0  0  0  0  0  0  0  0  0
   24.5671   -0.3516   29.2508 C   0  0  2  0  0  0  0  0  0  0  0  0
   25.1005   -0.1826   28.0185 N   0  0  0  0  0  0  0  0  0  0  0  0
   23.6262    0.4977   29.7294 N   0  0  0  0  0  0  0  0  0  0  0  0
   23.1207    0.3055   30.9653 C   0  0  2  0  0  0  0  0  0  0  0  0
   23.5611   -0.7500   31.7342 C   0  0  1  0  0  0  0  0  0  0  0  0
   24.5274   -1.5977   31.2267 C   0  0  0  0  0  0  0  0  0  0  0  0
   24.9449   -2.5570   31.9106 O   0  0  0  0  0  0  0  0  0  0  0  0
   22.8978   -0.7185   32.9069 N   0  0  0  0  0  0  0  0  0  0  0  0
   22.0682    0.3391   32.8692 C   0  0  0  0  0  0  0  0  0  0  0  0
   22.2050    0.9445   31.6845 N   0  0  1  0  0  0  0  0  0  0  0  0
   19.2713    3.1559   24.8498 O   0  0  0  0  0  0  0  0  0  0  0  0
   18.6469    1.1960   26.3377 O   0  5  0  0  0  0  0  0  0  0  0  0
   18.6594    3.5473   27.2639 O   0  0  0  0  0  0  0  0  0  0  0  0
  1  3  1  1  0  0  0
  1 21  1  0  0  0  0
  1 22  1  0  0  0  0
  1 23  2  0  0  0  0
  2  3  1  0  0  0  0
  4  2  1  6  0  0  0
  4  5  1  0  0  0  0
  4  6  1  0  0  0  0
  6  7  1  1  0  0  0
  6  8  1  0  0  0  0
  8  9  1  0  0  0  0
  9  5  1  6  0  0  0
  9 20  1  0  0  0  0
 10 11  1  0  0  0  0
 10 16  1  0  0  0  0
 11 12  1  1  0  0  0
 11 13  1  0  0  0  0
 14 13  1  6  0  0  0
 14 15  1  0  0  0  0
 14 20  1  0  0  0  0
 15 16  1  1  0  0  0
 15 18  1  0  0  0  0
 16 17  2  0  0  0  0
 18 19  1  0  0  0  0
 20 19  1  1  0  0  0
M  CHG  1  22  -1
M  END
>  <CHROM.1>
-167.21093455,164.64516161,-74.88076570,74.34756736,21.80080195,1.31147659
29.27642045,-2.64323879,-0.80971549,1.32296790

>  <Name>
ligand

>  <RI>
416

>  <Rbt.Current_Directory>
/home/itssahil/PROJECTS/Mol_Feturizer/Test_systems_manuscript/rnas/3slm

>  <Rbt.Executable>
rbdock ($Id: //depot/dev/client3/rdock/2013.1/src/exe/rbdock.cxx#4 $)

>  <Rbt.Library>
libRbt.so (2013.1, Build901 2013/11/27)

>  <Rbt.Parameter_File>
/export/apps/rDock/src/rDock_2013.1_src/data/scripts/dock_solv.prm

>  <Rbt.Receptor>
prm/pocket_docking_4.prm

>  <SCORE>
-15.7837

>  <SCORE.INTER>
-12.6726

>  <SCORE.INTER.CONST>
1

>  <SCORE.INTER.POLAR>
0

>  <SCORE.INTER.ROT>
4

>  <SCORE.INTER.SOLV>
20.8176

>  <SCORE.INTER.VDW>
-21.6543

>  <SCORE.INTER.norm>
-0.550984

>  <SCORE.INTRA>
-3.11108

>  <SCORE.INTRA.DIHEDRAL>
-5.26338

>  <SCORE.INTRA.DIHEDRAL.0>
8.62657

>  <SCORE.INTRA.POLAR>
0

>  <SCORE.INTRA.POLAR.0>
0

>  <SCORE.INTRA.REPUL>
0

>  <SCORE.INTRA.REPUL.0>
0

>  <SCORE.INTRA.SOLV>
3.132

>  <SCORE.INTRA.SOLV.lig_0>
-66.3641

>  <SCORE.INTRA.VDW>
-2.04539

>  <SCORE.INTRA.VDW.0>
0.452231

>  <SCORE.INTRA.norm>
-0.135265

>  <SCORE.RESTR>
0

>  <SCORE.RESTR.CAVITY>
0

>  <SCORE.RESTR.norm>
0

>  <SCORE.SYSTEM>
0

>  <SCORE.SYSTEM.CONST>
0

>  <SCORE.SYSTEM.DIHEDRAL>
0

>  <SCORE.SYSTEM.SOLV>
0

>  <SCORE.SYSTEM.norm>
0

>  <SCORE.heavy>
23

>  <SCORE.norm>
-0.686248

>  <RMSD>
6.729

$$$$
ligand
 OpenBabel02271912143D
libRbt.so/2013.1/901 2013/11/27
 23 25  0  0  0  0  0  0  0  0999 V2000
   19.4384    2.1560   26.5119 P   0  0  1  0  0  0  0  0  0  0  0  0
   20.4605    1.8607   28.9043 C   0  0  0  0  0  0  0  0  0  0  0  0
   19.6963    2.6646   28.0163 O   0  0  0  0  0  0  0  0  0  0  0  0
   20.5450    2.5992   30.2211 C   0  0  1  0  0  0  0  0  0  0  0  0
   20.6926    1.7095   31.3272 O   0  0  0  0  0  0  0  0  0  0  0  0
   21.7533    3.5201   30.1996 C   0  0  1  0  0  0  0  0  0  0  0  0
   21.3399    4.8122   30.6767 O   0  0  0  0  0  0  0  0  0  0  0  0
   22.7729    2.8660   31.1236 C   0  0  0  0  0  0  0  0  0  0  0  0
   21.9428    1.9265   31.9943 C   0  0  2  0  0  0  0  0  0  0  0  0
   24.9060   -1.5513   29.6161 N   0  0  0  0  0  0  0  0  0  0  0  0
   24.4821   -0.3666   29.1468 C   0  0  2  0  0  0  0  0  0  0  0  0
   24.8708   -0.0047   27.9019 N   0  0  0  0  0  0  0  0  0  0  0  0
   23.6991    0.4434   29.8995 N   0  0  0  0  0  0  0  0  0  0  0  0
   23.3361    0.0561   31.1396 C   0  0  2  0  0  0  0  0  0  0  0  0
   23.7611   -1.1576   31.6352 C   0  0  1  0  0  0  0  0  0  0  0  0
   24.5656   -1.9625   30.8511 C   0  0  0  0  0  0  0  0  0  0  0  0
   24.9669   -3.0640   31.2846 O   0  0  0  0  0  0  0  0  0  0  0  0
   23.2569   -1.3021   32.8766 N   0  0  0  0  0  0  0  0  0  0  0  0
   22.5398   -0.1975   33.1485 C   0  0  0  0  0  0  0  0  0  0  0  0
   22.5870    0.6121   32.0850 N   0  0  1  0  0  0  0  0  0  0  0  0
   18.9747    0.7226   26.6042 O   0  0  0  0  0  0  0  0  0  0  0  0
   18.3996    3.1143   25.9766 O   0  5  0  0  0  0  0  0  0  0  0  0
   20.7928    2.3091   25.8743 O   0  0  0  0  0  0  0  0  0  0  0  0
  1  3  1  1  0  0  0
  1 21  1  0  0  0  0
  1 22  1  0  0  0  0
  1 23  2  0  0  0  0
  2  3  1  0  0  0  0
  4  2  1  6  0  0  0
  4  5  1  0  0  0  0
  4  6  1  0  0  0  0
  6  7  1  1  0  0  0
  6  8  1  0  0  0  0
  8  9  1  0  0  0  0
  9  5  1  6  0  0  0
  9 20  1  0  0  0  0
 10 11  1  0  0  0  0
 10 16  1  0  0  0  0
 11 12  1  1  0  0  0
 11 13  1  0  0  0  0
 14 13  1  6  0  0  0
 14 15  1  0  0  0  0
 14 20  1  0  0  0  0
 15 16  1  1  0  0  0
 15 18  1  0  0  0  0
 16 17  2  0  0  0  0
 18 19  1  0  0  0  0
 20 19  1  1  0  0  0
M  CHG  1  22  -1
M  END
>  <CHROM.1>
48.29197542,151.95969165,179.29246891,85.41985443,21.92846433,1.07384784
29.60136210,-2.78912962,-0.84370501,1.16498782

>  <Name>
ligand

>  <RI>
416

>  <Rbt.Current_Directory>
/home/itssahil/PROJECTS/Mol_Feturizer/Test_systems_manuscript/rnas/3slm

>  <Rbt.Executable>
rbdock ($Id: //depot/dev/client3/rdock/2013.1/src/exe/rbdock.cxx#4 $)

>  <Rbt.Library>
libRbt.so (2013.1, Build901 2013/11/27)

>  <Rbt.Parameter_File>
/export/apps/rDock/src/rDock_2013.1_src/data/scripts/dock_solv.prm

>  <Rbt.Receptor>
prm/pocket_docking_4.prm

>  <SCORE>
-16.6943

>  <SCORE.INTER>
-12.5346

>  <SCORE.INTER.CONST>
1

>  <SCORE.INTER.POLAR>
0

>  <SCORE.INTER.ROT>
4

>  <SCORE.INTER.SOLV>
21.7691

>  <SCORE.INTER.VDW>
-21.8794

>  <SCORE.INTER.norm>
-0.544983

>  <SCORE.INTRA>
-4.15973

>  <SCORE.INTRA.DIHEDRAL>
-4.8017

>  <SCORE.INTRA.DIHEDRAL.0>
8.62657

>  <SCORE.INTRA.POLAR>
0

>  <SCORE.INTRA.POLAR.0>
0

>  <SCORE.INTRA.REPUL>
0

>  <SCORE.INTRA.REPUL.0>
0

>  <SCORE.INTRA.SOLV>
-0.632546

>  <SCORE.INTRA.SOLV.lig_0>
-66.3641

>  <SCORE.INTRA.VDW>
-1.44261

>  <SCORE.INTRA.VDW.0>
0.452231

>  <SCORE.INTRA.norm>
-0.180858

>  <SCORE.RESTR>
0

>  <SCORE.RESTR.CAVITY>
0

>  <SCORE.RESTR.norm>
0

>  <SCORE.SYSTEM>
0

>  <SCORE.SYSTEM.CONST>
0

>  <SCORE.SYSTEM.DIHEDRAL>
0

>  <SCORE.SYSTEM.SOLV>
0

>  <SCORE.SYSTEM.norm>
0

>  <SCORE.heavy>
23

>  <SCORE.norm>
-0.725841

>  <RMSD>
6.733

$$$$
ligand
 OpenBabel02271912143D
libRbt.so/2013.1/901 2013/11/27
 23 25  0  0  0  0  0  0  0  0999 V2000
   16.8708   -2.8243   23.8025 P   0  0  1  0  0  0  0  0  0  0  0  0
   18.1764   -0.5567   23.8949 C   0  0  0  0  0  0  0  0  0  0  0  0
   17.1823   -1.3936   24.4693 O   0  0  0  0  0  0  0  0  0  0  0  0
   17.6771    0.8674   23.9912 C   0  0  1  0  0  0  0  0  0  0  0  0
   17.4876    1.2795   25.3444 O   0  0  0  0  0  0  0  0  0  0  0  0
   18.6989    1.7978   23.3597 C   0  0  1  0  0  0  0  0  0  0  0  0
   18.0016    2.6993   22.4828 O   0  0  0  0  0  0  0  0  0  0  0  0
   19.3552    2.5246   24.5268 C   0  0  0  0  0  0  0  0  0  0  0  0
   18.3613    2.3672   25.6745 C   0  0  2  0  0  0  0  0  0  0  0  0
   20.8175    3.9767   29.9063 N   0  0  0  0  0  0  0  0  0  0  0  0
   20.2934    4.7226   28.9200 C   0  0  2  0  0  0  0  0  0  0  0  0
   20.3963    6.0681   29.0228 N   0  0  0  0  0  0  0  0  0  0  0  0
   19.6736    4.1461   27.8620 N   0  0  0  0  0  0  0  0  0  0  0  0
   19.5813    2.8020   27.7941 C   0  0  2  0  0  0  0  0  0  0  0  0
   20.1157    2.0224   28.7970 C   0  0  1  0  0  0  0  0  0  0  0  0
   20.7360    2.6343   29.8696 C   0  0  0  0  0  0  0  0  0  0  0  0
   21.2214    1.9453   30.7927 O   0  0  0  0  0  0  0  0  0  0  0  0
   19.8965    0.7300   28.4838 N   0  0  0  0  0  0  0  0  0  0  0  0
   19.2332    0.7086   27.3143 C   0  0  0  0  0  0  0  0  0  0  0  0
   19.0579    1.9688   26.9020 N   0  0  1  0  0  0  0  0  0  0  0  0
   18.0889   -3.2115   22.9998 O   0  0  0  0  0  0  0  0  0  0  0  0
   16.5911   -3.7237   24.9844 O   0  5  0  0  0  0  0  0  0  0  0  0
   15.6600   -2.5382   22.9561 O   0  0  0  0  0  0  0  0  0  0  0  0
  1  3  1  1  0  0  0
  1 21  1  0  0  0  0
  1 22  1  0  0  0  0
  1 23  2  0  0  0  0
  2  3  1  0  0  0  0
  4  2  1  1  0  0  0
  4  5  1  0  0  0  0
  4  6  1  0  0  0  0
  6  7  1  6  0  0  0
  6  8  1  0  0  0  0
  8  9  1  0  0  0  0
  9  5  1  6  0  0  0
  9 20  1  0  0  0  0
 10 11  1  0  0  0  0
 10 16  1  0  0  0  0
 11 12  1  1  0  0  0
 11 13  1  0  0  0  0
 14 13  1  6  0  0  0
 14 15  1  0  0  0  0
 14 20  1  0  0  0  0
 15 16  1  1  0  0  0
 15 18  1  0  0  0  0
 16 17  2  0  0  0  0
 18 19  1  0  0  0  0
 20 19  1  1  0  0  0
M  CHG  1  22  -1
M  END
>  <CHROM.1>
21.95676479,61.78215076,141.82366475,-155.11466479,18.66233835,0.93465957
26.03672692,-2.89057592,-1.15584694,-0.53604763

>  <Name>
ligand

>  <RI>
0

>  <Rbt.Current_Directory>
/home/itssahil/PROJECTS/Mol_Feturizer/Test_systems_manuscript/rnas/3slm

>  <Rbt.Executable>
rbdock ($Id: //depot/dev/client3/rdock/2013.1/src/exe/rbdock.cxx#4 $)

>  <Rbt.Library>
libRbt.so (2013.1, Build901 2013/11/27)

>  <Rbt.Parameter_File>
/export/apps/rDock/src/rDock_2013.1_src/data/scripts/dock_solv.prm

>  <Rbt.Receptor>
prm/pocket_docking_3.prm

>  <SCORE>
-13.9317

>  <SCORE.INTER>
-12.6932

>  <SCORE.INTER.CONST>
1

>  <SCORE.INTER.POLAR>
0

>  <SCORE.INTER.ROT>
4

>  <SCORE.INTER.SOLV>
24.9362

>  <SCORE.INTER.VDW>
-23.0409

>  <SCORE.INTER.norm>
-0.551878

>  <SCORE.INTRA>
-2.17679

>  <SCORE.INTRA.DIHEDRAL>
-0.604004

>  <SCORE.INTRA.DIHEDRAL.0>
8.62657

>  <SCORE.INTRA.POLAR>
0

>  <SCORE.INTRA.POLAR.0>
0

>  <SCORE.INTRA.REPUL>
0

>  <SCORE.INTRA.REPUL.0>
0

>  <SCORE.INTRA.SOLV>
-0.721757

>  <SCORE.INTRA.SOLV.lig_0>
-66.3641

>  <SCORE.INTRA.VDW>
-1.51391

>  <SCORE.INTRA.VDW.0>
0.452231

>  <SCORE.INTRA.norm>
-0.0946431

>  <SCORE.RESTR>
0.938241

>  <SCORE.RESTR.CAVITY>
0.938241

>  <SCORE.RESTR.norm>
0.0407931

>  <SCORE.SYSTEM>
0

>  <SCORE.SYSTEM.CONST>
0

>  <SCORE.SYSTEM.DIHEDRAL>
0

>  <SCORE.SYSTEM.SOLV>
0

>  <SCORE.SYSTEM.norm>
0

>  <SCORE.heavy>
23

>  <SCORE.norm>
-0.605728

>  <RMSD>
6.734

$$$$
ligand
 OpenBabel02271912143D
libRbt.so/2013.1/901 2013/11/27
 23 25  0  0  0  0  0  0  0  0999 V2000
   19.4585    2.5561   26.1461 P   0  0  1  0  0  0  0  0  0  0  0  0
   21.3655    1.7491   27.7485 C   0  0  0  0  0  0  0  0  0  0  0  0
   21.0082    2.2835   26.4813 O   0  0  0  0  0  0  0  0  0  0  0  0
   21.4761    2.9094   28.7118 C   0  0  1  0  0  0  0  0  0  0  0  0
   21.2698    2.5053   30.0649 O   0  0  0  0  0  0  0  0  0  0  0  0
   22.8684    3.5093   28.6119 C   0  0  1  0  0  0  0  0  0  0  0  0
   22.7343    4.9377   28.5133 O   0  0  0  0  0  0  0  0  0  0  0  0
   23.5804    3.0862   29.8906 C   0  0  0  0  0  0  0  0  0  0  0  0
   22.4487    2.7275   30.8499 C   0  0  2  0  0  0  0  0  0  0  0  0
   24.6631   -1.9070   30.4619 N   0  0  0  0  0  0  0  0  0  0  0  0
   24.5943   -0.9425   29.5298 C   0  0  2  0  0  0  0  0  0  0  0  0
   25.1771   -1.1794   28.3315 N   0  0  0  0  0  0  0  0  0  0  0  0
   23.9702    0.2327   29.7852 N   0  0  0  0  0  0  0  0  0  0  0  0
   23.4063    0.4399   30.9930 C   0  0  2  0  0  0  0  0  0  0  0  0
   23.4664   -0.5405   31.9597 C   0  0  1  0  0  0  0  0  0  0  0  0
   24.1154   -1.7275   31.6776 C   0  0  0  0  0  0  0  0  0  0  0  0
   24.1866   -2.6268   32.5428 O   0  0  0  0  0  0  0  0  0  0  0  0
   22.8267   -0.0869   33.0558 N   0  0  0  0  0  0  0  0  0  0  0  0
   22.3852    1.1524   32.7774 C   0  0  0  0  0  0  0  0  0  0  0  0
   22.7333    1.4555   31.5221 N   0  0  1  0  0  0  0  0  0  0  0  0
   18.9556    3.5515   27.1631 O   0  0  0  0  0  0  0  0  0  0  0  0
   19.4785    3.0720   24.7256 O   0  5  0  0  0  0  0  0  0  0  0  0
   18.8440    1.1899   26.2883 O   0  0  0  0  0  0  0  0  0  0  0  0
  1  3  1  1  0  0  0
  1 21  1  0  0  0  0
  1 22  1  0  0  0  0
  1 23  2  0  0  0  0
  2  3  1  0  0  0  0
  4  2  1  6  0  0  0
  4  5  1  0  0  0  0
  4  6  1  0  0  0  0
  6  7  1  1  0  0  0
  6  8  1  0  0  0  0
  8  9  1  0  0  0  0
  9  5  1  6  0  0  0
  9 20  1  0  0  0  0
 10 11  1  0  0  0  0
 10 16  1  0  0  0  0
 11 12  1  1  0  0  0
 11 13  1  0  0  0  0
 14 13  1  6  0  0  0
 14 15  1  0  0  0  0
 14 20  1  0  0  0  0
 15 16  1  1  0  0  0
 15 18  1  0  0  0  0
 16 17  2  0  0  0  0
 18 19  1  0  0  0  0
 20 19  1  1  0  0  0
M  CHG  1  22  -1
M  END
>  <CHROM.1>
60.27517923,155.31394381,-84.93678584,84.15651049,22.15127413,1.36530799
29.18790274,-3.13845200,-1.00032198,0.63695256

>  <Name>
ligand

>  <RI>
0

>  <Rbt.Current_Directory>
/home/itssahil/PROJECTS/Mol_Feturizer/Test_systems_manuscript/rnas/3slm

>  <Rbt.Executable>
rbdock ($Id: //depot/dev/client3/rdock/2013.1/src/exe/rbdock.cxx#4 $)

>  <Rbt.Library>
libRbt.so (2013.1, Build901 2013/11/27)

>  <Rbt.Parameter_File>
/export/apps/rDock/src/rDock_2013.1_src/data/scripts/dock_solv.prm

>  <Rbt.Receptor>
prm/pocket_docking_7.prm

>  <SCORE>
-16.7045

>  <SCORE.INTER>
-13.6146

>  <SCORE.INTER.CONST>
1

>  <SCORE.INTER.POLAR>
0

>  <SCORE.INTER.ROT>
4

>  <SCORE.INTER.SOLV>
20.5002

>  <SCORE.INTER.VDW>
-22.1765

>  <SCORE.INTER.norm>
-0.591939

>  <SCORE.INTRA>
-3.08987

>  <SCORE.INTRA.DIHEDRAL>
-2.80165

>  <SCORE.INTRA.DIHEDRAL.0>
8.62657

>  <SCORE.INTRA.POLAR>
0

>  <SCORE.INTRA.POLAR.0>
0

>  <SCORE.INTRA.REPUL>
0

>  <SCORE.INTRA.REPUL.0>
0

>  <SCORE.INTRA.SOLV>
0.0811889

>  <SCORE.INTRA.SOLV.lig_0>
-66.3641

>  <SCORE.INTRA.VDW>
-1.72964

>  <SCORE.INTRA.VDW.0>
0.452231

>  <SCORE.INTRA.norm>
-0.134342

>  <SCORE.RESTR>
0

>  <SCORE.RESTR.CAVITY>
0

>  <SCORE.RESTR.norm>
0

>  <SCORE.SYSTEM>
0

>  <SCORE.SYSTEM.CONST>
0

>  <SCORE.SYSTEM.DIHEDRAL>
0

>  <SCORE.SYSTEM.SOLV>
0

>  <SCORE.SYSTEM.norm>
0

>  <SCORE.heavy>
23

>  <SCORE.norm>
-0.726281

>  <RMSD>
6.790

$$$$
ligand
 OpenBabel02271912143D
libRbt.so/2013.1/901 2013/11/27
 23 25  0  0  0  0  0  0  0  0999 V2000
   16.8410   -2.7721   23.8083 P   0  0  1  0  0  0  0  0  0  0  0  0
   17.8935   -0.5559   24.7227 C   0  0  0  0  0  0  0  0  0  0  0  0
   17.2464   -1.2234   23.6483 O   0  0  0  0  0  0  0  0  0  0  0  0
   17.6952    0.9288   24.5156 C   0  0  1  0  0  0  0  0  0  0  0  0
   17.6444    1.6412   25.7513 O   0  0  0  0  0  0  0  0  0  0  0  0
   18.8586    1.4792   23.7081 C   0  0  1  0  0  0  0  0  0  0  0  0
   18.3242    2.3037   22.6581 O   0  0  0  0  0  0  0  0  0  0  0  0
   19.6919    2.2810   24.7001 C   0  0  0  0  0  0  0  0  0  0  0  0
   18.7312    2.5709   25.8502 C   0  0  2  0  0  0  0  0  0  0  0  0
   20.3164    4.5494   30.3340 N   0  0  0  0  0  0  0  0  0  0  0  0
   19.7295    5.1889   29.3092 C   0  0  2  0  0  0  0  0  0  0  0  0
   19.5018    6.5165   29.4402 N   0  0  0  0  0  0  0  0  0  0  0  0
   19.3687    4.5238   28.1852 N   0  0  0  0  0  0  0  0  0  0  0  0
   19.6028    3.1987   28.0900 C   0  0  2  0  0  0  0  0  0  0  0  0
   20.2060    2.5282   29.1320 C   0  0  1  0  0  0  0  0  0  0  0  0
   20.5575    3.2273   30.2710 C   0  0  0  0  0  0  0  0  0  0  0  0
   21.0997    2.6365   31.2298 O   0  0  0  0  0  0  0  0  0  0  0  0
   20.3290    1.2330   28.7804 N   0  0  0  0  0  0  0  0  0  0  0  0
   19.8062    1.1012   27.5485 C   0  0  0  0  0  0  0  0  0  0  0  0
   19.3796    2.3003   27.1375 N   0  0  1  0  0  0  0  0  0  0  0  0
   18.0343   -3.4816   24.4005 O   0  0  0  0  0  0  0  0  0  0  0  0
   15.6259   -2.7395   24.7064 O   0  5  0  0  0  0  0  0  0  0  0  0
   16.5398   -3.1831   22.3924 O   0  0  0  0  0  0  0  0  0  0  0  0
  1  3  1  6  0  0  0
  1 21  1  0  0  0  0
  1 22  1  0  0  0  0
  1 23  2  0  0  0  0
  2  3  1  0  0  0  0
  4  2  1  1  0  0  0
  4  5  1  0  0  0  0
  4  6  1  0  0  0  0
  6  7  1  6  0  0  0
  6  8  1  0  0  0  0
  8  9  1  0  0  0  0
  9  5  1  6  0  0  0
  9 20  1  0  0  0  0
 10 11  1  0  0  0  0
 10 16  1  0  0  0  0
 11 12  1  1  0  0  0
 11 13  1  0  0  0  0
 14 13  1  6  0  0  0
 14 15  1  0  0  0  0
 14 20  1  0  0  0  0
 15 16  1  1  0  0  0
 15 18  1  0  0  0  0
 16 17  2  0  0  0  0
 18 19  1  0  0  0  0
 20 19  1  1  0  0  0
M  CHG  1  22  -1
M  END
>  <CHROM.1>
-45.87668867,149.34934413,-159.63277961,-125.55168122,18.65506930,1.14462123
26.28274718,-2.85934899,-1.20616246,-0.51241874

>  <Name>
ligand

>  <RI>
416

>  <Rbt.Current_Directory>
/home/itssahil/PROJECTS/Mol_Feturizer/Test_systems_manuscript/rnas/3slm

>  <Rbt.Executable>
rbdock ($Id: //depot/dev/client3/rdock/2013.1/src/exe/rbdock.cxx#4 $)

>  <Rbt.Library>
libRbt.so (2013.1, Build901 2013/11/27)

>  <Rbt.Parameter_File>
/export/apps/rDock/src/rDock_2013.1_src/data/scripts/dock_solv.prm

>  <Rbt.Receptor>
prm/pocket_docking_4.prm

>  <SCORE>
-19.6867

>  <SCORE.INTER>
-16.231

>  <SCORE.INTER.CONST>
1

>  <SCORE.INTER.POLAR>
0

>  <SCORE.INTER.ROT>
4

>  <SCORE.INTER.SOLV>
24.1064

>  <SCORE.INTER.VDW>
-25.1228

>  <SCORE.INTER.norm>
-0.705694

>  <SCORE.INTRA>
-3.45577

>  <SCORE.INTRA.DIHEDRAL>
-2.48385

>  <SCORE.INTRA.DIHEDRAL.0>
8.62657

>  <SCORE.INTRA.POLAR>
0

>  <SCORE.INTRA.POLAR.0>
0

>  <SCORE.INTRA.REPUL>
0

>  <SCORE.INTRA.REPUL.0>
0

>  <SCORE.INTRA.SOLV>
-0.714249

>  <SCORE.INTRA.SOLV.lig_0>
-66.3641

>  <SCORE.INTRA.VDW>
-1.85672

>  <SCORE.INTRA.VDW.0>
0.452231

>  <SCORE.INTRA.norm>
-0.150251

>  <SCORE.RESTR>
0

>  <SCORE.RESTR.CAVITY>
0

>  <SCORE.RESTR.norm>
0

>  <SCORE.SYSTEM>
0

>  <SCORE.SYSTEM.CONST>
0

>  <SCORE.SYSTEM.DIHEDRAL>
0

>  <SCORE.SYSTEM.SOLV>
0

>  <SCORE.SYSTEM.norm>
0

>  <SCORE.heavy>
23

>  <SCORE.norm>
-0.855945

>  <RMSD>
6.799

$$$$
ligand
 OpenBabel02271912143D
libRbt.so/2013.1/901 2013/11/27
 23 25  0  0  0  0  0  0  0  0999 V2000
   18.3601    1.6091   24.3449 P   0  0  1  0  0  0  0  0  0  0  0  0
   19.9578    2.9119   25.9590 C   0  0  0  0  0  0  0  0  0  0  0  0
   18.8400    2.0464   25.8169 O   0  0  0  0  0  0  0  0  0  0  0  0
   20.0322    3.3166   27.4140 C   0  0  1  0  0  0  0  0  0  0  0  0
   20.5076    2.2562   28.2426 O   0  0  0  0  0  0  0  0  0  0  0  0
   20.9915    4.4860   27.5578 C   0  0  1  0  0  0  0  0  0  0  0  0
   20.3592    5.4857   28.3758 O   0  0  0  0  0  0  0  0  0  0  0  0
   22.2354    3.9057   28.2190 C   0  0  0  0  0  0  0  0  0  0  0  0
   21.7482    2.6123   28.8666 C   0  0  2  0  0  0  0  0  0  0  0  0
   24.2106   -1.5070   30.7375 N   0  0  0  0  0  0  0  0  0  0  0  0
   23.3855   -0.6705   31.3881 C   0  0  2  0  0  0  0  0  0  0  0  0
   23.1399   -0.9159   32.6961 N   0  0  0  0  0  0  0  0  0  0  0  0
   22.8106    0.3787   30.7521 N   0  0  0  0  0  0  0  0  0  0  0  0
   23.0703    0.5905   29.4454 C   0  0  2  0  0  0  0  0  0  0  0  0
   23.9164   -0.2575   28.7641 C   0  0  1  0  0  0  0  0  0  0  0  0
   24.4842   -1.3252   29.4329 C   0  0  0  0  0  0  0  0  0  0  0  0
   25.2492   -2.1097   28.8313 O   0  0  0  0  0  0  0  0  0  0  0  0
   24.0097    0.1780   27.4920 N   0  0  0  0  0  0  0  0  0  0  0  0
   23.2317    1.2695   27.3846 C   0  0  0  0  0  0  0  0  0  0  0  0
   22.6770    1.5149   28.5766 N   0  0  1  0  0  0  0  0  0  0  0  0
   19.5688    1.0501   23.6346 O   0  0  0  0  0  0  0  0  0  0  0  0
   17.2662    0.5989   24.6036 O   0  5  0  0  0  0  0  0  0  0  0  0
   17.8655    2.9044   23.7598 O   0  0  0  0  0  0  0  0  0  0  0  0
  1  3  1  1  0  0  0
  1 21  1  0  0  0  0
  1 22  1  0  0  0  0
  1 23  2  0  0  0  0
  2  3  1  0  0  0  0
  4  2  1  6  0  0  0
  4  5  1  0  0  0  0
  4  6  1  0  0  0  0
  6  7  1  1  0  0  0
  6  8  1  0  0  0  0
  8  9  1  0  0  0  0
  9  5  1  6  0  0  0
  9 20  1  0  0  0  0
 10 11  1  0  0  0  0
 10 16  1  0  0  0  0
 11 12  1  6  0  0  0
 11 13  1  0  0  0  0
 14 13  1  1  0  0  0
 14 15  1  0  0  0  0
 14 20  1  0  0  0  0
 15 16  1  6  0  0  0
 15 18  1  0  0  0  0
 16 17  2  0  0  0  0
 18 19  1  0  0  0  0
 20 19  1  6  0  0  0
M  CHG  1  22  -1
M  END
>  <CHROM.1>
53.00053970,73.94869832,171.16633944,-105.41623786,21.36342706,1.37321101
27.63560621,-3.12979010,-0.85617001,0.51775567

>  <Name>
ligand

>  <RI>
416

>  <Rbt.Current_Directory>
/home/itssahil/PROJECTS/Mol_Feturizer/Test_systems_manuscript/rnas/3slm

>  <Rbt.Executable>
rbdock ($Id: //depot/dev/client3/rdock/2013.1/src/exe/rbdock.cxx#4 $)

>  <Rbt.Library>
libRbt.so (2013.1, Build901 2013/11/27)

>  <Rbt.Parameter_File>
/export/apps/rDock/src/rDock_2013.1_src/data/scripts/dock_solv.prm

>  <Rbt.Receptor>
prm/pocket_docking_4.prm

>  <SCORE>
-18.4915

>  <SCORE.INTER>
-13.3442

>  <SCORE.INTER.CONST>
1

>  <SCORE.INTER.POLAR>
0

>  <SCORE.INTER.ROT>
4

>  <SCORE.INTER.SOLV>
22.1601

>  <SCORE.INTER.VDW>
-22.5495

>  <SCORE.INTER.norm>
-0.580183

>  <SCORE.INTRA>
-5.1473

>  <SCORE.INTRA.DIHEDRAL>
-6.34152

>  <SCORE.INTRA.DIHEDRAL.0>
8.62657

>  <SCORE.INTRA.POLAR>
0

>  <SCORE.INTRA.POLAR.0>
0

>  <SCORE.INTRA.REPUL>
0

>  <SCORE.INTRA.REPUL.0>
0

>  <SCORE.INTRA.SOLV>
-0.75107

>  <SCORE.INTRA.SOLV.lig_0>
-66.3641

>  <SCORE.INTRA.VDW>
-1.601

>  <SCORE.INTRA.VDW.0>
0.452231

>  <SCORE.INTRA.norm>
-0.223796

>  <SCORE.RESTR>
0

>  <SCORE.RESTR.CAVITY>
0

>  <SCORE.RESTR.norm>
0

>  <SCORE.SYSTEM>
0

>  <SCORE.SYSTEM.CONST>
0

>  <SCORE.SYSTEM.DIHEDRAL>
0

>  <SCORE.SYSTEM.SOLV>
0

>  <SCORE.SYSTEM.norm>
0

>  <SCORE.heavy>
23

>  <SCORE.norm>
-0.803979

>  <RMSD>
6.807

$$$$
ligand
 OpenBabel02271912143D
libRbt.so/2013.1/901 2013/11/27
 23 25  0  0  0  0  0  0  0  0999 V2000
   15.8482   -1.4102   23.9215 P   0  0  1  0  0  0  0  0  0  0  0  0
   18.1910   -0.2460   23.8160 C   0  0  0  0  0  0  0  0  0  0  0  0
   17.2539   -0.9904   24.5818 O   0  0  0  0  0  0  0  0  0  0  0  0
   17.7922    1.2098   23.9071 C   0  0  1  0  0  0  0  0  0  0  0  0
   17.5415    1.6146   25.2525 O   0  0  0  0  0  0  0  0  0  0  0  0
   18.9203    2.0706   23.3641 C   0  0  1  0  0  0  0  0  0  0  0  0
   18.3526    3.0347   22.4606 O   0  0  0  0  0  0  0  0  0  0  0  0
   19.5470    2.7289   24.5869 C   0  0  0  0  0  0  0  0  0  0  0  0
   18.4682    2.6290   25.6620 C   0  0  2  0  0  0  0  0  0  0  0  0
   20.6680    3.9921   30.1156 N   0  0  0  0  0  0  0  0  0  0  0  0
   20.2583    4.7911   29.1168 C   0  0  2  0  0  0  0  0  0  0  0  0
   20.4185    6.1262   29.2697 N   0  0  0  0  0  0  0  0  0  0  0  0
   19.6941    4.2768   27.9974 N   0  0  0  0  0  0  0  0  0  0  0  0
   19.5417    2.9416   27.8802 C   0  0  2  0  0  0  0  0  0  0  0  0
   19.9588    2.1080   28.8952 C   0  0  1  0  0  0  0  0  0  0  0  0
   20.5241    2.6572   30.0303 C   0  0  0  0  0  0  0  0  0  0  0  0
   20.9030    1.9188   30.9650 O   0  0  0  0  0  0  0  0  0  0  0  0
   19.7014    0.8377   28.5256 N   0  0  0  0  0  0  0  0  0  0  0  0
   19.1296    0.8829   27.3093 C   0  0  0  0  0  0  0  0  0  0  0  0
   19.0483    2.1614   26.9252 N   0  0  1  0  0  0  0  0  0  0  0  0
   16.1434   -2.4795   22.8979 O   0  0  0  0  0  0  0  0  0  0  0  0
   15.0208   -1.8817   25.0951 O   0  5  0  0  0  0  0  0  0  0  0  0
   15.3671   -0.1182   23.3184 O   0  0  0  0  0  0  0  0  0  0  0  0
  1  3  1  1  0  0  0
  1 21  1  0  0  0  0
  1 22  1  0  0  0  0
  1 23  2  0  0  0  0
  2  3  1  0  0  0  0
  4  2  1  1  0  0  0
  4  5  1  0  0  0  0
  4  6  1  0  0  0  0
  6  7  1  6  0  0  0
  6  8  1  0  0  0  0
  8  9  1  0  0  0  0
  9  5  1  6  0  0  0
  9 20  1  0  0  0  0
 10 11  1  0  0  0  0
 10 16  1  0  0  0  0
 11 12  1  1  0  0  0
 11 13  1  0  0  0  0
 14 13  1  6  0  0  0
 14 15  1  0  0  0  0
 14 20  1  0  0  0  0
 15 16  1  1  0  0  0
 15 18  1  0  0  0  0
 16 17  2  0  0  0  0
 18 19  1  0  0  0  0
 20 19  1  1  0  0  0
M  CHG  1  22  -1
M  END
>  <CHROM.1>
71.29164902,48.38174087,83.01988623,-153.48955529,18.39086671,1.44047718
26.11472553,2.84362741,-1.03848383,-1.01111312

>  <Name>
ligand

>  <RI>
0

>  <Rbt.Current_Directory>
/home/itssahil/PROJECTS/Mol_Feturizer/Test_systems_manuscript/rnas/3slm

>  <Rbt.Executable>
rbdock ($Id: //depot/dev/client3/rdock/2013.1/src/exe/rbdock.cxx#4 $)

>  <Rbt.Library>
libRbt.so (2013.1, Build901 2013/11/27)

>  <Rbt.Parameter_File>
/export/apps/rDock/src/rDock_2013.1_src/data/scripts/dock_solv.prm

>  <Rbt.Receptor>
prm/pocket_docking_3.prm

>  <SCORE>
-19.1562

>  <SCORE.INTER>
-16.0637

>  <SCORE.INTER.CONST>
1

>  <SCORE.INTER.POLAR>
0

>  <SCORE.INTER.ROT>
4

>  <SCORE.INTER.SOLV>
25.8993

>  <SCORE.INTER.VDW>
-25.6089

>  <SCORE.INTER.norm>
-0.698423

>  <SCORE.INTRA>
-3.09454

>  <SCORE.INTRA.DIHEDRAL>
-4.36091

>  <SCORE.INTRA.DIHEDRAL.0>
8.62657

>  <SCORE.INTRA.POLAR>
0

>  <SCORE.INTRA.POLAR.0>
0

>  <SCORE.INTRA.REPUL>
0

>  <SCORE.INTRA.REPUL.0>
0

>  <SCORE.INTRA.SOLV>
1.60552

>  <SCORE.INTRA.SOLV.lig_0>
-66.3641

>  <SCORE.INTRA.VDW>
-1.71684

>  <SCORE.INTRA.VDW.0>
0.452231

>  <SCORE.INTRA.norm>
-0.134545

>  <SCORE.RESTR>
0.00205945

>  <SCORE.RESTR.CAVITY>
0.00205945

>  <SCORE.RESTR.norm>
8.95412e-05

>  <SCORE.SYSTEM>
0

>  <SCORE.SYSTEM.CONST>
0

>  <SCORE.SYSTEM.DIHEDRAL>
0

>  <SCORE.SYSTEM.SOLV>
0

>  <SCORE.SYSTEM.norm>
0

>  <SCORE.heavy>
23

>  <SCORE.norm>
-0.832879

>  <RMSD>
6.833

$$$$
ligand
 OpenBabel02271912143D
libRbt.so/2013.1/901 2013/11/27
 23 25  0  0  0  0  0  0  0  0999 V2000
   16.8044   -2.9833   23.6839 P   0  0  1  0  0  0  0  0  0  0  0  0
   17.8012   -0.7266   24.5611 C   0  0  0  0  0  0  0  0  0  0  0  0
   17.1404   -1.4194   23.5112 O   0  0  0  0  0  0  0  0  0  0  0  0
   17.5874    0.7523   24.3295 C   0  0  1  0  0  0  0  0  0  0  0  0
   17.4863    1.4784   25.5540 O   0  0  0  0  0  0  0  0  0  0  0  0
   18.7676    1.3110   23.5527 C   0  0  1  0  0  0  0  0  0  0  0  0
   18.2547    2.1147   22.4761 O   0  0  0  0  0  0  0  0  0  0  0  0
   19.5566    2.1372   24.5608 C   0  0  0  0  0  0  0  0  0  0  0  0
   18.5553    2.4258   25.6760 C   0  0  2  0  0  0  0  0  0  0  0  0
   20.1534    4.5186   30.1030 N   0  0  0  0  0  0  0  0  0  0  0  0
   19.6172    5.1405   29.0403 C   0  0  2  0  0  0  0  0  0  0  0  0
   19.4523    6.4819   29.1102 N   0  0  0  0  0  0  0  0  0  0  0  0
   19.2448    4.4453   27.9385 N   0  0  0  0  0  0  0  0  0  0  0  0
   19.4156    3.1076   27.9044 C   0  0  2  0  0  0  0  0  0  0  0  0
   19.9663    2.4548   28.9859 C   0  0  1  0  0  0  0  0  0  0  0  0
   20.3308    3.1850   30.1011 C   0  0  0  0  0  0  0  0  0  0  0  0
   20.8259    2.6109   31.0949 O   0  0  0  0  0  0  0  0  0  0  0  0
   20.0322    1.1411   28.6922 N   0  0  0  0  0  0  0  0  0  0  0  0
   19.5261    0.9813   27.4567 C   0  0  0  0  0  0  0  0  0  0  0  0
   19.1662    2.1805   26.9865 N   0  0  1  0  0  0  0  0  0  0  0  0
   15.6977   -3.0866   24.7051 O   0  0  0  0  0  0  0  0  0  0  0  0
   16.4133   -3.4275   22.2933 O   0  5  0  0  0  0  0  0  0  0  0  0
   18.1142   -3.5525   24.1583 O   0  0  0  0  0  0  0  0  0  0  0  0
  1  3  1  6  0  0  0
  1 21  1  0  0  0  0
  1 22  1  0  0  0  0
  1 23  2  0  0  0  0
  2  3  1  0  0  0  0
  4  2  1  1  0  0  0
  4  5  1  0  0  0  0
  4  6  1  0  0  0  0
  6  7  1  6  0  0  0
  6  8  1  0  0  0  0
  8  9  1  0  0  0  0
  9  5  1  6  0  0  0
  9 20  1  0  0  0  0
 10 11  1  0  0  0  0
 10 16  1  0  0  0  0
 11 12  1  1  0  0  0
 11 13  1  0  0  0  0
 14 13  1  6  0  0  0
 14 15  1  0  0  0  0
 14 20  1  0  0  0  0
 15 16  1  1  0  0  0
 15 18  1  0  0  0  0
 16 17  2  0  0  0  0
 18 19  1  0  0  0  0
 20 19  1  1  0  0  0
M  CHG  1  22  -1
M  END
>  <CHROM.1>
71.13347268,146.43914677,-162.12772211,-129.67233705,18.52883463,1.00766155
26.11898264,-2.90051846,-1.22819945,-0.57877510

>  <Name>
ligand

>  <RI>
0

>  <Rbt.Current_Directory>
/home/itssahil/PROJECTS/Mol_Feturizer/Test_systems_manuscript/rnas/3slm

>  <Rbt.Executable>
rbdock ($Id: //depot/dev/client3/rdock/2013.1/src/exe/rbdock.cxx#4 $)

>  <Rbt.Library>
libRbt.so (2013.1, Build901 2013/11/27)

>  <Rbt.Parameter_File>
/export/apps/rDock/src/rDock_2013.1_src/data/scripts/dock_solv.prm

>  <Rbt.Receptor>
prm/blind_docking_60.prm

>  <SCORE>
-19.5569

>  <SCORE.INTER>
-16.1743

>  <SCORE.INTER.CONST>
1

>  <SCORE.INTER.POLAR>
0

>  <SCORE.INTER.ROT>
4

>  <SCORE.INTER.SOLV>
25.2409

>  <SCORE.INTER.VDW>
-25.4632

>  <SCORE.INTER.norm>
-0.703229

>  <SCORE.INTRA>
-3.38266

>  <SCORE.INTRA.DIHEDRAL>
-2.58809

>  <SCORE.INTRA.DIHEDRAL.0>
8.62657

>  <SCORE.INTRA.POLAR>
0

>  <SCORE.INTRA.POLAR.0>
0

>  <SCORE.INTRA.REPUL>
0

>  <SCORE.INTRA.REPUL.0>
0

>  <SCORE.INTRA.SOLV>
-0.649362

>  <SCORE.INTRA.SOLV.lig_0>
-66.3641

>  <SCORE.INTRA.VDW>
-1.76394

>  <SCORE.INTRA.VDW.0>
0.452231

>  <SCORE.INTRA.norm>
-0.147072

>  <SCORE.RESTR>
0

>  <SCORE.RESTR.CAVITY>
0

>  <SCORE.RESTR.norm>
0

>  <SCORE.SYSTEM>
0

>  <SCORE.SYSTEM.CONST>
0

>  <SCORE.SYSTEM.DIHEDRAL>
0

>  <SCORE.SYSTEM.SOLV>
0

>  <SCORE.SYSTEM.norm>
0

>  <SCORE.heavy>
23

>  <SCORE.norm>
-0.850302

>  <RMSD>
6.836

$$$$
ligand
 OpenBabel02271912143D
libRbt.so/2013.1/901 2013/11/27
 23 25  0  0  0  0  0  0  0  0999 V2000
   16.7569   -2.8653   23.7718 P   0  0  1  0  0  0  0  0  0  0  0  0
   17.8111   -0.6217   24.6145 C   0  0  0  0  0  0  0  0  0  0  0  0
   17.1079   -1.3062   23.5870 O   0  0  0  0  0  0  0  0  0  0  0  0
   17.6353    0.8602   24.3706 C   0  0  1  0  0  0  0  0  0  0  0  0
   17.5511    1.5986   25.5890 O   0  0  0  0  0  0  0  0  0  0  0  0
   18.8305    1.3824   23.5911 C   0  0  1  0  0  0  0  0  0  0  0  0
   18.3397    2.1900   22.5072 O   0  0  0  0  0  0  0  0  0  0  0  0
   19.6389    2.1964   24.5937 C   0  0  0  0  0  0  0  0  0  0  0  0
   18.6437    2.5195   25.7050 C   0  0  2  0  0  0  0  0  0  0  0  0
   20.1700    4.5887   30.1682 N   0  0  0  0  0  0  0  0  0  0  0  0
   19.6341    5.2138   29.1072 C   0  0  2  0  0  0  0  0  0  0  0  0
   19.4485    6.5518   29.1897 N   0  0  0  0  0  0  0  0  0  0  0  0
   19.2823    4.5249   27.9948 N   0  0  0  0  0  0  0  0  0  0  0  0
   19.4735    3.1903   27.9482 C   0  0  2  0  0  0  0  0  0  0  0  0
   20.0242    2.5343   29.0278 C   0  0  1  0  0  0  0  0  0  0  0  0
   20.3675    3.2580   30.1539 C   0  0  0  0  0  0  0  0  0  0  0  0
   20.8623    2.6808   31.1462 O   0  0  0  0  0  0  0  0  0  0  0  0
   20.1126    1.2250   28.7210 N   0  0  0  0  0  0  0  0  0  0  0  0
   19.6201    1.0708   27.4792 C   0  0  0  0  0  0  0  0  0  0  0  0
   19.2464    2.2694   27.0184 N   0  0  1  0  0  0  0  0  0  0  0  0
   16.4132   -3.4053   22.4049 O   0  0  0  0  0  0  0  0  0  0  0  0
   18.0117   -3.4519   24.3766 O   0  5  0  0  0  0  0  0  0  0  0  0
   15.5856   -2.8310   24.7158 O   0  0  0  0  0  0  0  0  0  0  0  0
  1  3  1  6  0  0  0
  1 21  1  0  0  0  0
  1 22  1  0  0  0  0
  1 23  2  0  0  0  0
  2  3  1  0  0  0  0
  4  2  1  1  0  0  0
  4  5  1  0  0  0  0
  4  6  1  0  0  0  0
  6  7  1  6  0  0  0
  6  8  1  0  0  0  0
  8  9  1  0  0  0  0
  9  5  1  6  0  0  0
  9 20  1  0  0  0  0
 10 11  1  0  0  0  0
 10 16  1  0  0  0  0
 11 12  1  1  0  0  0
 11 13  1  0  0  0  0
 14 13  1  6  0  0  0
 14 15  1  0  0  0  0
 14 20  1  0  0  0  0
 15 16  1  1  0  0  0
 15 18  1  0  0  0  0
 16 17  2  0  0  0  0
 18 19  1  0  0  0  0
 20 19  1  1  0  0  0
M  CHG  1  22  -1
M  END
>  <CHROM.1>
-162.98257289,145.09723208,-163.37149001,-127.07862619,18.55104488,1.10142959
26.17861817,-2.95095491,-1.22224631,-0.63069339

>  <Name>
ligand

>  <RI>
0

>  <Rbt.Current_Directory>
/home/itssahil/PROJECTS/Mol_Feturizer/Test_systems_manuscript/rnas/3slm

>  <Rbt.Executable>
rbdock ($Id: //depot/dev/client3/rdock/2013.1/src/exe/rbdock.cxx#4 $)

>  <Rbt.Library>
libRbt.so (2013.1, Build901 2013/11/27)

>  <Rbt.Parameter_File>
/export/apps/rDock/src/rDock_2013.1_src/data/scripts/dock_solv.prm

>  <Rbt.Receptor>
prm/blind_docking_40.prm

>  <SCORE>
-18.6184

>  <SCORE.INTER>
-15.7638

>  <SCORE.INTER.CONST>
1

>  <SCORE.INTER.POLAR>
0

>  <SCORE.INTER.ROT>
4

>  <SCORE.INTER.SOLV>
26.6538

>  <SCORE.INTER.VDW>
-25.6604

>  <SCORE.INTER.norm>
-0.685381

>  <SCORE.INTRA>
-2.85466

>  <SCORE.INTRA.DIHEDRAL>
-2.34344

>  <SCORE.INTRA.DIHEDRAL.0>
8.62657

>  <SCORE.INTRA.POLAR>
0

>  <SCORE.INTRA.POLAR.0>
0

>  <SCORE.INTRA.REPUL>
0

>  <SCORE.INTRA.REPUL.0>
0

>  <SCORE.INTRA.SOLV>
-0.0426658

>  <SCORE.INTRA.SOLV.lig_0>
-66.3641

>  <SCORE.INTRA.VDW>
-1.6616

>  <SCORE.INTRA.VDW.0>
0.452231

>  <SCORE.INTRA.norm>
-0.124116

>  <SCORE.RESTR>
0

>  <SCORE.RESTR.CAVITY>
0

>  <SCORE.RESTR.norm>
0

>  <SCORE.SYSTEM>
0

>  <SCORE.SYSTEM.CONST>
0

>  <SCORE.SYSTEM.DIHEDRAL>
0

>  <SCORE.SYSTEM.SOLV>
0

>  <SCORE.SYSTEM.norm>
0

>  <SCORE.heavy>
23

>  <SCORE.norm>
-0.809496

>  <RMSD>
6.841

$$$$
ligand
 OpenBabel02271912143D
libRbt.so/2013.1/901 2013/11/27
 23 25  0  0  0  0  0  0  0  0999 V2000
   18.2442    1.6841   24.1124 P   0  0  1  0  0  0  0  0  0  0  0  0
   19.4607    2.9326   26.0661 C   0  0  0  0  0  0  0  0  0  0  0  0
   18.4765    1.9850   25.6757 O   0  0  0  0  0  0  0  0  0  0  0  0
   19.3725    3.0808   27.5683 C   0  0  1  0  0  0  0  0  0  0  0  0
   19.9543    1.9716   28.2524 O   0  0  0  0  0  0  0  0  0  0  0  0
   20.1216    4.3335   27.9905 C   0  0  1  0  0  0  0  0  0  0  0  0
   19.2850    5.0705   28.8988 O   0  0  0  0  0  0  0  0  0  0  0  0
   21.3951    3.8329   28.6604 C   0  0  0  0  0  0  0  0  0  0  0  0
   21.0780    2.3887   29.0390 C   0  0  2  0  0  0  0  0  0  0  0  0
   24.3761   -1.2418   30.6120 N   0  0  0  0  0  0  0  0  0  0  0  0
   23.4362   -0.6095   31.3335 C   0  0  2  0  0  0  0  0  0  0  0  0
   23.3045   -0.9506   32.6366 N   0  0  0  0  0  0  0  0  0  0  0  0
   22.6399    0.3318   30.7717 N   0  0  0  0  0  0  0  0  0  0  0  0
   22.7921    0.6427   29.4679 C   0  0  2  0  0  0  0  0  0  0  0  0
   23.7533    0.0045   28.7143 C   0  0  1  0  0  0  0  0  0  0  0  0
   24.5478   -0.9577   29.3082 C   0  0  0  0  0  0  0  0  0  0  0  0
   25.4210   -1.5527   28.6404 O   0  0  0  0  0  0  0  0  0  0  0  0
   23.7007    0.5005   27.4623 N   0  0  0  0  0  0  0  0  0  0  0  0
   22.7220    1.4224   27.4379 C   0  0  0  0  0  0  0  0  0  0  0  0
   22.1868    1.5065   28.6607 N   0  0  1  0  0  0  0  0  0  0  0  0
   17.8080    2.9802   23.4737 O   0  0  0  0  0  0  0  0  0  0  0  0
   19.5852    1.1746   23.6364 O   0  5  0  0  0  0  0  0  0  0  0  0
   17.1674    0.6332   24.1344 O   0  0  0  0  0  0  0  0  0  0  0  0
  1  3  1  1  0  0  0
  1 21  1  0  0  0  0
  1 22  1  0  0  0  0
  1 23  2  0  0  0  0
  2  3  1  0  0  0  0
  4  2  1  6  0  0  0
  4  5  1  0  0  0  0
  4  6  1  0  0  0  0
  6  7  1  1  0  0  0
  6  8  1  0  0  0  0
  8  9  1  0  0  0  0
  9  5  1  6  0  0  0
  9 20  1  0  0  0  0
 10 11  1  0  0  0  0
 10 16  1  0  0  0  0
 11 12  1  6  0  0  0
 11 13  1  0  0  0  0
 14 13  1  1  0  0  0
 14 15  1  0  0  0  0
 14 20  1  0  0  0  0
 15 16  1  6  0  0  0
 15 18  1  0  0  0  0
 16 17  2  0  0  0  0
 18 19  1  0  0  0  0
 20 19  1  6  0  0  0
M  CHG  1  22  -1
M  END
>  <CHROM.1>
-61.29688651,75.84307349,175.59424169,-115.83843552,21.06550401,1.40801495
27.63013886,-2.80132496,-0.77800014,0.92840894

>  <Name>
ligand

>  <RI>
0

>  <Rbt.Current_Directory>
/home/itssahil/PROJECTS/Mol_Feturizer/Test_systems_manuscript/rnas/3slm

>  <Rbt.Executable>
rbdock ($Id: //depot/dev/client3/rdock/2013.1/src/exe/rbdock.cxx#4 $)

>  <Rbt.Library>
libRbt.so (2013.1, Build901 2013/11/27)

>  <Rbt.Parameter_File>
/export/apps/rDock/src/rDock_2013.1_src/data/scripts/dock_solv.prm

>  <Rbt.Receptor>
prm/pocket_docking_3.prm

>  <SCORE>
-18.2005

>  <SCORE.INTER>
-12.7716

>  <SCORE.INTER.CONST>
1

>  <SCORE.INTER.POLAR>
0

>  <SCORE.INTER.ROT>
4

>  <SCORE.INTER.SOLV>
23.0446

>  <SCORE.INTER.VDW>
-22.4626

>  <SCORE.INTER.norm>
-0.555286

>  <SCORE.INTRA>
-5.42889

>  <SCORE.INTRA.DIHEDRAL>
-6.47882

>  <SCORE.INTRA.DIHEDRAL.0>
8.62657

>  <SCORE.INTRA.POLAR>
0

>  <SCORE.INTRA.POLAR.0>
0

>  <SCORE.INTRA.REPUL>
0

>  <SCORE.INTRA.REPUL.0>
0

>  <SCORE.INTRA.SOLV>
-0.763631

>  <SCORE.INTRA.SOLV.lig_0>
-66.3641

>  <SCORE.INTRA.VDW>
-1.80767

>  <SCORE.INTRA.VDW.0>
0.452231

>  <SCORE.INTRA.norm>
-0.236039

>  <SCORE.RESTR>
0

>  <SCORE.RESTR.CAVITY>
0

>  <SCORE.RESTR.norm>
0

>  <SCORE.SYSTEM>
0

>  <SCORE.SYSTEM.CONST>
0

>  <SCORE.SYSTEM.DIHEDRAL>
0

>  <SCORE.SYSTEM.SOLV>
0

>  <SCORE.SYSTEM.norm>
0

>  <SCORE.heavy>
23

>  <SCORE.norm>
-0.791325

>  <RMSD>
6.856

$$$$
ligand
 OpenBabel02271912143D
libRbt.so/2013.1/901 2013/11/27
 23 25  0  0  0  0  0  0  0  0999 V2000
   19.3498    4.8738   31.9972 P   0  0  1  0  0  0  0  0  0  0  0  0
   21.1926    5.1836   30.1633 C   0  0  0  0  0  0  0  0  0  0  0  0
   20.3082    4.3006   30.8392 O   0  0  0  0  0  0  0  0  0  0  0  0
   21.8396    4.4023   29.0419 C   0  0  1  0  0  0  0  0  0  0  0  0
   22.6926    3.3679   29.5309 O   0  0  0  0  0  0  0  0  0  0  0  0
   20.7564    3.7526   28.1975 C   0  0  1  0  0  0  0  0  0  0  0  0
   21.0556    4.0055   26.8138 O   0  0  0  0  0  0  0  0  0  0  0  0
   20.8192    2.2686   28.5366 C   0  0  0  0  0  0  0  0  0  0  0  0
   22.2117    2.0776   29.1318 C   0  0  2  0  0  0  0  0  0  0  0  0
   24.3550   -1.6978   31.9039 N   0  0  0  0  0  0  0  0  0  0  0  0
   24.7463   -1.2240   30.7097 C   0  0  2  0  0  0  0  0  0  0  0  0
   25.8418   -1.7770   30.1390 N   0  0  0  0  0  0  0  0  0  0  0  0
   24.0714   -0.2187   30.1017 N   0  0  0  0  0  0  0  0  0  0  0  0
   22.9878    0.3158   30.7016 C   0  0  2  0  0  0  0  0  0  0  0  0
   22.5721   -0.1604   31.9261 C   0  0  1  0  0  0  0  0  0  0  0  0
   23.2818   -1.1811   32.5297 C   0  0  0  0  0  0  0  0  0  0  0  0
   22.9250   -1.6228   33.6432 O   0  0  0  0  0  0  0  0  0  0  0  0
   21.4759    0.5320   32.2939 N   0  0  0  0  0  0  0  0  0  0  0  0
   21.2211    1.4245   31.3209 C   0  0  0  0  0  0  0  0  0  0  0  0
   22.1372    1.2763   30.3578 N   0  0  1  0  0  0  0  0  0  0  0  0
   18.3584    3.7851   32.3287 O   0  0  0  0  0  0  0  0  0  0  0  0
   20.3007    5.2147   33.1214 O   0  5  0  0  0  0  0  0  0  0  0  0
   18.7245    6.0766   31.3439 O   0  0  0  0  0  0  0  0  0  0  0  0
  1  3  1  6  0  0  0
  1 21  1  0  0  0  0
  1 22  1  0  0  0  0
  1 23  2  0  0  0  0
  2  3  1  0  0  0  0
  4  2  1  1  0  0  0
  4  5  1  0  0  0  0
  4  6  1  0  0  0  0
  6  7  1  6  0  0  0
  6  8  1  0  0  0  0
  8  9  1  0  0  0  0
  9  5  1  1  0  0  0
  9 20  1  0  0  0  0
 10 11  1  0  0  0  0
 10 16  1  0  0  0  0
 11 12  1  1  0  0  0
 11 13  1  0  0  0  0
 14 13  1  6  0  0  0
 14 15  1  0  0  0  0
 14 20  1  0  0  0  0
 15 16  1  1  0  0  0
 15 18  1  0  0  0  0
 16 17  2  0  0  0  0
 18 19  1  0  0  0  0
 20 19  1  1  0  0  0
M  CHG  1  22  -1
M  END
>  <CHROM.1>
169.17589813,-66.44489299,-173.78079644,-105.09463684,21.67221872,2.21778407
30.79911333,2.65646156,0.87080063,-1.05974836

>  <Name>
ligand

>  <RI>
416

>  <Rbt.Current_Directory>
/home/itssahil/PROJECTS/Mol_Feturizer/Test_systems_manuscript/rnas/3slm

>  <Rbt.Executable>
rbdock ($Id: //depot/dev/client3/rdock/2013.1/src/exe/rbdock.cxx#4 $)

>  <Rbt.Library>
libRbt.so (2013.1, Build901 2013/11/27)

>  <Rbt.Parameter_File>
/export/apps/rDock/src/rDock_2013.1_src/data/scripts/dock_solv.prm

>  <Rbt.Receptor>
prm/pocket_docking_6.prm

>  <SCORE>
-19.0633

>  <SCORE.INTER>
-14.0123

>  <SCORE.INTER.CONST>
1

>  <SCORE.INTER.POLAR>
0

>  <SCORE.INTER.ROT>
4

>  <SCORE.INTER.SOLV>
19.1026

>  <SCORE.INTER.VDW>
-21.9757

>  <SCORE.INTER.norm>
-0.60923

>  <SCORE.INTRA>
-5.05096

>  <SCORE.INTRA.DIHEDRAL>
-6.95735

>  <SCORE.INTRA.DIHEDRAL.0>
8.62657

>  <SCORE.INTRA.POLAR>
0

>  <SCORE.INTRA.POLAR.0>
0

>  <SCORE.INTRA.REPUL>
0

>  <SCORE.INTRA.REPUL.0>
0

>  <SCORE.INTRA.SOLV>
0.467415

>  <SCORE.INTRA.SOLV.lig_0>
-66.3641

>  <SCORE.INTRA.VDW>
-1.806

>  <SCORE.INTRA.VDW.0>
0.452231

>  <SCORE.INTRA.norm>
-0.219607

>  <SCORE.RESTR>
0

>  <SCORE.RESTR.CAVITY>
0

>  <SCORE.RESTR.norm>
0

>  <SCORE.SYSTEM>
0

>  <SCORE.SYSTEM.CONST>
0

>  <SCORE.SYSTEM.DIHEDRAL>
0

>  <SCORE.SYSTEM.SOLV>
0

>  <SCORE.SYSTEM.norm>
0

>  <SCORE.heavy>
23

>  <SCORE.norm>
-0.828837

>  <RMSD>
6.868

$$$$
ligand
 OpenBabel02271912143D
libRbt.so/2013.1/901 2013/11/27
 23 25  0  0  0  0  0  0  0  0999 V2000
   19.3614    4.8177   31.9361 P   0  0  1  0  0  0  0  0  0  0  0  0
   21.0186    5.0341   29.9207 C   0  0  0  0  0  0  0  0  0  0  0  0
   20.2142    4.1851   30.7275 O   0  0  0  0  0  0  0  0  0  0  0  0
   21.6155    4.1807   28.8244 C   0  0  1  0  0  0  0  0  0  0  0  0
   22.5090    3.1937   29.3386 O   0  0  0  0  0  0  0  0  0  0  0  0
   20.4980    3.4598   28.0895 C   0  0  1  0  0  0  0  0  0  0  0  0
   20.7182    3.6151   26.6769 O   0  0  0  0  0  0  0  0  0  0  0  0
   20.6010    2.0051   28.5303 C   0  0  0  0  0  0  0  0  0  0  0  0
   22.0263    1.8728   29.0601 C   0  0  2  0  0  0  0  0  0  0  0  0
   24.3857   -1.6515   31.9833 N   0  0  0  0  0  0  0  0  0  0  0  0
   24.7071   -1.2589   30.7398 C   0  0  2  0  0  0  0  0  0  0  0  0
   25.7847   -1.8320   30.1551 N   0  0  0  0  0  0  0  0  0  0  0  0
   23.9812   -0.3129   30.0963 N   0  0  0  0  0  0  0  0  0  0  0  0
   22.9173    0.2442   30.7107 C   0  0  2  0  0  0  0  0  0  0  0  0
   22.5732   -0.1491   31.9859 C   0  0  1  0  0  0  0  0  0  0  0  0
   23.3339   -1.1102   32.6242 C   0  0  0  0  0  0  0  0  0  0  0  0
   23.0424   -1.4760   33.7833 O   0  0  0  0  0  0  0  0  0  0  0  0
   21.4818    0.5483   32.3584 N   0  0  0  0  0  0  0  0  0  0  0  0
   21.1598    1.3629   31.3381 C   0  0  0  0  0  0  0  0  0  0  0  0
   22.0301    1.1616   30.3427 N   0  0  1  0  0  0  0  0  0  0  0  0
   18.3609    3.7720   32.3648 O   0  0  0  0  0  0  0  0  0  0  0  0
   20.4016    5.1508   32.9807 O   0  5  0  0  0  0  0  0  0  0  0  0
   18.7309    6.0264   31.2989 O   0  0  0  0  0  0  0  0  0  0  0  0
  1  3  1  6  0  0  0
  1 21  1  0  0  0  0
  1 22  1  0  0  0  0
  1 23  2  0  0  0  0
  2  3  1  0  0  0  0
  4  2  1  1  0  0  0
  4  5  1  0  0  0  0
  4  6  1  0  0  0  0
  6  7  1  6  0  0  0
  6  8  1  0  0  0  0
  8  9  1  0  0  0  0
  9  5  1  1  0  0  0
  9 20  1  0  0  0  0
 10 11  1  0  0  0  0
 10 16  1  0  0  0  0
 11 12  1  1  0  0  0
 11 13  1  0  0  0  0
 14 13  1  6  0  0  0
 14 15  1  0  0  0  0
 14 20  1  0  0  0  0
 15 16  1  1  0  0  0
 15 18  1  0  0  0  0
 16 17  2  0  0  0  0
 18 19  1  0  0  0  0
 20 19  1  1  0  0  0
M  CHG  1  22  -1
M  END
>  <CHROM.1>
165.66047979,-64.87876281,-176.16542437,-104.61908033,21.60017724,2.12573765
30.76007703,2.75310935,0.88973946,-1.21018531

>  <Name>
ligand

>  <RI>
0

>  <Rbt.Current_Directory>
/home/itssahil/PROJECTS/Mol_Feturizer/Test_systems_manuscript/rnas/3slm

>  <Rbt.Executable>
rbdock ($Id: //depot/dev/client3/rdock/2013.1/src/exe/rbdock.cxx#4 $)

>  <Rbt.Library>
libRbt.so (2013.1, Build901 2013/11/27)

>  <Rbt.Parameter_File>
/export/apps/rDock/src/rDock_2013.1_src/data/scripts/dock_solv.prm

>  <Rbt.Receptor>
prm/blind_docking_60.prm

>  <SCORE>
-19.0762

>  <SCORE.INTER>
-13.9893

>  <SCORE.INTER.CONST>
1

>  <SCORE.INTER.POLAR>
0

>  <SCORE.INTER.ROT>
4

>  <SCORE.INTER.SOLV>
19.0681

>  <SCORE.INTER.VDW>
-21.9489

>  <SCORE.INTER.norm>
-0.608232

>  <SCORE.INTRA>
-5.08683

>  <SCORE.INTRA.DIHEDRAL>
-7.00815

>  <SCORE.INTRA.DIHEDRAL.0>
8.62657

>  <SCORE.INTRA.POLAR>
0

>  <SCORE.INTRA.POLAR.0>
0

>  <SCORE.INTRA.REPUL>
0

>  <SCORE.INTRA.REPUL.0>
0

>  <SCORE.INTRA.SOLV>
0.438252

>  <SCORE.INTRA.SOLV.lig_0>
-66.3641

>  <SCORE.INTRA.VDW>
-1.80188

>  <SCORE.INTRA.VDW.0>
0.452231

>  <SCORE.INTRA.norm>
-0.221166

>  <SCORE.RESTR>
0

>  <SCORE.RESTR.CAVITY>
0

>  <SCORE.RESTR.norm>
0

>  <SCORE.SYSTEM>
0

>  <SCORE.SYSTEM.CONST>
0

>  <SCORE.SYSTEM.DIHEDRAL>
0

>  <SCORE.SYSTEM.SOLV>
0

>  <SCORE.SYSTEM.norm>
0

>  <SCORE.heavy>
23

>  <SCORE.norm>
-0.829398

>  <RMSD>
6.877

$$$$
ligand
 OpenBabel02271912143D
libRbt.so/2013.1/901 2013/11/27
 23 25  0  0  0  0  0  0  0  0999 V2000
   19.4562    1.9195   27.1605 P   0  0  1  0  0  0  0  0  0  0  0  0
   20.4319    3.8486   28.6377 C   0  0  0  0  0  0  0  0  0  0  0  0
   19.3463    3.3645   27.8593 O   0  0  0  0  0  0  0  0  0  0  0  0
   20.2179    3.3703   30.0561 C   0  0  1  0  0  0  0  0  0  0  0  0
   20.4821    1.9750   30.1979 O   0  0  0  0  0  0  0  0  0  0  0  0
   21.1609    4.1195   30.9824 C   0  0  1  0  0  0  0  0  0  0  0  0
   20.4035    4.5805   32.1147 O   0  0  0  0  0  0  0  0  0  0  0  0
   22.2252    3.1039   31.3785 C   0  0  0  0  0  0  0  0  0  0  0  0
   21.5781    1.7510   31.0945 C   0  0  2  0  0  0  0  0  0  0  0  0
   24.5754   -2.4294   31.3645 N   0  0  0  0  0  0  0  0  0  0  0  0
   23.8176   -1.8909   32.3339 C   0  0  2  0  0  0  0  0  0  0  0  0
   23.8085   -2.5020   33.5414 N   0  0  0  0  0  0  0  0  0  0  0  0
   23.0792   -0.7779   32.1064 N   0  0  0  0  0  0  0  0  0  0  0  0
   23.1047   -0.1978   30.8888 C   0  0  2  0  0  0  0  0  0  0  0  0
   23.8787   -0.7368   29.8839 C   0  0  1  0  0  0  0  0  0  0  0  0
   24.6167   -1.8771   30.1384 C   0  0  0  0  0  0  0  0  0  0  0  0
   25.3201   -2.3853   29.2387 O   0  0  0  0  0  0  0  0  0  0  0  0
   23.7317    0.0303   28.7856 N   0  0  0  0  0  0  0  0  0  0  0  0
   22.8783    1.0207   29.1005 C   0  0  0  0  0  0  0  0  0  0  0  0
   22.5143    0.8775   30.3794 N   0  0  1  0  0  0  0  0  0  0  0  0
   19.2558    0.8887   28.2447 O   0  0  0  0  0  0  0  0  0  0  0  0
   18.3695    1.9393   26.1103 O   0  5  0  0  0  0  0  0  0  0  0  0
   20.8500    1.9315   26.5935 O   0  0  0  0  0  0  0  0  0  0  0  0
  1  3  1  1  0  0  0
  1 21  1  0  0  0  0
  1 22  1  0  0  0  0
  1 23  2  0  0  0  0
  2  3  1  0  0  0  0
  4  2  1  6  0  0  0
  4  5  1  0  0  0  0
  4  6  1  0  0  0  0
  6  7  1  1  0  0  0
  6  8  1  0  0  0  0
  8  9  1  0  0  0  0
  9  5  1  6  0  0  0
  9 20  1  0  0  0  0
 10 11  1  0  0  0  0
 10 16  1  0  0  0  0
 11 12  1  6  0  0  0
 11 13  1  0  0  0  0
 14 13  1  1  0  0  0
 14 15  1  0  0  0  0
 14 20  1  0  0  0  0
 15 16  1  6  0  0  0
 15 18  1  0  0  0  0
 16 17  2  0  0  0  0
 18 19  1  0  0  0  0
 20 19  1  6  0  0  0
M  CHG  1  22  -1
M  END
>  <CHROM.1>
75.87921500,73.62794651,-89.06966009,-134.19359373,21.73782790,1.06566024
29.70748158,-3.08942927,-0.87669900,1.02996127

>  <Name>
ligand

>  <RI>
416

>  <Rbt.Current_Directory>
/home/itssahil/PROJECTS/Mol_Feturizer/Test_systems_manuscript/rnas/3slm

>  <Rbt.Executable>
rbdock ($Id: //depot/dev/client3/rdock/2013.1/src/exe/rbdock.cxx#4 $)

>  <Rbt.Library>
libRbt.so (2013.1, Build901 2013/11/27)

>  <Rbt.Parameter_File>
/export/apps/rDock/src/rDock_2013.1_src/data/scripts/dock_solv.prm

>  <Rbt.Receptor>
prm/pocket_docking_4.prm

>  <SCORE>
-17.1965

>  <SCORE.INTER>
-13.8536

>  <SCORE.INTER.CONST>
1

>  <SCORE.INTER.POLAR>
0

>  <SCORE.INTER.ROT>
4

>  <SCORE.INTER.SOLV>
19.1291

>  <SCORE.INTER.VDW>
-21.8788

>  <SCORE.INTER.norm>
-0.602329

>  <SCORE.INTRA>
-3.34293

>  <SCORE.INTRA.DIHEDRAL>
-2.89643

>  <SCORE.INTRA.DIHEDRAL.0>
8.62657

>  <SCORE.INTRA.POLAR>
0

>  <SCORE.INTRA.POLAR.0>
0

>  <SCORE.INTRA.REPUL>
0

>  <SCORE.INTRA.REPUL.0>
0

>  <SCORE.INTRA.SOLV>
1.28794

>  <SCORE.INTRA.SOLV.lig_0>
-66.3641

>  <SCORE.INTRA.VDW>
-2.53869

>  <SCORE.INTRA.VDW.0>
0.452231

>  <SCORE.INTRA.norm>
-0.145345

>  <SCORE.RESTR>
0

>  <SCORE.RESTR.CAVITY>
0

>  <SCORE.RESTR.norm>
0

>  <SCORE.SYSTEM>
0

>  <SCORE.SYSTEM.CONST>
0

>  <SCORE.SYSTEM.DIHEDRAL>
0

>  <SCORE.SYSTEM.SOLV>
0

>  <SCORE.SYSTEM.norm>
0

>  <SCORE.heavy>
23

>  <SCORE.norm>
-0.747674

>  <RMSD>
6.906

$$$$
ligand
 OpenBabel02271912143D
libRbt.so/2013.1/901 2013/11/27
 23 25  0  0  0  0  0  0  0  0999 V2000
   19.0770    2.2727   25.2860 P   0  0  1  0  0  0  0  0  0  0  0  0
   19.9907    3.4044   27.4631 C   0  0  0  0  0  0  0  0  0  0  0  0
   19.1327    2.4298   26.8862 O   0  0  0  0  0  0  0  0  0  0  0  0
   19.8884    3.2622   28.9650 C   0  0  1  0  0  0  0  0  0  0  0  0
   20.3014    1.9711   29.4115 O   0  0  0  0  0  0  0  0  0  0  0  0
   20.7877    4.2933   29.6258 C   0  0  1  0  0  0  0  0  0  0  0  0
   20.0360    4.9416   30.6664 O   0  0  0  0  0  0  0  0  0  0  0  0
   21.9675    3.5024   30.1771 C   0  0  0  0  0  0  0  0  0  0  0  0
   21.4521    2.0681   30.2610 C   0  0  2  0  0  0  0  0  0  0  0  0
   24.4196   -2.0430   31.1695 N   0  0  0  0  0  0  0  0  0  0  0  0
   23.5875   -1.4195   32.0195 C   0  0  2  0  0  0  0  0  0  0  0  0
   23.4831   -1.9112   33.2761 N   0  0  0  0  0  0  0  0  0  0  0  0
   22.8692   -0.3395   31.6279 N   0  0  0  0  0  0  0  0  0  0  0  0
   22.9906    0.1206   30.3657 C   0  0  2  0  0  0  0  0  0  0  0  0
   23.8417   -0.5068   29.4818 C   0  0  1  0  0  0  0  0  0  0  0  0
   24.5576   -1.6113   29.9027 C   0  0  0  0  0  0  0  0  0  0  0  0
   25.3299   -2.1984   29.1146 O   0  0  0  0  0  0  0  0  0  0  0  0
   23.7818    0.1496   28.3062 N   0  0  0  0  0  0  0  0  0  0  0  0
   22.9061    1.1590   28.4555 C   0  0  0  0  0  0  0  0  0  0  0  0
   22.4421    1.1370   29.7097 N   0  0  1  0  0  0  0  0  0  0  0  0
   18.2993    3.4518   24.7538 O   0  0  0  0  0  0  0  0  0  0  0  0
   20.5302    2.2460   24.8718 O   0  5  0  0  0  0  0  0  0  0  0  0
   18.3694    0.9567   25.1073 O   0  0  0  0  0  0  0  0  0  0  0  0
  1  3  1  1  0  0  0
  1 21  1  0  0  0  0
  1 22  1  0  0  0  0
  1 23  2  0  0  0  0
  2  3  1  0  0  0  0
  4  2  1  6  0  0  0
  4  5  1  0  0  0  0
  4  6  1  0  0  0  0
  6  7  1  1  0  0  0
  6  8  1  0  0  0  0
  8  9  1  0  0  0  0
  9  5  1  6  0  0  0
  9 20  1  0  0  0  0
 10 11  1  0  0  0  0
 10 16  1  0  0  0  0
 11 12  1  6  0  0  0
 11 13  1  0  0  0  0
 14 13  1  1  0  0  0
 14 15  1  0  0  0  0
 14 20  1  0  0  0  0
 15 16  1  6  0  0  0
 15 18  1  0  0  0  0
 16 17  2  0  0  0  0
 18 19  1  0  0  0  0
 20 19  1  6  0  0  0
M  CHG  1  22  -1
M  END
>  <CHROM.1>
-74.30807492,60.85091582,-176.78507734,-121.75766756,21.50342950,1.30550654
28.70334834,-2.84059959,-0.88423501,1.06785014

>  <Name>
ligand

>  <RI>
416

>  <Rbt.Current_Directory>
/home/itssahil/PROJECTS/Mol_Feturizer/Test_systems_manuscript/rnas/3slm

>  <Rbt.Executable>
rbdock ($Id: //depot/dev/client3/rdock/2013.1/src/exe/rbdock.cxx#4 $)

>  <Rbt.Library>
libRbt.so (2013.1, Build901 2013/11/27)

>  <Rbt.Parameter_File>
/export/apps/rDock/src/rDock_2013.1_src/data/scripts/dock_solv.prm

>  <Rbt.Receptor>
prm/pocket_docking_4.prm

>  <SCORE>
-17.4431

>  <SCORE.INTER>
-11.8032

>  <SCORE.INTER.CONST>
1

>  <SCORE.INTER.POLAR>
0

>  <SCORE.INTER.ROT>
4

>  <SCORE.INTER.SOLV>
20.1376

>  <SCORE.INTER.VDW>
-20.848

>  <SCORE.INTER.norm>
-0.513184

>  <SCORE.INTRA>
-5.6399

>  <SCORE.INTRA.DIHEDRAL>
-7.06444

>  <SCORE.INTRA.DIHEDRAL.0>
8.62657

>  <SCORE.INTRA.POLAR>
0

>  <SCORE.INTRA.POLAR.0>
0

>  <SCORE.INTRA.REPUL>
0

>  <SCORE.INTRA.REPUL.0>
0

>  <SCORE.INTRA.SOLV>
-0.543975

>  <SCORE.INTRA.SOLV.lig_0>
-66.3641

>  <SCORE.INTRA.VDW>
-1.83569

>  <SCORE.INTRA.VDW.0>
0.452231

>  <SCORE.INTRA.norm>
-0.245213

>  <SCORE.RESTR>
0

>  <SCORE.RESTR.CAVITY>
0

>  <SCORE.RESTR.norm>
0

>  <SCORE.SYSTEM>
0

>  <SCORE.SYSTEM.CONST>
0

>  <SCORE.SYSTEM.DIHEDRAL>
0

>  <SCORE.SYSTEM.SOLV>
0

>  <SCORE.SYSTEM.norm>
0

>  <SCORE.heavy>
23

>  <SCORE.norm>
-0.758397

>  <RMSD>
6.908

$$$$
ligand
 OpenBabel02271912143D
libRbt.so/2013.1/901 2013/11/27
 23 25  0  0  0  0  0  0  0  0999 V2000
   15.9261   -1.6859   23.6198 P   0  0  1  0  0  0  0  0  0  0  0  0
   18.2578   -0.5440   23.9587 C   0  0  0  0  0  0  0  0  0  0  0  0
   17.2217   -1.3445   24.5104 O   0  0  0  0  0  0  0  0  0  0  0  0
   17.7792    0.8902   23.9806 C   0  0  1  0  0  0  0  0  0  0  0  0
   17.5395    1.3560   25.3081 O   0  0  0  0  0  0  0  0  0  0  0  0
   18.8427    1.7801   23.3596 C   0  0  1  0  0  0  0  0  0  0  0  0
   18.1987    2.6586   22.4206 O   0  0  0  0  0  0  0  0  0  0  0  0
   19.4611    2.5402   24.5262 C   0  0  0  0  0  0  0  0  0  0  0  0
   18.4168    2.4417   25.6350 C   0  0  2  0  0  0  0  0  0  0  0  0
   20.2538    4.1514   30.1332 N   0  0  0  0  0  0  0  0  0  0  0  0
   19.7183    4.8688   29.1321 C   0  0  2  0  0  0  0  0  0  0  0  0
   19.6248    6.2091   29.2952 N   0  0  0  0  0  0  0  0  0  0  0  0
   19.2775    4.2683   28.0004 N   0  0  0  0  0  0  0  0  0  0  0  0
   19.3782    2.9292   27.8730 C   0  0  2  0  0  0  0  0  0  0  0  0
   19.9272    2.1789   28.8903 C   0  0  1  0  0  0  0  0  0  0  0  0
   20.3623    2.8138   30.0380 C   0  0  0  0  0  0  0  0  0  0  0  0
   20.8572    2.1506   30.9749 O   0  0  0  0  0  0  0  0  0  0  0  0
   19.9166    0.8862   28.5092 N   0  0  0  0  0  0  0  0  0  0  0  0
   19.3657    0.8348   27.2835 C   0  0  0  0  0  0  0  0  0  0  0  0
   19.0538    2.0792   26.9053 N   0  0  1  0  0  0  0  0  0  0  0  0
   15.6105   -0.4524   22.8092 O   0  0  0  0  0  0  0  0  0  0  0  0
   16.3537   -2.8799   22.7976 O   0  5  0  0  0  0  0  0  0  0  0  0
   14.8851   -2.0043   24.6586 O   0  0  0  0  0  0  0  0  0  0  0  0
  1  3  1  1  0  0  0
  1 21  1  0  0  0  0
  1 22  1  0  0  0  0
  1 23  2  0  0  0  0
  2  3  1  0  0  0  0
  4  2  1  1  0  0  0
  4  5  1  0  0  0  0
  4  6  1  0  0  0  0
  6  7  1  6  0  0  0
  6  8  1  0  0  0  0
  8  9  1  0  0  0  0
  9  5  1  6  0  0  0
  9 20  1  0  0  0  0
 10 11  1  0  0  0  0
 10 16  1  0  0  0  0
 11 12  1  1  0  0  0
 11 13  1  0  0  0  0
 14 13  1  6  0  0  0
 14 15  1  0  0  0  0
 14 20  1  0  0  0  0
 15 16  1  1  0  0  0
 15 18  1  0  0  0  0
 16 17  2  0  0  0  0
 18 19  1  0  0  0  0
 20 19  1  1  0  0  0
M  CHG  1  22  -1
M  END
>  <CHROM.1>
-37.54188526,62.23987570,76.63587135,-144.80351405,18.31455349,1.30572700
26.04075425,2.96035483,-1.11699212,-0.88802310

>  <Name>
ligand

>  <RI>
416

>  <Rbt.Current_Directory>
/home/itssahil/PROJECTS/Mol_Feturizer/Test_systems_manuscript/rnas/3slm

>  <Rbt.Executable>
rbdock ($Id: //depot/dev/client3/rdock/2013.1/src/exe/rbdock.cxx#4 $)

>  <Rbt.Library>
libRbt.so (2013.1, Build901 2013/11/27)

>  <Rbt.Parameter_File>
/export/apps/rDock/src/rDock_2013.1_src/data/scripts/dock_solv.prm

>  <Rbt.Receptor>
prm/pocket_docking_5.prm

>  <SCORE>
-21.6971

>  <SCORE.INTER>
-17.3895

>  <SCORE.INTER.CONST>
1

>  <SCORE.INTER.POLAR>
0

>  <SCORE.INTER.ROT>
4

>  <SCORE.INTER.SOLV>
24.0472

>  <SCORE.INTER.VDW>
-25.8754

>  <SCORE.INTER.norm>
-0.756066

>  <SCORE.INTRA>
-4.30759

>  <SCORE.INTRA.DIHEDRAL>
-5.29913

>  <SCORE.INTRA.DIHEDRAL.0>
8.62657

>  <SCORE.INTRA.POLAR>
0

>  <SCORE.INTRA.POLAR.0>
0

>  <SCORE.INTRA.REPUL>
0

>  <SCORE.INTRA.REPUL.0>
0

>  <SCORE.INTRA.SOLV>
0.160092

>  <SCORE.INTRA.SOLV.lig_0>
-66.3641

>  <SCORE.INTRA.VDW>
-1.73807

>  <SCORE.INTRA.VDW.0>
0.452231

>  <SCORE.INTRA.norm>
-0.187286

>  <SCORE.RESTR>
0

>  <SCORE.RESTR.CAVITY>
0

>  <SCORE.RESTR.norm>
0

>  <SCORE.SYSTEM>
0

>  <SCORE.SYSTEM.CONST>
0

>  <SCORE.SYSTEM.DIHEDRAL>
0

>  <SCORE.SYSTEM.SOLV>
0

>  <SCORE.SYSTEM.norm>
0

>  <SCORE.heavy>
23

>  <SCORE.norm>
-0.943352

>  <RMSD>
6.909

$$$$
ligand
 OpenBabel02271912143D
libRbt.so/2013.1/901 2013/11/27
 23 25  0  0  0  0  0  0  0  0999 V2000
   16.0114   -1.5657   23.6563 P   0  0  1  0  0  0  0  0  0  0  0  0
   18.1975   -0.6603   24.7772 C   0  0  0  0  0  0  0  0  0  0  0  0
   17.6082   -1.3745   23.6995 O   0  0  0  0  0  0  0  0  0  0  0  0
   17.7463    0.7785   24.6644 C   0  0  1  0  0  0  0  0  0  0  0  0
   17.6512    1.4129   25.9394 O   0  0  0  0  0  0  0  0  0  0  0  0
   18.7543    1.5534   23.8326 C   0  0  1  0  0  0  0  0  0  0  0  0
   18.0314    2.3260   22.8587 O   0  0  0  0  0  0  0  0  0  0  0  0
   19.5009    2.4351   24.8258 C   0  0  0  0  0  0  0  0  0  0  0  0
   18.5743    2.5054   26.0367 C   0  0  2  0  0  0  0  0  0  0  0  0
   20.4357    4.6363   30.3409 N   0  0  0  0  0  0  0  0  0  0  0  0
   19.7461    5.2321   29.3543 C   0  0  2  0  0  0  0  0  0  0  0  0
   19.4806    6.5534   29.4779 N   0  0  0  0  0  0  0  0  0  0  0  0
   19.3222    4.5302   28.2757 N   0  0  0  0  0  0  0  0  0  0  0  0
   19.5969    3.2125   28.1872 C   0  0  2  0  0  0  0  0  0  0  0  0
   20.3053    2.5867   29.1901 C   0  0  1  0  0  0  0  0  0  0  0  0
   20.7199    3.3225   30.2839 C   0  0  0  0  0  0  0  0  0  0  0  0
   21.3579    2.7724   31.2073 O   0  0  0  0  0  0  0  0  0  0  0  0
   20.4478    1.2892   28.8545 N   0  0  0  0  0  0  0  0  0  0  0  0
   19.8342    1.1121   27.6711 C   0  0  0  0  0  0  0  0  0  0  0  0
   19.3324    2.2861   27.2728 N   0  0  1  0  0  0  0  0  0  0  0  0
   15.5225   -1.5175   25.0834 O   0  0  0  0  0  0  0  0  0  0  0  0
   15.5309   -0.4215   22.7935 O   0  5  0  0  0  0  0  0  0  0  0  0
   15.8574   -2.9178   23.0141 O   0  0  0  0  0  0  0  0  0  0  0  0
  1  3  1  1  0  0  0
  1 21  1  0  0  0  0
  1 22  1  0  0  0  0
  1 23  2  0  0  0  0
  2  3  1  0  0  0  0
  4  2  1  1  0  0  0
  4  5  1  0  0  0  0
  4  6  1  0  0  0  0
  6  7  1  6  0  0  0
  6  8  1  0  0  0  0
  8  9  1  0  0  0  0
  9  5  1  6  0  0  0
  9 20  1  0  0  0  0
 10 11  1  0  0  0  0
 10 16  1  0  0  0  0
 11 12  1  1  0  0  0
 11 13  1  0  0  0  0
 14 13  1  6  0  0  0
 14 15  1  0  0  0  0
 14 20  1  0  0  0  0
 15 16  1  1  0  0  0
 15 18  1  0  0  0  0
 16 17  2  0  0  0  0
 18 19  1  0  0  0  0
 20 19  1  1  0  0  0
M  CHG  1  22  -1
M  END
>  <CHROM.1>
-26.89560821,149.39759444,-66.48223543,-134.22961010,18.45281930,1.46948953
26.31100857,-2.91767987,-1.10971198,-0.45532199

>  <Name>
ligand

>  <RI>
416

>  <Rbt.Current_Directory>
/home/itssahil/PROJECTS/Mol_Feturizer/Test_systems_manuscript/rnas/3slm

>  <Rbt.Executable>
rbdock ($Id: //depot/dev/client3/rdock/2013.1/src/exe/rbdock.cxx#4 $)

>  <Rbt.Library>
libRbt.so (2013.1, Build901 2013/11/27)

>  <Rbt.Parameter_File>
/export/apps/rDock/src/rDock_2013.1_src/data/scripts/dock_solv.prm

>  <Rbt.Receptor>
prm/pocket_docking_4.prm

>  <SCORE>
-18.9985

>  <SCORE.INTER>
-16.3104

>  <SCORE.INTER.CONST>
1

>  <SCORE.INTER.POLAR>
0

>  <SCORE.INTER.ROT>
4

>  <SCORE.INTER.SOLV>
22.4886

>  <SCORE.INTER.VDW>
-24.6364

>  <SCORE.INTER.norm>
-0.709147

>  <SCORE.INTRA>
-2.68808

>  <SCORE.INTRA.DIHEDRAL>
-3.03294

>  <SCORE.INTRA.DIHEDRAL.0>
8.62657

>  <SCORE.INTRA.POLAR>
0

>  <SCORE.INTRA.POLAR.0>
0

>  <SCORE.INTRA.REPUL>
0

>  <SCORE.INTRA.REPUL.0>
0

>  <SCORE.INTRA.SOLV>
1.39639

>  <SCORE.INTRA.SOLV.lig_0>
-66.3641

>  <SCORE.INTRA.VDW>
-1.8698

>  <SCORE.INTRA.VDW.0>
0.452231

>  <SCORE.INTRA.norm>
-0.116873

>  <SCORE.RESTR>
0

>  <SCORE.RESTR.CAVITY>
0

>  <SCORE.RESTR.norm>
0

>  <SCORE.SYSTEM>
0

>  <SCORE.SYSTEM.CONST>
0

>  <SCORE.SYSTEM.DIHEDRAL>
0

>  <SCORE.SYSTEM.SOLV>
0

>  <SCORE.SYSTEM.norm>
0

>  <SCORE.heavy>
23

>  <SCORE.norm>
-0.82602

>  <RMSD>
6.936

$$$$
ligand
 OpenBabel02271912143D
libRbt.so/2013.1/901 2013/11/27
 23 25  0  0  0  0  0  0  0  0999 V2000
   19.3135    2.0267   27.0484 P   0  0  1  0  0  0  0  0  0  0  0  0
   20.4116    3.7964   28.6350 C   0  0  0  0  0  0  0  0  0  0  0  0
   19.2687    3.3959   27.8919 O   0  0  0  0  0  0  0  0  0  0  0  0
   20.2066    3.3351   30.0604 C   0  0  1  0  0  0  0  0  0  0  0  0
   20.4746    1.9421   30.2176 O   0  0  0  0  0  0  0  0  0  0  0  0
   21.1534    4.0973   30.9721 C   0  0  1  0  0  0  0  0  0  0  0  0
   20.4016    4.5707   32.1029 O   0  0  0  0  0  0  0  0  0  0  0  0
   22.2221    3.0887   31.3744 C   0  0  0  0  0  0  0  0  0  0  0  0
   21.5761    1.7312   31.1106 C   0  0  2  0  0  0  0  0  0  0  0  0
   24.5693   -2.4501   31.4088 N   0  0  0  0  0  0  0  0  0  0  0  0
   23.8141   -1.9030   32.3752 C   0  0  2  0  0  0  0  0  0  0  0  0
   23.8066   -2.5042   33.5876 N   0  0  0  0  0  0  0  0  0  0  0  0
   23.0765   -0.7910   32.1400 N   0  0  0  0  0  0  0  0  0  0  0  0
   23.1001   -0.2209   30.9177 C   0  0  2  0  0  0  0  0  0  0  0  0
   23.8716   -0.7689   29.9158 C   0  0  1  0  0  0  0  0  0  0  0  0
   24.6089   -1.9079   30.1781 C   0  0  0  0  0  0  0  0  0  0  0  0
   25.3099   -2.4241   29.2812 O   0  0  0  0  0  0  0  0  0  0  0  0
   23.7233   -0.0106   28.8116 N   0  0  0  0  0  0  0  0  0  0  0  0
   22.8716    0.9833   29.1200 C   0  0  0  0  0  0  0  0  0  0  0  0
   22.5099    0.8509   30.4008 N   0  0  1  0  0  0  0  0  0  0  0  0
   18.0584    1.9830   26.2111 O   0  0  0  0  0  0  0  0  0  0  0  0
   20.5924    2.1325   26.2500 O   0  5  0  0  0  0  0  0  0  0  0  0
   19.3539    0.9761   28.1250 O   0  0  0  0  0  0  0  0  0  0  0  0
  1  3  1  1  0  0  0
  1 21  1  0  0  0  0
  1 22  1  0  0  0  0
  1 23  2  0  0  0  0
  2  3  1  0  0  0  0
  4  2  1  6  0  0  0
  4  5  1  0  0  0  0
  4  6  1  0  0  0  0
  6  7  1  1  0  0  0
  6  8  1  0  0  0  0
  8  9  1  0  0  0  0
  9  5  1  6  0  0  0
  9 20  1  0  0  0  0
 10 11  1  0  0  0  0
 10 16  1  0  0  0  0
 11 12  1  6  0  0  0
 11 13  1  0  0  0  0
 14 13  1  1  0  0  0
 14 15  1  0  0  0  0
 14 20  1  0  0  0  0
 15 16  1  6  0  0  0
 15 18  1  0  0  0  0
 16 17  2  0  0  0  0
 18 19  1  0  0  0  0
 20 19  1  6  0  0  0
M  CHG  1  22  -1
M  END
>  <CHROM.1>
-171.41451717,78.34641972,-96.34396289,-133.82781102,21.69435190,1.07390155
29.69698607,-3.07079443,-0.87423632,1.02680100

>  <Name>
ligand

>  <RI>
416

>  <Rbt.Current_Directory>
/home/itssahil/PROJECTS/Mol_Feturizer/Test_systems_manuscript/rnas/3slm

>  <Rbt.Executable>
rbdock ($Id: //depot/dev/client3/rdock/2013.1/src/exe/rbdock.cxx#4 $)

>  <Rbt.Library>
libRbt.so (2013.1, Build901 2013/11/27)

>  <Rbt.Parameter_File>
/export/apps/rDock/src/rDock_2013.1_src/data/scripts/dock_solv.prm

>  <Rbt.Receptor>
prm/pocket_docking_4.prm

>  <SCORE>
-15.7363

>  <SCORE.INTER>
-14.1547

>  <SCORE.INTER.CONST>
1

>  <SCORE.INTER.POLAR>
0

>  <SCORE.INTER.ROT>
4

>  <SCORE.INTER.SOLV>
20.0735

>  <SCORE.INTER.VDW>
-22.3943

>  <SCORE.INTER.norm>
-0.615421

>  <SCORE.INTRA>
-1.5816

>  <SCORE.INTRA.DIHEDRAL>
-1.34645

>  <SCORE.INTRA.DIHEDRAL.0>
8.62657

>  <SCORE.INTRA.POLAR>
0

>  <SCORE.INTRA.POLAR.0>
0

>  <SCORE.INTRA.REPUL>
0

>  <SCORE.INTRA.REPUL.0>
0

>  <SCORE.INTRA.SOLV>
3.10085

>  <SCORE.INTRA.SOLV.lig_0>
-66.3641

>  <SCORE.INTRA.VDW>
-2.4588

>  <SCORE.INTRA.VDW.0>
0.452231

>  <SCORE.INTRA.norm>
-0.0687654

>  <SCORE.RESTR>
0

>  <SCORE.RESTR.CAVITY>
0

>  <SCORE.RESTR.norm>
0

>  <SCORE.SYSTEM>
0

>  <SCORE.SYSTEM.CONST>
0

>  <SCORE.SYSTEM.DIHEDRAL>
0

>  <SCORE.SYSTEM.SOLV>
0

>  <SCORE.SYSTEM.norm>
0

>  <SCORE.heavy>
23

>  <SCORE.norm>
-0.684187

>  <RMSD>
6.952

$$$$
ligand
 OpenBabel02271912143D
libRbt.so/2013.1/901 2013/11/27
 23 25  0  0  0  0  0  0  0  0999 V2000
   19.5520    5.1503   31.6172 P   0  0  1  0  0  0  0  0  0  0  0  0
   21.0628    3.0973   31.0192 C   0  0  0  0  0  0  0  0  0  0  0  0
   19.8570    3.8102   30.7811 O   0  0  0  0  0  0  0  0  0  0  0  0
   22.2007    3.9550   30.5134 C   0  0  1  0  0  0  0  0  0  0  0  0
   23.4696    3.3297   30.7027 O   0  0  0  0  0  0  0  0  0  0  0  0
   22.0185    4.1978   29.0246 C   0  0  1  0  0  0  0  0  0  0  0  0
   22.2091    5.6008   28.7733 O   0  0  0  0  0  0  0  0  0  0  0  0
   23.0813    3.3431   28.3456 C   0  0  0  0  0  0  0  0  0  0  0  0
   24.1071    3.0760   29.4439 C   0  0  2  0  0  0  0  0  0  0  0  0
   23.5366   -1.4693   31.7990 N   0  0  0  0  0  0  0  0  0  0  0  0
   22.9893   -0.2896   32.1343 C   0  0  2  0  0  0  0  0  0  0  0  0
   22.1733   -0.2558   33.2135 N   0  0  0  0  0  0  0  0  0  0  0  0
   23.2388    0.8275   31.4094 N   0  0  0  0  0  0  0  0  0  0  0  0
   24.0508    0.7577   30.3344 C   0  0  2  0  0  0  0  0  0  0  0  0
   24.6218   -0.4449   29.9783 C   0  0  1  0  0  0  0  0  0  0  0  0
   24.3456   -1.5718   30.7290 C   0  0  0  0  0  0  0  0  0  0  0  0
   24.8484   -2.6733   30.4188 O   0  0  0  0  0  0  0  0  0  0  0  0
   25.3853   -0.2385   28.8870 N   0  0  0  0  0  0  0  0  0  0  0  0
   25.2842    1.0640   28.5683 C   0  0  0  0  0  0  0  0  0  0  0  0
   24.4819    1.6582   29.4583 N   0  0  1  0  0  0  0  0  0  0  0  0
   19.4307    4.7479   33.0669 O   0  0  0  0  0  0  0  0  0  0  0  0
   20.7322    6.0447   31.3150 O   0  5  0  0  0  0  0  0  0  0  0  0
   18.2577    5.6278   31.0162 O   0  0  0  0  0  0  0  0  0  0  0  0
  1  3  1  6  0  0  0
  1 21  1  0  0  0  0
  1 22  1  0  0  0  0
  1 23  2  0  0  0  0
  2  3  1  0  0  0  0
  4  2  1  6  0  0  0
  4  5  1  0  0  0  0
  4  6  1  0  0  0  0
  6  7  1  1  0  0  0
  6  8  1  0  0  0  0
  8  9  1  0  0  0  0
  9  5  1  1  0  0  0
  9 20  1  0  0  0  0
 10 11  1  0  0  0  0
 10 16  1  0  0  0  0
 11 12  1  6  0  0  0
 11 13  1  0  0  0  0
 14 13  1  1  0  0  0
 14 15  1  0  0  0  0
 14 20  1  0  0  0  0
 15 16  1  6  0  0  0
 15 18  1  0  0  0  0
 16 17  2  0  0  0  0
 18 19  1  0  0  0  0
 20 19  1  6  0  0  0
M  CHG  1  22  -1
M  END
>  <CHROM.1>
-63.59920447,-179.93504270,-68.65365012,13.09306946,22.38940468,2.41449592
30.62565944,2.48372982,0.70362827,-0.57059305

>  <Name>
ligand

>  <RI>
416

>  <Rbt.Current_Directory>
/home/itssahil/PROJECTS/Mol_Feturizer/Test_systems_manuscript/rnas/3slm

>  <Rbt.Executable>
rbdock ($Id: //depot/dev/client3/rdock/2013.1/src/exe/rbdock.cxx#4 $)

>  <Rbt.Library>
libRbt.so (2013.1, Build901 2013/11/27)

>  <Rbt.Parameter_File>
/export/apps/rDock/src/rDock_2013.1_src/data/scripts/dock_solv.prm

>  <Rbt.Receptor>
prm/pocket_docking_5.prm

>  <SCORE>
-16.2363

>  <SCORE.INTER>
-13.2952

>  <SCORE.INTER.CONST>
1

>  <SCORE.INTER.POLAR>
0

>  <SCORE.INTER.ROT>
4

>  <SCORE.INTER.SOLV>
22.3742

>  <SCORE.INTER.VDW>
-22.5882

>  <SCORE.INTER.norm>
-0.578053

>  <SCORE.INTRA>
-2.94109

>  <SCORE.INTRA.DIHEDRAL>
-7.08119

>  <SCORE.INTRA.DIHEDRAL.0>
8.62657

>  <SCORE.INTRA.POLAR>
0

>  <SCORE.INTRA.POLAR.0>
0

>  <SCORE.INTRA.REPUL>
0

>  <SCORE.INTRA.REPUL.0>
0

>  <SCORE.INTRA.SOLV>
3.8082

>  <SCORE.INTRA.SOLV.lig_0>
-66.3641

>  <SCORE.INTRA.VDW>
-1.30459

>  <SCORE.INTRA.VDW.0>
0.452231

>  <SCORE.INTRA.norm>
-0.127873

>  <SCORE.RESTR>
0

>  <SCORE.RESTR.CAVITY>
0

>  <SCORE.RESTR.norm>
0

>  <SCORE.SYSTEM>
0

>  <SCORE.SYSTEM.CONST>
0

>  <SCORE.SYSTEM.DIHEDRAL>
0

>  <SCORE.SYSTEM.SOLV>
0

>  <SCORE.SYSTEM.norm>
0

>  <SCORE.heavy>
23

>  <SCORE.norm>
-0.705927

>  <RMSD>
6.954

$$$$
ligand
 OpenBabel02271912143D
libRbt.so/2013.1/901 2013/11/27
 23 25  0  0  0  0  0  0  0  0999 V2000
   22.9863    2.5341   31.7091 P   0  0  1  0  0  0  0  0  0  0  0  0
   21.5331    4.1297   30.2267 C   0  0  0  0  0  0  0  0  0  0  0  0
   21.7185    2.8271   30.7630 O   0  0  0  0  0  0  0  0  0  0  0  0
   21.1200    5.0321   31.3676 C   0  0  1  0  0  0  0  0  0  0  0  0
   20.8685    6.3676   30.9319 O   0  0  0  0  0  0  0  0  0  0  0  0
   19.8412    4.4963   31.9891 C   0  0  1  0  0  0  0  0  0  0  0  0
   20.0092    4.4825   33.4173 O   0  0  0  0  0  0  0  0  0  0  0  0
   18.7466    5.4602   31.5489 C   0  0  0  0  0  0  0  0  0  0  0  0
   19.4988    6.7282   31.1538 C   0  0  2  0  0  0  0  0  0  0  0  0
   16.6925   10.3468   28.7954 N   0  0  0  0  0  0  0  0  0  0  0  0
   16.9101   10.1964   30.1121 C   0  0  2  0  0  0  0  0  0  0  0  0
   16.3456   11.0947   30.9523 N   0  0  0  0  0  0  0  0  0  0  0  0
   17.6777    9.1837   30.5821 N   0  0  0  0  0  0  0  0  0  0  0  0
   18.2323    8.3099   29.7169 C   0  0  2  0  0  0  0  0  0  0  0  0
   18.0170    8.4492   28.3628 C   0  0  1  0  0  0  0  0  0  0  0  0
   17.2367    9.4949   27.9075 C   0  0  0  0  0  0  0  0  0  0  0  0
   17.0346    9.6426   26.6829 O   0  0  0  0  0  0  0  0  0  0  0  0
   18.6691    7.4532   27.7310 N   0  0  0  0  0  0  0  0  0  0  0  0
   19.2824    6.7154   28.6733 C   0  0  0  0  0  0  0  0  0  0  0  0
   19.0015    7.2382   29.8718 N   0  0  1  0  0  0  0  0  0  0  0  0
   22.7460    3.2648   33.0077 O   0  0  0  0  0  0  0  0  0  0  0  0
   23.0061    1.0281   31.8354 O   0  5  0  0  0  0  0  0  0  0  0  0
   24.1321    3.0923   30.9091 O   0  0  0  0  0  0  0  0  0  0  0  0
  1  3  1  6  0  0  0
  1 21  1  0  0  0  0
  1 22  1  0  0  0  0
  1 23  2  0  0  0  0
  2  3  1  0  0  0  0
  4  2  1  6  0  0  0
  4  5  1  0  0  0  0
  4  6  1  0  0  0  0
  6  7  1  1  0  0  0
  6  8  1  0  0  0  0
  8  9  1  0  0  0  0
  9  5  1  6  0  0  0
  9 20  1  0  0  0  0
 10 11  1  0  0  0  0
 10 16  1  0  0  0  0
 11 12  1  6  0  0  0
 11 13  1  0  0  0  0
 14 13  1  1  0  0  0
 14 15  1  0  0  0  0
 14 20  1  0  0  0  0
 15 16  1  6  0  0  0
 15 18  1  0  0  0  0
 16 17  2  0  0  0  0
 18 19  1  0  0  0  0
 20 19  1  6  0  0  0
M  CHG  1  22  -1
M  END
>  <CHROM.1>
70.08278071,-178.33479371,-71.31930347,-137.55441681,19.90594166,6.08259115
30.48674283,-0.44126073,0.86284214,-1.40871008

>  <Name>
ligand

>  <RI>
0

>  <Rbt.Current_Directory>
/home/itssahil/PROJECTS/Mol_Feturizer/Test_systems_manuscript/rnas/3slm

>  <Rbt.Executable>
rbdock ($Id: //depot/dev/client3/rdock/2013.1/src/exe/rbdock.cxx#4 $)

>  <Rbt.Library>
libRbt.so (2013.1, Build901 2013/11/27)

>  <Rbt.Parameter_File>
/export/apps/rDock/src/rDock_2013.1_src/data/scripts/dock_solv.prm

>  <Rbt.Receptor>
prm/blind_docking_100.prm

>  <SCORE>
-18.4189

>  <SCORE.INTER>
-13.8076

>  <SCORE.INTER.CONST>
1

>  <SCORE.INTER.POLAR>
0

>  <SCORE.INTER.ROT>
4

>  <SCORE.INTER.SOLV>
15.6529

>  <SCORE.INTER.VDW>
-20.6894

>  <SCORE.INTER.norm>
-0.600332

>  <SCORE.INTRA>
-4.61123

>  <SCORE.INTRA.DIHEDRAL>
-6.57215

>  <SCORE.INTRA.DIHEDRAL.0>
8.62657

>  <SCORE.INTRA.POLAR>
0

>  <SCORE.INTRA.POLAR.0>
0

>  <SCORE.INTRA.REPUL>
0

>  <SCORE.INTRA.REPUL.0>
0

>  <SCORE.INTRA.SOLV>
0.896645

>  <SCORE.INTRA.SOLV.lig_0>
-66.3641

>  <SCORE.INTRA.VDW>
-1.77348

>  <SCORE.INTRA.VDW.0>
0.452231

>  <SCORE.INTRA.norm>
-0.200488

>  <SCORE.RESTR>
0

>  <SCORE.RESTR.CAVITY>
0

>  <SCORE.RESTR.norm>
0

>  <SCORE.SYSTEM>
0

>  <SCORE.SYSTEM.CONST>
0

>  <SCORE.SYSTEM.DIHEDRAL>
0

>  <SCORE.SYSTEM.SOLV>
0

>  <SCORE.SYSTEM.norm>
0

>  <SCORE.heavy>
23

>  <SCORE.norm>
-0.80082

>  <RMSD>
6.955

$$$$
ligand
 OpenBabel02271912143D
libRbt.so/2013.1/901 2013/11/27
 23 25  0  0  0  0  0  0  0  0999 V2000
   22.6616    2.4963   27.0314 P   0  0  1  0  0  0  0  0  0  0  0  0
   23.9541    2.2239   29.2921 C   0  0  0  0  0  0  0  0  0  0  0  0
   23.6661    1.6996   28.0033 O   0  0  0  0  0  0  0  0  0  0  0  0
   22.6370    2.3864   30.0169 C   0  0  1  0  0  0  0  0  0  0  0  0
   22.0836    1.1319   30.4127 O   0  0  0  0  0  0  0  0  0  0  0  0
   22.8573    3.2149   31.2714 C   0  0  1  0  0  0  0  0  0  0  0  0
   21.8364    4.2264   31.3248 O   0  0  0  0  0  0  0  0  0  0  0  0
   22.7496    2.2287   32.4277 C   0  0  0  0  0  0  0  0  0  0  0  0
   21.9894    1.0425   31.8404 C   0  0  2  0  0  0  0  0  0  0  0  0
   25.2847   -2.6453   30.4006 N   0  0  0  0  0  0  0  0  0  0  0  0
   24.8978   -1.5640   29.7044 C   0  0  2  0  0  0  0  0  0  0  0  0
   25.4267   -1.3839   28.4718 N   0  0  0  0  0  0  0  0  0  0  0  0
   24.0141   -0.6780   30.2239 N   0  0  0  0  0  0  0  0  0  0  0  0
   23.5116   -0.8831   31.4589 C   0  0  2  0  0  0  0  0  0  0  0  0
   23.8970   -1.9889   32.1855 C   0  0  1  0  0  0  0  0  0  0  0  0
   24.8057   -2.8738   31.6369 C   0  0  0  0  0  0  0  0  0  0  0  0
   25.1730   -3.8793   32.2822 O   0  0  0  0  0  0  0  0  0  0  0  0
   23.2495   -1.9593   33.3671 N   0  0  0  0  0  0  0  0  0  0  0  0
   22.4837   -0.8540   33.3763 C   0  0  0  0  0  0  0  0  0  0  0  0
   22.6432   -0.2168   32.2113 N   0  0  1  0  0  0  0  0  0  0  0  0
   21.2608    2.0755   27.4039 O   0  0  0  0  0  0  0  0  0  0  0  0
   22.9689    3.9509   27.3033 O   0  5  0  0  0  0  0  0  0  0  0  0
   23.0850    2.0306   25.6645 O   0  0  0  0  0  0  0  0  0  0  0  0
  1  3  1  1  0  0  0
  1 21  1  0  0  0  0
  1 22  1  0  0  0  0
  1 23  2  0  0  0  0
  2  3  1  0  0  0  0
  4  2  1  1  0  0  0
  4  5  1  0  0  0  0
  4  6  1  0  0  0  0
  6  7  1  1  0  0  0
  6  8  1  0  0  0  0
  8  9  1  0  0  0  0
  9  5  1  6  0  0  0
  9 20  1  0  0  0  0
 10 11  1  0  0  0  0
 10 16  1  0  0  0  0
 11 12  1  1  0  0  0
 11 13  1  0  0  0  0
 14 13  1  6  0  0  0
 14 15  1  0  0  0  0
 14 20  1  0  0  0  0
 15 16  1  1  0  0  0
 15 18  1  0  0  0  0
 16 17  2  0  0  0  0
 18 19  1  0  0  0  0
 20 19  1  1  0  0  0
M  CHG  1  22  -1
M  END
>  <CHROM.1>
-84.71736779,72.66639272,56.89354755,20.15692714,23.29022260,0.62195283,30.05038086
-2.07347365,-1.06627646,1.99625693

>  <Name>
ligand

>  <RI>
0

>  <Rbt.Current_Directory>
/home/itssahil/PROJECTS/Mol_Feturizer/Test_systems_manuscript/rnas/3slm

>  <Rbt.Executable>
rbdock ($Id: //depot/dev/client3/rdock/2013.1/src/exe/rbdock.cxx#4 $)

>  <Rbt.Library>
libRbt.so (2013.1, Build901 2013/11/27)

>  <Rbt.Parameter_File>
/export/apps/rDock/src/rDock_2013.1_src/data/scripts/dock_solv.prm

>  <Rbt.Receptor>
prm/pocket_docking_8.prm

>  <SCORE>
-16.6345

>  <SCORE.INTER>
-13.2537

>  <SCORE.INTER.CONST>
1

>  <SCORE.INTER.POLAR>
0

>  <SCORE.INTER.ROT>
4

>  <SCORE.INTER.SOLV>
21.3316

>  <SCORE.INTER.VDW>
-22.213

>  <SCORE.INTER.norm>
-0.576246

>  <SCORE.INTRA>
-3.38079

>  <SCORE.INTRA.DIHEDRAL>
-6.02543

>  <SCORE.INTRA.DIHEDRAL.0>
8.62657

>  <SCORE.INTRA.POLAR>
0

>  <SCORE.INTRA.POLAR.0>
0

>  <SCORE.INTRA.REPUL>
0

>  <SCORE.INTRA.REPUL.0>
0

>  <SCORE.INTRA.SOLV>
3.06863

>  <SCORE.INTRA.SOLV.lig_0>
-66.3641

>  <SCORE.INTRA.VDW>
-1.9024

>  <SCORE.INTRA.VDW.0>
0.452231

>  <SCORE.INTRA.norm>
-0.146991

>  <SCORE.RESTR>
0

>  <SCORE.RESTR.CAVITY>
0

>  <SCORE.RESTR.norm>
0

>  <SCORE.SYSTEM>
0

>  <SCORE.SYSTEM.CONST>
0

>  <SCORE.SYSTEM.DIHEDRAL>
0

>  <SCORE.SYSTEM.SOLV>
0

>  <SCORE.SYSTEM.norm>
0

>  <SCORE.heavy>
23

>  <SCORE.norm>
-0.723237

>  <RMSD>
6.956

$$$$
ligand
 OpenBabel02271912143D
libRbt.so/2013.1/901 2013/11/27
 23 25  0  0  0  0  0  0  0  0999 V2000
   19.7776    1.7398   27.3124 P   0  0  1  0  0  0  0  0  0  0  0  0
   22.0194    1.5904   28.6569 C   0  0  0  0  0  0  0  0  0  0  0  0
   20.8999    0.9075   28.1099 O   0  0  0  0  0  0  0  0  0  0  0  0
   21.5592    2.2610   29.9317 C   0  0  1  0  0  0  0  0  0  0  0  0
   21.2353    1.3144   30.9495 O   0  0  0  0  0  0  0  0  0  0  0  0
   22.6742    3.1484   30.4587 C   0  0  1  0  0  0  0  0  0  0  0  0
   22.1075    4.4264   30.7959 O   0  0  0  0  0  0  0  0  0  0  0  0
   23.2213    2.4222   31.6811 C   0  0  0  0  0  0  0  0  0  0  0  0
   22.1024    1.4643   32.0813 C   0  0  2  0  0  0  0  0  0  0  0  0
   25.0692   -2.3751   30.3524 N   0  0  0  0  0  0  0  0  0  0  0  0
   24.7759   -1.2164   29.7400 C   0  0  2  0  0  0  0  0  0  0  0  0
   25.3177   -0.9916   28.5204 N   0  0  0  0  0  0  0  0  0  0  0  0
   23.9715   -0.2989   30.3292 N   0  0  0  0  0  0  0  0  0  0  0  0
   23.4540   -0.5508   31.5492 C   0  0  2  0  0  0  0  0  0  0  0  0
   23.7437   -1.7359   32.1900 C   0  0  1  0  0  0  0  0  0  0  0  0
   24.5730   -2.6523   31.5718 C   0  0  0  0  0  0  0  0  0  0  0  0
   24.8533   -3.7303   32.1391 O   0  0  0  0  0  0  0  0  0  0  0  0
   23.1017   -1.7384   33.3750 N   0  0  0  0  0  0  0  0  0  0  0  0
   22.4333   -0.5755   33.4705 C   0  0  0  0  0  0  0  0  0  0  0  0
   22.6462    0.1299   32.3543 N   0  0  1  0  0  0  0  0  0  0  0  0
   19.2930    2.8276   28.2397 O   0  0  0  0  0  0  0  0  0  0  0  0
   20.5013    2.2433   26.0848 O   0  5  0  0  0  0  0  0  0  0  0  0
   18.7367    0.6937   27.0183 O   0  0  0  0  0  0  0  0  0  0  0  0
  1  3  1  1  0  0  0
  1 21  1  0  0  0  0
  1 22  1  0  0  0  0
  1 23  2  0  0  0  0
  2  3  1  0  0  0  0
  4  2  1  6  0  0  0
  4  5  1  0  0  0  0
  4  6  1  0  0  0  0
  6  7  1  1  0  0  0
  6  8  1  0  0  0  0
  8  9  1  0  0  0  0
  9  5  1  6  0  0  0
  9 20  1  0  0  0  0
 10 11  1  0  0  0  0
 10 16  1  0  0  0  0
 11 12  1  1  0  0  0
 11 13  1  0  0  0  0
 14 13  1  6  0  0  0
 14 15  1  0  0  0  0
 14 20  1  0  0  0  0
 15 16  1  1  0  0  0
 15 18  1  0  0  0  0
 16 17  2  0  0  0  0
 18 19  1  0  0  0  0
 20 19  1  1  0  0  0
M  CHG  1  22  -1
M  END
>  <CHROM.1>
-55.32357338,67.73305194,78.17598847,65.56398735,22.29511704,0.54049225,30.05435769
-2.99880359,-0.93996920,0.96053069

>  <Name>
ligand

>  <RI>
416

>  <Rbt.Current_Directory>
/home/itssahil/PROJECTS/Mol_Feturizer/Test_systems_manuscript/rnas/3slm

>  <Rbt.Executable>
rbdock ($Id: //depot/dev/client3/rdock/2013.1/src/exe/rbdock.cxx#4 $)

>  <Rbt.Library>
libRbt.so (2013.1, Build901 2013/11/27)

>  <Rbt.Parameter_File>
/export/apps/rDock/src/rDock_2013.1_src/data/scripts/dock_solv.prm

>  <Rbt.Receptor>
prm/pocket_docking_6.prm

>  <SCORE>
-18.5471

>  <SCORE.INTER>
-13.5932

>  <SCORE.INTER.CONST>
1

>  <SCORE.INTER.POLAR>
0

>  <SCORE.INTER.ROT>
4

>  <SCORE.INTER.SOLV>
19.9129

>  <SCORE.INTER.VDW>
-21.9664

>  <SCORE.INTER.norm>
-0.591008

>  <SCORE.INTRA>
-4.95389

>  <SCORE.INTRA.DIHEDRAL>
-5.64113

>  <SCORE.INTRA.DIHEDRAL.0>
8.62657

>  <SCORE.INTRA.POLAR>
0

>  <SCORE.INTRA.POLAR.0>
0

>  <SCORE.INTRA.REPUL>
0

>  <SCORE.INTRA.REPUL.0>
0

>  <SCORE.INTRA.SOLV>
0.812432

>  <SCORE.INTRA.SOLV.lig_0>
-66.3641

>  <SCORE.INTRA.VDW>
-2.53954

>  <SCORE.INTRA.VDW.0>
0.452231

>  <SCORE.INTRA.norm>
-0.215387

>  <SCORE.RESTR>
0

>  <SCORE.RESTR.CAVITY>
0

>  <SCORE.RESTR.norm>
0

>  <SCORE.SYSTEM>
0

>  <SCORE.SYSTEM.CONST>
0

>  <SCORE.SYSTEM.DIHEDRAL>
0

>  <SCORE.SYSTEM.SOLV>
0

>  <SCORE.SYSTEM.norm>
0

>  <SCORE.heavy>
23

>  <SCORE.norm>
-0.806395

>  <RMSD>
6.973

$$$$
ligand
 OpenBabel02271912143D
libRbt.so/2013.1/901 2013/11/27
 23 25  0  0  0  0  0  0  0  0999 V2000
   19.2398    1.7570   26.5284 P   0  0  1  0  0  0  0  0  0  0  0  0
   20.0729    2.9618   28.6985 C   0  0  0  0  0  0  0  0  0  0  0  0
   19.6296    1.7573   28.0892 O   0  0  0  0  0  0  0  0  0  0  0  0
   20.5006    2.6226   30.1087 C   0  0  1  0  0  0  0  0  0  0  0  0
   21.4183    1.5302   30.1433 O   0  0  0  0  0  0  0  0  0  0  0  0
   21.1889    3.8290   30.7246 C   0  0  1  0  0  0  0  0  0  0  0  0
   20.6405    4.0351   32.0380 O   0  0  0  0  0  0  0  0  0  0  0  0
   22.6681    3.4671   30.7703 C   0  0  0  0  0  0  0  0  0  0  0  0
   22.6858    1.9441   30.6700 C   0  0  2  0  0  0  0  0  0  0  0  0
   26.2085   -1.6165   29.4680 N   0  0  0  0  0  0  0  0  0  0  0  0
   25.4356   -1.5548   30.5647 C   0  0  2  0  0  0  0  0  0  0  0  0
   25.5646   -2.5391   31.4845 N   0  0  0  0  0  0  0  0  0  0  0  0
   24.5492   -0.5450   30.7387 N   0  0  0  0  0  0  0  0  0  0  0  0
   24.4399    0.4163   29.7986 C   0  0  2  0  0  0  0  0  0  0  0  0
   25.2272    0.3685   28.6685 C   0  0  1  0  0  0  0  0  0  0  0  0
   26.1182   -0.6759   28.5103 C   0  0  0  0  0  0  0  0  0  0  0  0
   26.8366   -0.7410   27.4895 O   0  0  0  0  0  0  0  0  0  0  0  0
   24.9287    1.4385   27.9054 N   0  0  0  0  0  0  0  0  0  0  0  0
   23.9708    2.1319   28.5455 C   0  0  0  0  0  0  0  0  0  0  0  0
   23.6912    1.5085   29.6952 N   0  0  1  0  0  0  0  0  0  0  0  0
   18.1190    2.7527   26.3534 O   0  0  0  0  0  0  0  0  0  0  0  0
   20.5260    2.1371   25.8317 O   0  5  0  0  0  0  0  0  0  0  0  0
   18.8189    0.3316   26.2928 O   0  0  0  0  0  0  0  0  0  0  0  0
  1  3  1  1  0  0  0
  1 21  1  0  0  0  0
  1 22  1  0  0  0  0
  1 23  2  0  0  0  0
  2  3  1  0  0  0  0
  4  2  1  6  0  0  0
  4  5  1  0  0  0  0
  4  6  1  0  0  0  0
  6  7  1  1  0  0  0
  6  8  1  0  0  0  0
  8  9  1  0  0  0  0
  9  5  1  6  0  0  0
  9 20  1  0  0  0  0
 10 11  1  0  0  0  0
 10 16  1  0  0  0  0
 11 12  1  6  0  0  0
 11 13  1  0  0  0  0
 14 13  1  1  0  0  0
 14 15  1  0  0  0  0
 14 20  1  0  0  0  0
 15 16  1  6  0  0  0
 15 18  1  0  0  0  0
 16 17  2  0  0  0  0
 18 19  1  0  0  0  0
 20 19  1  6  0  0  0
M  CHG  1  22  -1
M  END
>  <CHROM.1>
-59.57885665,51.54729306,-174.08433266,-99.52841292,22.40942905,1.25355726
28.90492210,-3.08368817,-0.52988643,1.10132745

>  <Name>
ligand

>  <RI>
416

>  <Rbt.Current_Directory>
/home/itssahil/PROJECTS/Mol_Feturizer/Test_systems_manuscript/rnas/3slm

>  <Rbt.Executable>
rbdock ($Id: //depot/dev/client3/rdock/2013.1/src/exe/rbdock.cxx#4 $)

>  <Rbt.Library>
libRbt.so (2013.1, Build901 2013/11/27)

>  <Rbt.Parameter_File>
/export/apps/rDock/src/rDock_2013.1_src/data/scripts/dock_solv.prm

>  <Rbt.Receptor>
prm/pocket_docking_4.prm

>  <SCORE>
-16.3885

>  <SCORE.INTER>
-10.9629

>  <SCORE.INTER.CONST>
1

>  <SCORE.INTER.POLAR>
0

>  <SCORE.INTER.ROT>
4

>  <SCORE.INTER.SOLV>
20.344

>  <SCORE.INTER.VDW>
-20.3566

>  <SCORE.INTER.norm>
-0.476648

>  <SCORE.INTRA>
-5.42561

>  <SCORE.INTRA.DIHEDRAL>
-7.04957

>  <SCORE.INTRA.DIHEDRAL.0>
8.62657

>  <SCORE.INTRA.POLAR>
0

>  <SCORE.INTRA.POLAR.0>
0

>  <SCORE.INTRA.REPUL>
0

>  <SCORE.INTRA.REPUL.0>
0

>  <SCORE.INTRA.SOLV>
-0.601064

>  <SCORE.INTRA.SOLV.lig_0>
-66.3641

>  <SCORE.INTRA.VDW>
-1.6003

>  <SCORE.INTRA.VDW.0>
0.452231

>  <SCORE.INTRA.norm>
-0.235896

>  <SCORE.RESTR>
0

>  <SCORE.RESTR.CAVITY>
0

>  <SCORE.RESTR.norm>
0

>  <SCORE.SYSTEM>
0

>  <SCORE.SYSTEM.CONST>
0

>  <SCORE.SYSTEM.DIHEDRAL>
0

>  <SCORE.SYSTEM.SOLV>
0

>  <SCORE.SYSTEM.norm>
0

>  <SCORE.heavy>
23

>  <SCORE.norm>
-0.712545

>  <RMSD>
6.995

$$$$
ligand
 OpenBabel02271912143D
libRbt.so/2013.1/901 2013/11/27
 23 25  0  0  0  0  0  0  0  0999 V2000
   18.9588    1.6063   25.9172 P   0  0  1  0  0  0  0  0  0  0  0  0
   20.8984    3.0751   26.8845 C   0  0  0  0  0  0  0  0  0  0  0  0
   20.4454    1.7826   26.5063 O   0  0  0  0  0  0  0  0  0  0  0  0
   20.2264    3.4227   28.1937 C   0  0  1  0  0  0  0  0  0  0  0  0
   20.5268    2.4767   29.2192 O   0  0  0  0  0  0  0  0  0  0  0  0
   20.7147    4.7844   28.6585 C   0  0  1  0  0  0  0  0  0  0  0  0
   19.5690    5.5624   29.0459 O   0  0  0  0  0  0  0  0  0  0  0  0
   21.6395    4.4989   29.8352 C   0  0  0  0  0  0  0  0  0  0  0  0
   21.2415    3.0989   30.2950 C   0  0  2  0  0  0  0  0  0  0  0  0
   23.2168   -0.9952   32.7174 N   0  0  0  0  0  0  0  0  0  0  0  0
   21.9673   -0.5097   32.7983 C   0  0  2  0  0  0  0  0  0  0  0  0
   21.0885   -1.1572   33.5983 N   0  0  0  0  0  0  0  0  0  0  0  0
   21.5970    0.5869   32.0939 N   0  0  0  0  0  0  0  0  0  0  0  0
   22.4954    1.2043   31.2994 C   0  0  2  0  0  0  0  0  0  0  0  0
   23.7822    0.7198   31.2069 C   0  0  1  0  0  0  0  0  0  0  0  0
   24.1334   -0.4049   31.9291 C   0  0  0  0  0  0  0  0  0  0  0  0
   25.2936   -0.8640   31.8541 O   0  0  0  0  0  0  0  0  0  0  0  0
   24.4690    1.5151   30.3631 N   0  0  0  0  0  0  0  0  0  0  0  0
   23.6236    2.4693   29.9351 C   0  0  0  0  0  0  0  0  0  0  0  0
   22.4351    2.2762   30.5174 N   0  0  1  0  0  0  0  0  0  0  0  0
   18.0663    2.5541   26.6809 O   0  0  0  0  0  0  0  0  0  0  0  0
   19.1071    1.9354   24.4496 O   0  5  0  0  0  0  0  0  0  0  0  0
   18.6654    0.1555   26.1884 O   0  0  0  0  0  0  0  0  0  0  0  0
  1  3  1  1  0  0  0
  1 21  1  0  0  0  0
  1 22  1  0  0  0  0
  1 23  2  0  0  0  0
  2  3  1  0  0  0  0
  4  2  1  6  0  0  0
  4  5  1  0  0  0  0
  4  6  1  0  0  0  0
  6  7  1  1  0  0  0
  6  8  1  0  0  0  0
  8  9  1  0  0  0  0
  9  5  1  6  0  0  0
  9 20  1  0  0  0  0
 10 11  1  0  0  0  0
 10 16  1  0  0  0  0
 11 12  1  6  0  0  0
 11 13  1  0  0  0  0
 14 13  1  1  0  0  0
 14 15  1  0  0  0  0
 14 20  1  0  0  0  0
 15 16  1  6  0  0  0
 15 18  1  0  0  0  0
 16 17  2  0  0  0  0
 18 19  1  0  0  0  0
 20 19  1  6  0  0  0
M  CHG  1  22  -1
M  END
>  <CHROM.1>
-37.43336122,58.91176882,75.00943612,-86.65804388,21.26441525,1.74554124
29.26427875,2.79094288,-0.94807170,-0.01702916

>  <Name>
ligand

>  <RI>
0

>  <Rbt.Current_Directory>
/home/itssahil/PROJECTS/Mol_Feturizer/Test_systems_manuscript/rnas/3slm

>  <Rbt.Executable>
rbdock ($Id: //depot/dev/client3/rdock/2013.1/src/exe/rbdock.cxx#4 $)

>  <Rbt.Library>
libRbt.so (2013.1, Build901 2013/11/27)

>  <Rbt.Parameter_File>
/export/apps/rDock/src/rDock_2013.1_src/data/scripts/dock_solv.prm

>  <Rbt.Receptor>
prm/pocket_docking_3.prm

>  <SCORE>
-15.1333

>  <SCORE.INTER>
-11.518

>  <SCORE.INTER.CONST>
1

>  <SCORE.INTER.POLAR>
0

>  <SCORE.INTER.ROT>
4

>  <SCORE.INTER.SOLV>
24.8797

>  <SCORE.INTER.VDW>
-22.2385

>  <SCORE.INTER.norm>
-0.500781

>  <SCORE.INTRA>
-3.61536

>  <SCORE.INTRA.DIHEDRAL>
-5.64824

>  <SCORE.INTRA.DIHEDRAL.0>
8.62657

>  <SCORE.INTRA.POLAR>
0

>  <SCORE.INTRA.POLAR.0>
0

>  <SCORE.INTRA.REPUL>
0

>  <SCORE.INTRA.REPUL.0>
0

>  <SCORE.INTRA.SOLV>
0.256643

>  <SCORE.INTRA.SOLV.lig_0>
-66.3641

>  <SCORE.INTRA.VDW>
-0.919567

>  <SCORE.INTRA.VDW.0>
0.452231

>  <SCORE.INTRA.norm>
-0.15719

>  <SCORE.RESTR>
0

>  <SCORE.RESTR.CAVITY>
0

>  <SCORE.RESTR.norm>
0

>  <SCORE.SYSTEM>
0

>  <SCORE.SYSTEM.CONST>
0

>  <SCORE.SYSTEM.DIHEDRAL>
0

>  <SCORE.SYSTEM.SOLV>
0

>  <SCORE.SYSTEM.norm>
0

>  <SCORE.heavy>
23

>  <SCORE.norm>
-0.657971

>  <RMSD>
7.007

$$$$
ligand
 OpenBabel02271912143D
libRbt.so/2013.1/901 2013/11/27
 23 25  0  0  0  0  0  0  0  0999 V2000
   22.8753    0.8838   32.1404 P   0  0  1  0  0  0  0  0  0  0  0  0
   23.0730    3.3827   31.3843 C   0  0  0  0  0  0  0  0  0  0  0  0
   22.7255    2.4628   32.4099 O   0  0  0  0  0  0  0  0  0  0  0  0
   21.9661    3.3488   30.3547 C   0  0  1  0  0  0  0  0  0  0  0  0
   20.7183    3.7843   30.8933 O   0  0  0  0  0  0  0  0  0  0  0  0
   22.3259    4.2750   29.2052 C   0  0  1  0  0  0  0  0  0  0  0  0
   22.0954    3.5699   27.9732 O   0  0  0  0  0  0  0  0  0  0  0  0
   21.4064    5.4801   29.3579 C   0  0  0  0  0  0  0  0  0  0  0  0
   20.2630    4.9721   30.2322 C   0  0  2  0  0  0  0  0  0  0  0  0
   17.9592    9.4179   31.4404 N   0  0  0  0  0  0  0  0  0  0  0  0
   18.0320    8.8241   30.2380 C   0  0  2  0  0  0  0  0  0  0  0  0
   17.4278    9.4367   29.1934 N   0  0  0  0  0  0  0  0  0  0  0  0
   18.6811    7.6454   30.0790 N   0  0  0  0  0  0  0  0  0  0  0  0
   19.2661    7.0572   31.1428 C   0  0  2  0  0  0  0  0  0  0  0  0
   19.2021    7.6546   32.3830 C   0  0  1  0  0  0  0  0  0  0  0  0
   18.5276    8.8528   32.5211 C   0  0  0  0  0  0  0  0  0  0  0  0
   18.4525    9.4076   33.6386 O   0  0  0  0  0  0  0  0  0  0  0  0
   19.8657    6.8735   33.2582 N   0  0  0  0  0  0  0  0  0  0  0  0
   20.3257    5.8097   32.5763 C   0  0  0  0  0  0  0  0  0  0  0  0
   19.9650    5.9381   31.2948 N   0  0  1  0  0  0  0  0  0  0  0  0
   22.3189    0.1749   33.3512 O   0  0  0  0  0  0  0  0  0  0  0  0
   22.0911    0.6553   30.8688 O   0  5  0  0  0  0  0  0  0  0  0  0
   24.3617    0.7158   31.9766 O   0  0  0  0  0  0  0  0  0  0  0  0
  1  3  1  1  0  0  0
  1 21  1  0  0  0  0
  1 22  1  0  0  0  0
  1 23  2  0  0  0  0
  2  3  1  0  0  0  0
  4  2  1  1  0  0  0
  4  5  1  0  0  0  0
  4  6  1  0  0  0  0
  6  7  1  6  0  0  0
  6  8  1  0  0  0  0
  8  9  1  0  0  0  0
  9  5  1  1  0  0  0
  9 20  1  0  0  0  0
 10 11  1  0  0  0  0
 10 16  1  0  0  0  0
 11 12  1  1  0  0  0
 11 13  1  0  0  0  0
 14 13  1  6  0  0  0
 14 15  1  0  0  0  0
 14 20  1  0  0  0  0
 15 16  1  1  0  0  0
 15 18  1  0  0  0  0
 16 17  2  0  0  0  0
 18 19  1  0  0  0  0
 20 19  1  1  0  0  0
M  CHG  1  22  -1
M  END
>  <CHROM.1>
-175.00070817,63.05380797,75.05187455,-165.34582250,20.80588457,4.87233483
31.26986837,0.12897613,-1.02002689,1.68440490

>  <Name>
ligand

>  <RI>
0

>  <Rbt.Current_Directory>
/home/itssahil/PROJECTS/Mol_Feturizer/Test_systems_manuscript/rnas/3slm

>  <Rbt.Executable>
rbdock ($Id: //depot/dev/client3/rdock/2013.1/src/exe/rbdock.cxx#4 $)

>  <Rbt.Library>
libRbt.so (2013.1, Build901 2013/11/27)

>  <Rbt.Parameter_File>
/export/apps/rDock/src/rDock_2013.1_src/data/scripts/dock_solv.prm

>  <Rbt.Receptor>
prm/blind_docking_60.prm

>  <SCORE>
-17.8695

>  <SCORE.INTER>
-14.6435

>  <SCORE.INTER.CONST>
1

>  <SCORE.INTER.POLAR>
0

>  <SCORE.INTER.ROT>
4

>  <SCORE.INTER.SOLV>
14.388

>  <SCORE.INTER.VDW>
-20.825

>  <SCORE.INTER.norm>
-0.636674

>  <SCORE.INTRA>
-3.22601

>  <SCORE.INTRA.DIHEDRAL>
-6.24117

>  <SCORE.INTRA.DIHEDRAL.0>
8.62657

>  <SCORE.INTRA.POLAR>
0

>  <SCORE.INTRA.POLAR.0>
0

>  <SCORE.INTRA.REPUL>
0

>  <SCORE.INTRA.REPUL.0>
0

>  <SCORE.INTRA.SOLV>
2.47118

>  <SCORE.INTRA.SOLV.lig_0>
-66.3641

>  <SCORE.INTRA.VDW>
-1.34101

>  <SCORE.INTRA.VDW.0>
0.452231

>  <SCORE.INTRA.norm>
-0.140261

>  <SCORE.RESTR>
0

>  <SCORE.RESTR.CAVITY>
0

>  <SCORE.RESTR.norm>
0

>  <SCORE.SYSTEM>
0

>  <SCORE.SYSTEM.CONST>
0

>  <SCORE.SYSTEM.DIHEDRAL>
0

>  <SCORE.SYSTEM.SOLV>
0

>  <SCORE.SYSTEM.norm>
0

>  <SCORE.heavy>
23

>  <SCORE.norm>
-0.776935

>  <RMSD>
7.014

$$$$
ligand
 OpenBabel02271912143D
libRbt.so/2013.1/901 2013/11/27
 23 25  0  0  0  0  0  0  0  0999 V2000
   20.6585    5.2139   31.0269 P   0  0  1  0  0  0  0  0  0  0  0  0
   22.1355    4.8871   28.8900 C   0  0  0  0  0  0  0  0  0  0  0  0
   21.6879    4.3612   30.1317 O   0  0  0  0  0  0  0  0  0  0  0  0
   23.2011    3.9526   28.3628 C   0  0  1  0  0  0  0  0  0  0  0  0
   23.7346    3.1143   29.3872 O   0  0  0  0  0  0  0  0  0  0  0  0
   22.5948    3.0564   27.2962 C   0  0  1  0  0  0  0  0  0  0  0  0
   23.4794    3.0486   26.1623 O   0  0  0  0  0  0  0  0  0  0  0  0
   22.4798    1.6824   27.9443 C   0  0  0  0  0  0  0  0  0  0  0  0
   23.4619    1.7341   29.1117 C   0  0  2  0  0  0  0  0  0  0  0  0
   23.6717   -1.8874   32.7685 N   0  0  0  0  0  0  0  0  0  0  0  0
   24.4897   -1.7269   31.7156 C   0  0  2  0  0  0  0  0  0  0  0  0
   25.5130   -2.6008   31.5716 N   0  0  0  0  0  0  0  0  0  0  0  0
   24.3016   -0.7168   30.8323 N   0  0  0  0  0  0  0  0  0  0  0  0
   23.2763    0.1419   31.0093 C   0  0  2  0  0  0  0  0  0  0  0  0
   22.4267   -0.0104   32.0836 C   0  0  1  0  0  0  0  0  0  0  0  0
   22.6442   -1.0438   32.9749 C   0  0  0  0  0  0  0  0  0  0  0  0
   21.8889   -1.1953   33.9593 O   0  0  0  0  0  0  0  0  0  0  0  0
   21.4960    0.9624   32.0219 N   0  0  0  0  0  0  0  0  0  0  0  0
   21.7670    1.7073   30.9357 C   0  0  0  0  0  0  0  0  0  0  0  0
   22.8408    1.1939   30.3255 N   0  0  1  0  0  0  0  0  0  0  0  0
   21.3217    6.5372   31.3221 O   0  0  0  0  0  0  0  0  0  0  0  0
   19.4221    5.3148   30.1636 O   0  5  0  0  0  0  0  0  0  0  0  0
   20.4812    4.3464   32.2437 O   0  0  0  0  0  0  0  0  0  0  0  0
  1  3  1  6  0  0  0
  1 21  1  0  0  0  0
  1 22  1  0  0  0  0
  1 23  2  0  0  0  0
  2  3  1  0  0  0  0
  4  2  1  1  0  0  0
  4  5  1  0  0  0  0
  4  6  1  0  0  0  0
  6  7  1  6  0  0  0
  6  8  1  0  0  0  0
  8  9  1  0  0  0  0
  9  5  1  1  0  0  0
  9 20  1  0  0  0  0
 10 11  1  0  0  0  0
 10 16  1  0  0  0  0
 11 12  1  1  0  0  0
 11 13  1  0  0  0  0
 14 13  1  6  0  0  0
 14 15  1  0  0  0  0
 14 20  1  0  0  0  0
 15 16  1  1  0  0  0
 15 18  1  0  0  0  0
 16 17  2  0  0  0  0
 18 19  1  0  0  0  0
 20 19  1  1  0  0  0
M  CHG  1  22  -1
M  END
>  <CHROM.1>
-58.44483189,-18.44820975,173.54179293,-124.27908770,22.41924981,2.12246395
30.53882418,2.15674086,0.93682402,-0.83770401

>  <Name>
ligand

>  <RI>
416

>  <Rbt.Current_Directory>
/home/itssahil/PROJECTS/Mol_Feturizer/Test_systems_manuscript/rnas/3slm

>  <Rbt.Executable>
rbdock ($Id: //depot/dev/client3/rdock/2013.1/src/exe/rbdock.cxx#4 $)

>  <Rbt.Library>
libRbt.so (2013.1, Build901 2013/11/27)

>  <Rbt.Parameter_File>
/export/apps/rDock/src/rDock_2013.1_src/data/scripts/dock_solv.prm

>  <Rbt.Receptor>
prm/pocket_docking_5.prm

>  <SCORE>
-17.2284

>  <SCORE.INTER>
-13.4424

>  <SCORE.INTER.CONST>
1

>  <SCORE.INTER.POLAR>
0

>  <SCORE.INTER.ROT>
4

>  <SCORE.INTER.SOLV>
16.9476

>  <SCORE.INTER.VDW>
-20.8775

>  <SCORE.INTER.norm>
-0.584452

>  <SCORE.INTRA>
-3.78604

>  <SCORE.INTRA.DIHEDRAL>
-3.05545

>  <SCORE.INTRA.DIHEDRAL.0>
8.62657

>  <SCORE.INTRA.POLAR>
0

>  <SCORE.INTRA.POLAR.0>
0

>  <SCORE.INTRA.REPUL>
0

>  <SCORE.INTRA.REPUL.0>
0

>  <SCORE.INTRA.SOLV>
0.0595779

>  <SCORE.INTRA.SOLV.lig_0>
-66.3641

>  <SCORE.INTRA.VDW>
-2.28811

>  <SCORE.INTRA.VDW.0>
0.452231

>  <SCORE.INTRA.norm>
-0.164611

>  <SCORE.RESTR>
0

>  <SCORE.RESTR.CAVITY>
0

>  <SCORE.RESTR.norm>
0

>  <SCORE.SYSTEM>
0

>  <SCORE.SYSTEM.CONST>
0

>  <SCORE.SYSTEM.DIHEDRAL>
0

>  <SCORE.SYSTEM.SOLV>
0

>  <SCORE.SYSTEM.norm>
0

>  <SCORE.heavy>
23

>  <SCORE.norm>
-0.749063

>  <RMSD>
7.016

$$$$
ligand
 OpenBabel02271912143D
libRbt.so/2013.1/901 2013/11/27
 23 25  0  0  0  0  0  0  0  0999 V2000
   17.8102   -0.1094   24.2535 P   0  0  1  0  0  0  0  0  0  0  0  0
   18.9239    0.2941   26.5885 C   0  0  0  0  0  0  0  0  0  0  0  0
   17.9139    0.6643   25.6603 O   0  0  0  0  0  0  0  0  0  0  0  0
   19.0816    1.4393   27.5632 C   0  0  1  0  0  0  0  0  0  0  0  0
   20.1083    1.1902   28.5228 O   0  0  0  0  0  0  0  0  0  0  0  0
   19.4548    2.6977   26.7978 C   0  0  1  0  0  0  0  0  0  0  0  0
   18.6157    3.7694   27.2621 O   0  0  0  0  0  0  0  0  0  0  0  0
   20.9248    2.9400   27.1163 C   0  0  0  0  0  0  0  0  0  0  0  0
   21.1669    2.1490   28.3991 C   0  0  2  0  0  0  0  0  0  0  0  0
   24.4738   -0.9686   30.8234 N   0  0  0  0  0  0  0  0  0  0  0  0
   23.3634   -0.3964   31.3166 C   0  0  2  0  0  0  0  0  0  0  0  0
   23.0367   -0.6572   32.6038 N   0  0  0  0  0  0  0  0  0  0  0  0
   22.5909    0.4077   30.5468 N   0  0  0  0  0  0  0  0  0  0  0  0
   22.9407    0.6408   29.2650 C   0  0  2  0  0  0  0  0  0  0  0  0
   24.0782    0.0628   28.7444 C   0  0  1  0  0  0  0  0  0  0  0  0
   24.8453   -0.7598   29.5473 C   0  0  0  0  0  0  0  0  0  0  0  0
   25.8772   -1.2988   29.0922 O   0  0  0  0  0  0  0  0  0  0  0  0
   24.2001    0.4602   27.4624 N   0  0  0  0  0  0  0  0  0  0  0  0
   23.1556    1.2625   27.1910 C   0  0  0  0  0  0  0  0  0  0  0  0
   22.4064    1.3723   28.2935 N   0  0  1  0  0  0  0  0  0  0  0  0
   18.2542   -1.5311   24.4981 O   0  0  0  0  0  0  0  0  0  0  0  0
   16.3562    0.0321   23.8664 O   0  5  0  0  0  0  0  0  0  0  0  0
   18.7516    0.6712   23.3766 O   0  0  0  0  0  0  0  0  0  0  0  0
  1  3  1  1  0  0  0
  1 21  1  0  0  0  0
  1 22  1  0  0  0  0
  1 23  2  0  0  0  0
  2  3  1  0  0  0  0
  4  2  1  6  0  0  0
  4  5  1  0  0  0  0
  4  6  1  0  0  0  0
  6  7  1  1  0  0  0
  6  8  1  0  0  0  0
  8  9  1  0  0  0  0
  9  5  1  6  0  0  0
  9 20  1  0  0  0  0
 10 11  1  0  0  0  0
 10 16  1  0  0  0  0
 11 12  1  6  0  0  0
 11 13  1  0  0  0  0
 14 13  1  1  0  0  0
 14 15  1  0  0  0  0
 14 20  1  0  0  0  0
 15 16  1  6  0  0  0
 15 18  1  0  0  0  0
 16 17  2  0  0  0  0
 18 19  1  0  0  0  0
 20 19  1  6  0  0  0
M  CHG  1  22  -1
M  END
>  <CHROM.1>
32.26856821,-178.15886688,161.46460907,-67.94648484,20.92613687,0.58235327
27.48614476,-2.74148973,-0.61422579,0.77234152

>  <Name>
ligand

>  <RI>
416

>  <Rbt.Current_Directory>
/home/itssahil/PROJECTS/Mol_Feturizer/Test_systems_manuscript/rnas/3slm

>  <Rbt.Executable>
rbdock ($Id: //depot/dev/client3/rdock/2013.1/src/exe/rbdock.cxx#4 $)

>  <Rbt.Library>
libRbt.so (2013.1, Build901 2013/11/27)

>  <Rbt.Parameter_File>
/export/apps/rDock/src/rDock_2013.1_src/data/scripts/dock_solv.prm

>  <Rbt.Receptor>
prm/pocket_docking_4.prm

>  <SCORE>
-18.593

>  <SCORE.INTER>
-15.5283

>  <SCORE.INTER.CONST>
1

>  <SCORE.INTER.POLAR>
0

>  <SCORE.INTER.ROT>
4

>  <SCORE.INTER.SOLV>
24.9548

>  <SCORE.INTER.VDW>
-24.9371

>  <SCORE.INTER.norm>
-0.675145

>  <SCORE.INTRA>
-3.06466

>  <SCORE.INTRA.DIHEDRAL>
-4.84811

>  <SCORE.INTRA.DIHEDRAL.0>
8.62657

>  <SCORE.INTRA.POLAR>
0

>  <SCORE.INTRA.POLAR.0>
0

>  <SCORE.INTRA.REPUL>
0

>  <SCORE.INTRA.REPUL.0>
0

>  <SCORE.INTRA.SOLV>
-0.189095

>  <SCORE.INTRA.SOLV.lig_0>
-66.3641

>  <SCORE.INTRA.VDW>
-0.546055

>  <SCORE.INTRA.VDW.0>
0.452231

>  <SCORE.INTRA.norm>
-0.133246

>  <SCORE.RESTR>
0

>  <SCORE.RESTR.CAVITY>
0

>  <SCORE.RESTR.norm>
0

>  <SCORE.SYSTEM>
0

>  <SCORE.SYSTEM.CONST>
0

>  <SCORE.SYSTEM.DIHEDRAL>
0

>  <SCORE.SYSTEM.SOLV>
0

>  <SCORE.SYSTEM.norm>
0

>  <SCORE.heavy>
23

>  <SCORE.norm>
-0.80839

>  <RMSD>
7.018

$$$$
ligand
 OpenBabel02271912143D
libRbt.so/2013.1/901 2013/11/27
 23 25  0  0  0  0  0  0  0  0999 V2000
   22.5337    2.4155   26.7925 P   0  0  1  0  0  0  0  0  0  0  0  0
   20.4868    3.2222   28.2119 C   0  0  0  0  0  0  0  0  0  0  0  0
   21.7838    2.6423   28.1977 O   0  0  0  0  0  0  0  0  0  0  0  0
   20.0917    3.4069   29.6598 C   0  0  1  0  0  0  0  0  0  0  0  0
   20.4865    2.2999   30.4695 O   0  0  0  0  0  0  0  0  0  0  0  0
   20.7716    4.6505   30.2074 C   0  0  1  0  0  0  0  0  0  0  0  0
   19.7854    5.4281   30.9079 O   0  0  0  0  0  0  0  0  0  0  0  0
   21.8628    4.1348   31.1371 C   0  0  0  0  0  0  0  0  0  0  0  0
   21.4329    2.7077   31.4661 C   0  0  2  0  0  0  0  0  0  0  0  0
   23.4443   -1.8177   32.8829 N   0  0  0  0  0  0  0  0  0  0  0  0
   22.2763   -1.2759   33.2647 C   0  0  2  0  0  0  0  0  0  0  0  0
   21.5012   -1.9834   34.1193 N   0  0  0  0  0  0  0  0  0  0  0  0
   21.8832   -0.0649   32.8013 N   0  0  0  0  0  0  0  0  0  0  0  0
   22.6760    0.6108   31.9442 C   0  0  2  0  0  0  0  0  0  0  0  0
   23.8786    0.0695   31.5442 C   0  0  1  0  0  0  0  0  0  0  0  0
   24.2536   -1.1707   32.0247 C   0  0  0  0  0  0  0  0  0  0  0  0
   25.3374   -1.6819   31.6691 O   0  0  0  0  0  0  0  0  0  0  0  0
   24.4705    0.9410   30.7037 N   0  0  0  0  0  0  0  0  0  0  0  0
   23.6487    1.9981   30.5791 C   0  0  0  0  0  0  0  0  0  0  0  0
   22.5708    1.7906   31.3432 N   0  0  1  0  0  0  0  0  0  0  0  0
   23.3836    1.1771   26.9409 O   0  0  0  0  0  0  0  0  0  0  0  0
   21.4059    2.2820   25.7953 O   0  5  0  0  0  0  0  0  0  0  0  0
   23.3357    3.6793   26.6378 O   0  0  0  0  0  0  0  0  0  0  0  0
  1  3  1  1  0  0  0
  1 21  1  0  0  0  0
  1 22  1  0  0  0  0
  1 23  2  0  0  0  0
  2  3  1  0  0  0  0
  4  2  1  6  0  0  0
  4  5  1  0  0  0  0
  4  6  1  0  0  0  0
  6  7  1  1  0  0  0
  6  8  1  0  0  0  0
  8  9  1  0  0  0  0
  9  5  1  6  0  0  0
  9 20  1  0  0  0  0
 10 11  1  0  0  0  0
 10 16  1  0  0  0  0
 11 12  1  6  0  0  0
 11 13  1  0  0  0  0
 14 13  1  1  0  0  0
 14 15  1  0  0  0  0
 14 20  1  0  0  0  0
 15 16  1  6  0  0  0
 15 18  1  0  0  0  0
 16 17  2  0  0  0  0
 18 19  1  0  0  0  0
 20 19  1  6  0  0  0
M  CHG  1  22  -1
M  END
>  <CHROM.1>
-147.74744499,-40.20307707,-175.65789180,-86.66046850,22.30728550,1.64118840
30.10919549,-1.93831940,-0.85451460,2.00905707

>  <Name>
ligand

>  <RI>
416

>  <Rbt.Current_Directory>
/home/itssahil/PROJECTS/Mol_Feturizer/Test_systems_manuscript/rnas/3slm

>  <Rbt.Executable>
rbdock ($Id: //depot/dev/client3/rdock/2013.1/src/exe/rbdock.cxx#4 $)

>  <Rbt.Library>
libRbt.so (2013.1, Build901 2013/11/27)

>  <Rbt.Parameter_File>
/export/apps/rDock/src/rDock_2013.1_src/data/scripts/dock_solv.prm

>  <Rbt.Receptor>
prm/pocket_docking_4.prm

>  <SCORE>
-12.7181

>  <SCORE.INTER>
-9.07686

>  <SCORE.INTER.CONST>
1

>  <SCORE.INTER.POLAR>
0

>  <SCORE.INTER.ROT>
4

>  <SCORE.INTER.SOLV>
21.1347

>  <SCORE.INTER.VDW>
-19.3628

>  <SCORE.INTER.norm>
-0.394646

>  <SCORE.INTRA>
-3.66059

>  <SCORE.INTRA.DIHEDRAL>
-4.71859

>  <SCORE.INTRA.DIHEDRAL.0>
8.62657

>  <SCORE.INTRA.POLAR>
0

>  <SCORE.INTRA.POLAR.0>
0

>  <SCORE.INTRA.REPUL>
0

>  <SCORE.INTRA.REPUL.0>
0

>  <SCORE.INTRA.SOLV>
0.320256

>  <SCORE.INTRA.SOLV.lig_0>
-66.3641

>  <SCORE.INTRA.VDW>
-1.46142

>  <SCORE.INTRA.VDW.0>
0.452231

>  <SCORE.INTRA.norm>
-0.159156

>  <SCORE.RESTR>
0.0193313

>  <SCORE.RESTR.CAVITY>
0.0193313

>  <SCORE.RESTR.norm>
0.000840491

>  <SCORE.SYSTEM>
0

>  <SCORE.SYSTEM.CONST>
0

>  <SCORE.SYSTEM.DIHEDRAL>
0

>  <SCORE.SYSTEM.SOLV>
0

>  <SCORE.SYSTEM.norm>
0

>  <SCORE.heavy>
23

>  <SCORE.norm>
-0.552961

>  <RMSD>
7.058

$$$$
ligand
 OpenBabel02271912143D
libRbt.so/2013.1/901 2013/11/27
 23 25  0  0  0  0  0  0  0  0999 V2000
   20.4500    4.6173   30.7792 P   0  0  1  0  0  0  0  0  0  0  0  0
   22.6555    3.3462   30.1663 C   0  0  0  0  0  0  0  0  0  0  0  0
   21.6610    4.2823   29.7744 O   0  0  0  0  0  0  0  0  0  0  0  0
   23.6296    3.2162   29.0171 C   0  0  1  0  0  0  0  0  0  0  0  0
   24.7888    2.4660   29.3781 O   0  0  0  0  0  0  0  0  0  0  0  0
   22.9488    2.4961   27.8654 C   0  0  1  0  0  0  0  0  0  0  0  0
   23.2122    3.2326   26.6587 O   0  0  0  0  0  0  0  0  0  0  0  0
   23.5714    1.1058   27.8371 C   0  0  0  0  0  0  0  0  0  0  0  0
   24.8843    1.2664   28.5989 C   0  0  2  0  0  0  0  0  0  0  0  0
   22.8978   -1.1944   32.6647 N   0  0  0  0  0  0  0  0  0  0  0  0
   22.4045   -0.1214   32.0253 C   0  0  2  0  0  0  0  0  0  0  0  0
   21.2370    0.3982   32.4711 N   0  0  0  0  0  0  0  0  0  0  0  0
   23.0502    0.4167   30.9626 N   0  0  0  0  0  0  0  0  0  0  0  0
   24.2081   -0.1304   30.5386 C   0  0  2  0  0  0  0  0  0  0  0  0
   24.7287   -1.2305   31.1852 C   0  0  1  0  0  0  0  0  0  0  0  0
   24.0473   -1.7657   32.2617 C   0  0  0  0  0  0  0  0  0  0  0  0
   24.4993   -2.7672   32.8577 O   0  0  0  0  0  0  0  0  0  0  0  0
   25.8813   -1.5683   30.5738 N   0  0  0  0  0  0  0  0  0  0  0  0
   26.0681   -0.7001   29.5640 C   0  0  0  0  0  0  0  0  0  0  0  0
   25.0539    0.1717   29.5600 N   0  0  1  0  0  0  0  0  0  0  0  0
   21.0679    5.0230   32.0951 O   0  0  0  0  0  0  0  0  0  0  0  0
   19.6912    5.7214   30.0797 O   0  5  0  0  0  0  0  0  0  0  0  0
   19.7031    3.3125   30.8435 O   0  0  0  0  0  0  0  0  0  0  0  0
  1  3  1  6  0  0  0
  1 21  1  0  0  0  0
  1 22  1  0  0  0  0
  1 23  2  0  0  0  0
  2  3  1  0  0  0  0
  4  2  1  1  0  0  0
  4  5  1  0  0  0  0
  4  6  1  0  0  0  0
  6  7  1  6  0  0  0
  6  8  1  0  0  0  0
  8  9  1  0  0  0  0
  9  5  1  1  0  0  0
  9 20  1  0  0  0  0
 10 11  1  0  0  0  0
 10 16  1  0  0  0  0
 11 12  1  6  0  0  0
 11 13  1  0  0  0  0
 14 13  1  1  0  0  0
 14 15  1  0  0  0  0
 14 20  1  0  0  0  0
 15 16  1  6  0  0  0
 15 18  1  0  0  0  0
 16 17  2  0  0  0  0
 18 19  1  0  0  0  0
 20 19  1  6  0  0  0
M  CHG  1  22  -1
M  END
>  <CHROM.1>
53.64722115,170.55825618,178.65455355,58.24661668,22.92795827,1.65899607
30.34849463,2.38991236,0.73529913,-0.78990239

>  <Name>
ligand

>  <RI>
416

>  <Rbt.Current_Directory>
/home/itssahil/PROJECTS/Mol_Feturizer/Test_systems_manuscript/rnas/3slm

>  <Rbt.Executable>
rbdock ($Id: //depot/dev/client3/rdock/2013.1/src/exe/rbdock.cxx#4 $)

>  <Rbt.Library>
libRbt.so (2013.1, Build901 2013/11/27)

>  <Rbt.Parameter_File>
/export/apps/rDock/src/rDock_2013.1_src/data/scripts/dock_solv.prm

>  <Rbt.Receptor>
prm/pocket_docking_4.prm

>  <SCORE>
-14.4618

>  <SCORE.INTER>
-9.3614

>  <SCORE.INTER.CONST>
1

>  <SCORE.INTER.POLAR>
0

>  <SCORE.INTER.ROT>
4

>  <SCORE.INTER.SOLV>
18.5105

>  <SCORE.INTER.VDW>
-18.6777

>  <SCORE.INTER.norm>
-0.407017

>  <SCORE.INTRA>
-5.26761

>  <SCORE.INTRA.DIHEDRAL>
-7.05488

>  <SCORE.INTRA.DIHEDRAL.0>
8.62657

>  <SCORE.INTRA.POLAR>
0

>  <SCORE.INTRA.POLAR.0>
0

>  <SCORE.INTRA.REPUL>
0

>  <SCORE.INTRA.REPUL.0>
0

>  <SCORE.INTRA.SOLV>
1.59724

>  <SCORE.INTRA.SOLV.lig_0>
-66.3641

>  <SCORE.INTRA.VDW>
-2.53879

>  <SCORE.INTRA.VDW.0>
0.452231

>  <SCORE.INTRA.norm>
-0.229027

>  <SCORE.RESTR>
0.167168

>  <SCORE.RESTR.CAVITY>
0.167168

>  <SCORE.RESTR.norm>
0.00726818

>  <SCORE.SYSTEM>
0

>  <SCORE.SYSTEM.CONST>
0

>  <SCORE.SYSTEM.DIHEDRAL>
0

>  <SCORE.SYSTEM.SOLV>
0

>  <SCORE.SYSTEM.norm>
0

>  <SCORE.heavy>
23

>  <SCORE.norm>
-0.628776

>  <RMSD>
7.060

$$$$
ligand
 OpenBabel02271912143D
libRbt.so/2013.1/901 2013/11/27
 23 25  0  0  0  0  0  0  0  0999 V2000
   18.9744    2.3139   25.7570 P   0  0  1  0  0  0  0  0  0  0  0  0
   21.2488    3.0110   26.8508 C   0  0  0  0  0  0  0  0  0  0  0  0
   20.5014    2.0153   26.1661 O   0  0  0  0  0  0  0  0  0  0  0  0
   20.7446    3.0525   28.2757 C   0  0  1  0  0  0  0  0  0  0  0  0
   20.8745    1.7899   28.9283 O   0  0  0  0  0  0  0  0  0  0  0  0
   21.5554    4.0688   29.0620 C   0  0  1  0  0  0  0  0  0  0  0  0
   20.6403    4.8971   29.8001 O   0  0  0  0  0  0  0  0  0  0  0  0
   22.4514    3.2450   29.9783 C   0  0  0  0  0  0  0  0  0  0  0  0
   21.7687    1.8815   30.0451 C   0  0  2  0  0  0  0  0  0  0  0  0
   24.0843   -2.1931   32.1822 N   0  0  0  0  0  0  0  0  0  0  0  0
   23.1658   -1.3816   32.7313 C   0  0  2  0  0  0  0  0  0  0  0  0
   22.7684   -1.6431   33.9983 N   0  0  0  0  0  0  0  0  0  0  0  0
   22.6473   -0.3412   32.0351 N   0  0  0  0  0  0  0  0  0  0  0  0
   23.0593   -0.1130   30.7710 C   0  0  2  0  0  0  0  0  0  0  0  0
   24.0027   -0.9353   30.1939 C   0  0  1  0  0  0  0  0  0  0  0  0
   24.5106   -1.9945   30.9217 C   0  0  0  0  0  0  0  0  0  0  0  0
   25.3622   -2.7559   30.4142 O   0  0  0  0  0  0  0  0  0  0  0  0
   24.2398   -0.4876   28.9450 N   0  0  0  0  0  0  0  0  0  0  0  0
   23.4543    0.5861   28.7488 C   0  0  0  0  0  0  0  0  0  0  0  0
   22.7524    0.8088   29.8652 N   0  0  1  0  0  0  0  0  0  0  0  0
   18.3215    2.9789   26.9443 O   0  0  0  0  0  0  0  0  0  0  0  0
   19.0905    3.1951   24.5346 O   0  5  0  0  0  0  0  0  0  0  0  0
   18.4348    0.9395   25.4668 O   0  0  0  0  0  0  0  0  0  0  0  0
  1  3  1  1  0  0  0
  1 21  1  0  0  0  0
  1 22  1  0  0  0  0
  1 23  2  0  0  0  0
  2  3  1  0  0  0  0
  4  2  1  6  0  0  0
  4  5  1  0  0  0  0
  4  6  1  0  0  0  0
  6  7  1  1  0  0  0
  6  8  1  0  0  0  0
  8  9  1  0  0  0  0
  9  5  1  6  0  0  0
  9 20  1  0  0  0  0
 10 11  1  0  0  0  0
 10 16  1  0  0  0  0
 11 12  1  6  0  0  0
 11 13  1  0  0  0  0
 14 13  1  1  0  0  0
 14 15  1  0  0  0  0
 14 20  1  0  0  0  0
 15 16  1  6  0  0  0
 15 18  1  0  0  0  0
 16 17  2  0  0  0  0
 18 19  1  0  0  0  0
 20 19  1  6  0  0  0
M  CHG  1  22  -1
M  END
>  <CHROM.1>
-43.50199325,58.37084450,74.04338585,-126.95876398,21.68804276,1.13316625
28.95625010,-3.02596744,-0.98401102,0.80690107

>  <Name>
ligand

>  <RI>
416

>  <Rbt.Current_Directory>
/home/itssahil/PROJECTS/Mol_Feturizer/Test_systems_manuscript/rnas/3slm

>  <Rbt.Executable>
rbdock ($Id: //depot/dev/client3/rdock/2013.1/src/exe/rbdock.cxx#4 $)

>  <Rbt.Library>
libRbt.so (2013.1, Build901 2013/11/27)

>  <Rbt.Parameter_File>
/export/apps/rDock/src/rDock_2013.1_src/data/scripts/dock_solv.prm

>  <Rbt.Receptor>
prm/pocket_docking_4.prm

>  <SCORE>
-16.8821

>  <SCORE.INTER>
-12.2838

>  <SCORE.INTER.CONST>
1

>  <SCORE.INTER.POLAR>
0

>  <SCORE.INTER.ROT>
4

>  <SCORE.INTER.SOLV>
20.0529

>  <SCORE.INTER.VDW>
-21.1402

>  <SCORE.INTER.norm>
-0.534078

>  <SCORE.INTRA>
-4.59828

>  <SCORE.INTRA.DIHEDRAL>
-6.01623

>  <SCORE.INTRA.DIHEDRAL.0>
8.62657

>  <SCORE.INTRA.POLAR>
0

>  <SCORE.INTRA.POLAR.0>
0

>  <SCORE.INTRA.REPUL>
0

>  <SCORE.INTRA.REPUL.0>
0

>  <SCORE.INTRA.SOLV>
0.262686

>  <SCORE.INTRA.SOLV.lig_0>
-66.3641

>  <SCORE.INTRA.VDW>
-1.72151

>  <SCORE.INTRA.VDW.0>
0.452231

>  <SCORE.INTRA.norm>
-0.199925

>  <SCORE.RESTR>
0

>  <SCORE.RESTR.CAVITY>
0

>  <SCORE.RESTR.norm>
0

>  <SCORE.SYSTEM>
0

>  <SCORE.SYSTEM.CONST>
0

>  <SCORE.SYSTEM.DIHEDRAL>
0

>  <SCORE.SYSTEM.SOLV>
0

>  <SCORE.SYSTEM.norm>
0

>  <SCORE.heavy>
23

>  <SCORE.norm>
-0.734003

>  <RMSD>
7.072

$$$$
ligand
 OpenBabel02271912143D
libRbt.so/2013.1/901 2013/11/27
 23 25  0  0  0  0  0  0  0  0999 V2000
   19.0564    1.9506   26.5437 P   0  0  1  0  0  0  0  0  0  0  0  0
   21.2824    3.0866   27.3245 C   0  0  0  0  0  0  0  0  0  0  0  0
   20.6606    2.0725   26.5476 O   0  0  0  0  0  0  0  0  0  0  0  0
   20.9314    2.8243   28.7718 C   0  0  1  0  0  0  0  0  0  0  0  0
   21.1675    1.4669   29.1440 O   0  0  0  0  0  0  0  0  0  0  0  0
   21.7905    3.7073   29.6610 C   0  0  1  0  0  0  0  0  0  0  0  0
   20.9347    4.3288   30.6355 O   0  0  0  0  0  0  0  0  0  0  0  0
   22.8029    2.7668   30.3025 C   0  0  0  0  0  0  0  0  0  0  0  0
   22.1721    1.3839   30.1633 C   0  0  2  0  0  0  0  0  0  0  0  0
   24.9937   -2.7746   31.2939 N   0  0  0  0  0  0  0  0  0  0  0  0
   24.1397   -2.1126   32.0916 C   0  0  2  0  0  0  0  0  0  0  0  0
   23.9668   -2.5734   33.3523 N   0  0  0  0  0  0  0  0  0  0  0  0
   23.4665   -1.0250   31.6446 N   0  0  0  0  0  0  0  0  0  0  0  0
   23.6560   -0.5965   30.3796 C   0  0  2  0  0  0  0  0  0  0  0  0
   24.5304   -1.2635   29.5491 C   0  0  1  0  0  0  0  0  0  0  0  0
   25.1992   -2.3749   30.0258 C   0  0  0  0  0  0  0  0  0  0  0  0
   25.9916   -2.9976   29.2864 O   0  0  0  0  0  0  0  0  0  0  0  0
   24.5396   -0.6325   28.3582 N   0  0  0  0  0  0  0  0  0  0  0  0
   23.6831    0.4004   28.4459 C   0  0  0  0  0  0  0  0  0  0  0  0
   23.1627    0.4175   29.6778 N   0  0  1  0  0  0  0  0  0  0  0  0
   18.5104    3.2999   26.9429 O   0  0  0  0  0  0  0  0  0  0  0  0
   18.7260    1.5382   25.1278 O   0  5  0  0  0  0  0  0  0  0  0  0
   18.8040    0.8747   27.5650 O   0  0  0  0  0  0  0  0  0  0  0  0
  1  3  1  1  0  0  0
  1 21  1  0  0  0  0
  1 22  1  0  0  0  0
  1 23  2  0  0  0  0
  2  3  1  0  0  0  0
  4  2  1  6  0  0  0
  4  5  1  0  0  0  0
  4  6  1  0  0  0  0
  6  7  1  1  0  0  0
  6  8  1  0  0  0  0
  8  9  1  0  0  0  0
  9  5  1  6  0  0  0
  9 20  1  0  0  0  0
 10 11  1  0  0  0  0
 10 16  1  0  0  0  0
 11 12  1  6  0  0  0
 11 13  1  0  0  0  0
 14 13  1  1  0  0  0
 14 15  1  0  0  0  0
 14 20  1  0  0  0  0
 15 16  1  6  0  0  0
 15 18  1  0  0  0  0
 16 17  2  0  0  0  0
 18 19  1  0  0  0  0
 20 19  1  6  0  0  0
M  CHG  1  22  -1
M  END
>  <CHROM.1>
22.70486783,49.36643260,62.10934503,-131.60235294,22.07303172,0.73844781
29.03545087,3.12037164,-0.85269177,0.84076008

>  <Name>
ligand

>  <RI>
416

>  <Rbt.Current_Directory>
/home/itssahil/PROJECTS/Mol_Feturizer/Test_systems_manuscript/rnas/3slm

>  <Rbt.Executable>
rbdock ($Id: //depot/dev/client3/rdock/2013.1/src/exe/rbdock.cxx#4 $)

>  <Rbt.Library>
libRbt.so (2013.1, Build901 2013/11/27)

>  <Rbt.Parameter_File>
/export/apps/rDock/src/rDock_2013.1_src/data/scripts/dock_solv.prm

>  <Rbt.Receptor>
prm/pocket_docking_4.prm

>  <SCORE>
-16.8315

>  <SCORE.INTER>
-13.245

>  <SCORE.INTER.CONST>
1

>  <SCORE.INTER.POLAR>
0

>  <SCORE.INTER.ROT>
4

>  <SCORE.INTER.SOLV>
19.6585

>  <SCORE.INTER.VDW>
-21.6495

>  <SCORE.INTER.norm>
-0.575868

>  <SCORE.INTRA>
-3.58653

>  <SCORE.INTRA.DIHEDRAL>
-5.35534

>  <SCORE.INTRA.DIHEDRAL.0>
8.62657

>  <SCORE.INTRA.POLAR>
0

>  <SCORE.INTRA.POLAR.0>
0

>  <SCORE.INTRA.REPUL>
0

>  <SCORE.INTRA.REPUL.0>
0

>  <SCORE.INTRA.SOLV>
1.61318

>  <SCORE.INTRA.SOLV.lig_0>
-66.3641

>  <SCORE.INTRA.VDW>
-1.71544

>  <SCORE.INTRA.VDW.0>
0.452231

>  <SCORE.INTRA.norm>
-0.155936

>  <SCORE.RESTR>
0

>  <SCORE.RESTR.CAVITY>
0

>  <SCORE.RESTR.norm>
0

>  <SCORE.SYSTEM>
0

>  <SCORE.SYSTEM.CONST>
0

>  <SCORE.SYSTEM.DIHEDRAL>
0

>  <SCORE.SYSTEM.SOLV>
0

>  <SCORE.SYSTEM.norm>
0

>  <SCORE.heavy>
23

>  <SCORE.norm>
-0.731804

>  <RMSD>
7.072

$$$$
ligand
 OpenBabel02271912143D
libRbt.so/2013.1/901 2013/11/27
 23 25  0  0  0  0  0  0  0  0999 V2000
   20.1181    4.7981   30.8718 P   0  0  1  0  0  0  0  0  0  0  0  0
   22.0207    4.9519   29.0797 C   0  0  0  0  0  0  0  0  0  0  0  0
   21.2039    4.1233   29.8952 O   0  0  0  0  0  0  0  0  0  0  0  0
   23.1116    4.0795   28.5008 C   0  0  1  0  0  0  0  0  0  0  0  0
   23.7519    3.2866   29.4999 O   0  0  0  0  0  0  0  0  0  0  0  0
   22.5045    3.1362   27.4760 C   0  0  1  0  0  0  0  0  0  0  0  0
   23.3240    3.1710   26.2948 O   0  0  0  0  0  0  0  0  0  0  0  0
   22.5111    1.7647   28.1395 C   0  0  0  0  0  0  0  0  0  0  0  0
   23.5508    1.8893   29.2500 C   0  0  2  0  0  0  0  0  0  0  0  0
   23.8763   -1.9598   32.6573 N   0  0  0  0  0  0  0  0  0  0  0  0
   24.5759   -1.7986   31.5223 C   0  0  2  0  0  0  0  0  0  0  0  0
   25.4963   -2.7399   31.2085 N   0  0  0  0  0  0  0  0  0  0  0  0
   24.3729   -0.7233   30.7233 N   0  0  0  0  0  0  0  0  0  0  0  0
   23.4531    0.2008   31.0693 C   0  0  2  0  0  0  0  0  0  0  0  0
   22.7255    0.0490   32.2297 C   0  0  1  0  0  0  0  0  0  0  0  0
   22.9564   -1.0523   33.0320 C   0  0  0  0  0  0  0  0  0  0  0  0
   22.3116   -1.2051   34.0918 O   0  0  0  0  0  0  0  0  0  0  0  0
   21.8811    1.0942   32.3337 N   0  0  0  0  0  0  0  0  0  0  0  0
   22.0858    1.8821   31.2633 C   0  0  0  0  0  0  0  0  0  0  0  0
   23.0324    1.3248   30.5003 N   0  0  1  0  0  0  0  0  0  0  0  0
   20.8815    5.6368   31.8678 O   0  0  0  0  0  0  0  0  0  0  0  0
   19.2317    5.5905   29.9388 O   0  5  0  0  0  0  0  0  0  0  0  0
   19.4396    3.6042   31.4873 O   0  0  0  0  0  0  0  0  0  0  0  0
  1  3  1  6  0  0  0
  1 21  1  0  0  0  0
  1 22  1  0  0  0  0
  1 23  2  0  0  0  0
  2  3  1  0  0  0  0
  4  2  1  1  0  0  0
  4  5  1  0  0  0  0
  4  6  1  0  0  0  0
  6  7  1  6  0  0  0
  6  8  1  0  0  0  0
  8  9  1  0  0  0  0
  9  5  1  1  0  0  0
  9 20  1  0  0  0  0
 10 11  1  0  0  0  0
 10 16  1  0  0  0  0
 11 12  1  1  0  0  0
 11 13  1  0  0  0  0
 14 13  1  6  0  0  0
 14 15  1  0  0  0  0
 14 20  1  0  0  0  0
 15 16  1  1  0  0  0
 15 18  1  0  0  0  0
 16 17  2  0  0  0  0
 18 19  1  0  0  0  0
 20 19  1  1  0  0  0
M  CHG  1  22  -1
M  END
>  <CHROM.1>
-62.85650316,-49.02464703,168.62065258,-134.14628248,22.35163217,2.05180017
30.55424413,2.22612750,0.82590268,-0.87507716

>  <Name>
ligand

>  <RI>
416

>  <Rbt.Current_Directory>
/home/itssahil/PROJECTS/Mol_Feturizer/Test_systems_manuscript/rnas/3slm

>  <Rbt.Executable>
rbdock ($Id: //depot/dev/client3/rdock/2013.1/src/exe/rbdock.cxx#4 $)

>  <Rbt.Library>
libRbt.so (2013.1, Build901 2013/11/27)

>  <Rbt.Parameter_File>
/export/apps/rDock/src/rDock_2013.1_src/data/scripts/dock_solv.prm

>  <Rbt.Receptor>
prm/pocket_docking_4.prm

>  <SCORE>
-17.9614

>  <SCORE.INTER>
-12.2817

>  <SCORE.INTER.CONST>
1

>  <SCORE.INTER.POLAR>
0

>  <SCORE.INTER.ROT>
4

>  <SCORE.INTER.SOLV>
17.6918

>  <SCORE.INTER.VDW>
-20.3517

>  <SCORE.INTER.norm>
-0.533987

>  <SCORE.INTRA>
-5.67968

>  <SCORE.INTRA.DIHEDRAL>
-6.32849

>  <SCORE.INTRA.DIHEDRAL.0>
8.62657

>  <SCORE.INTRA.POLAR>
0

>  <SCORE.INTRA.POLAR.0>
0

>  <SCORE.INTRA.REPUL>
0

>  <SCORE.INTRA.REPUL.0>
0

>  <SCORE.INTRA.SOLV>
0.27645

>  <SCORE.INTRA.SOLV.lig_0>
-66.3641

>  <SCORE.INTRA.VDW>
-2.65366

>  <SCORE.INTRA.VDW.0>
0.452231

>  <SCORE.INTRA.norm>
-0.246943

>  <SCORE.RESTR>
0

>  <SCORE.RESTR.CAVITY>
0

>  <SCORE.RESTR.norm>
0

>  <SCORE.SYSTEM>
0

>  <SCORE.SYSTEM.CONST>
0

>  <SCORE.SYSTEM.DIHEDRAL>
0

>  <SCORE.SYSTEM.SOLV>
0

>  <SCORE.SYSTEM.norm>
0

>  <SCORE.heavy>
23

>  <SCORE.norm>
-0.78093

>  <RMSD>
7.074

$$$$
ligand
 OpenBabel02271912143D
libRbt.so/2013.1/901 2013/11/27
 23 25  0  0  0  0  0  0  0  0999 V2000
   23.6264   -2.5399   36.8121 P   0  0  1  0  0  0  0  0  0  0  0  0
   22.7369   -1.5622   34.5519 C   0  0  0  0  0  0  0  0  0  0  0  0
   23.5339   -2.5399   35.2059 O   0  0  0  0  0  0  0  0  0  0  0  0
   22.7856   -1.8590   33.0700 C   0  0  1  0  0  0  0  0  0  0  0  0
   22.0148   -0.9285   32.3105 O   0  0  0  0  0  0  0  0  0  0  0  0
   24.2249   -1.7720   32.5912 C   0  0  1  0  0  0  0  0  0  0  0  0
   24.5005   -2.9330   31.7885 O   0  0  0  0  0  0  0  0  0  0  0  0
   24.3016   -0.4832   31.7824 C   0  0  0  0  0  0  0  0  0  0  0  0
   22.8507   -0.1823   31.4162 C   0  0  2  0  0  0  0  0  0  0  0  0
   20.7229    4.1155   29.5363 N   0  0  0  0  0  0  0  0  0  0  0  0
   20.8317    2.9171   28.9398 C   0  0  2  0  0  0  0  0  0  0  0  0
   20.3210    2.7831   27.6937 N   0  0  0  0  0  0  0  0  0  0  0  0
   21.4249    1.8744   29.5698 N   0  0  0  0  0  0  0  0  0  0  0  0
   21.9166    2.0396   30.8150 C   0  0  2  0  0  0  0  0  0  0  0  0
   21.8148    3.2635   31.4401 C   0  0  1  0  0  0  0  0  0  0  0  0
   21.1983    4.3094   30.7799 C   0  0  0  0  0  0  0  0  0  0  0  0
   21.0900    5.4256   31.3320 O   0  0  0  0  0  0  0  0  0  0  0  0
   22.3852    3.1605   32.6568 N   0  0  0  0  0  0  0  0  0  0  0  0
   22.8255    1.8965   32.7867 C   0  0  0  0  0  0  0  0  0  0  0  0
   22.5452    1.2311   31.6609 N   0  0  1  0  0  0  0  0  0  0  0  0
   22.2107   -2.5438   37.3355 O   0  0  0  0  0  0  0  0  0  0  0  0
   24.4129   -3.7903   37.1316 O   0  5  0  0  0  0  0  0  0  0  0  0
   24.3697   -1.2637   37.1006 O   0  0  0  0  0  0  0  0  0  0  0  0
  1  3  1  6  0  0  0
  1 21  1  0  0  0  0
  1 22  1  0  0  0  0
  1 23  2  0  0  0  0
  2  3  1  0  0  0  0
  4  2  1  1  0  0  0
  4  5  1  0  0  0  0
  4  6  1  0  0  0  0
  6  7  1  6  0  0  0
  6  8  1  0  0  0  0
  8  9  1  0  0  0  0
  9  5  1  1  0  0  0
  9 20  1  0  0  0  0
 10 11  1  0  0  0  0
 10 16  1  0  0  0  0
 11 12  1  1  0  0  0
 11 13  1  0  0  0  0
 14 13  1  6  0  0  0
 14 15  1  0  0  0  0
 14 20  1  0  0  0  0
 15 16  1  1  0  0  0
 15 18  1  0  0  0  0
 16 17  2  0  0  0  0
 18 19  1  0  0  0  0
 20 19  1  1  0  0  0
M  CHG  1  22  -1
M  END
>  <CHROM.1>
52.36489964,-179.87708146,-176.97344916,-110.80095734,22.64669454,0.18661562
32.88118377,0.61635501,-1.22402206,1.42141100

>  <Name>
ligand

>  <RI>
0

>  <Rbt.Current_Directory>
/home/itssahil/PROJECTS/Mol_Feturizer/Test_systems_manuscript/rnas/3slm

>  <Rbt.Executable>
rbdock ($Id: //depot/dev/client3/rdock/2013.1/src/exe/rbdock.cxx#4 $)

>  <Rbt.Library>
libRbt.so (2013.1, Build901 2013/11/27)

>  <Rbt.Parameter_File>
/export/apps/rDock/src/rDock_2013.1_src/data/scripts/dock_solv.prm

>  <Rbt.Receptor>
prm/pocket_docking_8.prm

>  <SCORE>
-15.0243

>  <SCORE.INTER>
-9.63128

>  <SCORE.INTER.CONST>
1

>  <SCORE.INTER.POLAR>
0

>  <SCORE.INTER.ROT>
4

>  <SCORE.INTER.SOLV>
12.2559

>  <SCORE.INTER.VDW>
-16.7728

>  <SCORE.INTER.norm>
-0.418751

>  <SCORE.INTRA>
-5.39298

>  <SCORE.INTRA.DIHEDRAL>
-7.32245

>  <SCORE.INTRA.DIHEDRAL.0>
8.62657

>  <SCORE.INTRA.POLAR>
0

>  <SCORE.INTRA.POLAR.0>
0

>  <SCORE.INTRA.REPUL>
0

>  <SCORE.INTRA.REPUL.0>
0

>  <SCORE.INTRA.SOLV>
-0.507873

>  <SCORE.INTRA.SOLV.lig_0>
-66.3641

>  <SCORE.INTRA.VDW>
-1.47782

>  <SCORE.INTRA.VDW.0>
0.452231

>  <SCORE.INTRA.norm>
-0.234477

>  <SCORE.RESTR>
0

>  <SCORE.RESTR.CAVITY>
0

>  <SCORE.RESTR.norm>
0

>  <SCORE.SYSTEM>
0

>  <SCORE.SYSTEM.CONST>
0

>  <SCORE.SYSTEM.DIHEDRAL>
0

>  <SCORE.SYSTEM.SOLV>
0

>  <SCORE.SYSTEM.norm>
0

>  <SCORE.heavy>
23

>  <SCORE.norm>
-0.653229

>  <RMSD>
7.083

$$$$
ligand
 OpenBabel02271912143D
libRbt.so/2013.1/901 2013/11/27
 23 25  0  0  0  0  0  0  0  0999 V2000
   19.6860    1.8446   27.3397 P   0  0  1  0  0  0  0  0  0  0  0  0
   20.4909    3.7412   28.9553 C   0  0  0  0  0  0  0  0  0  0  0  0
   19.4865    3.2637   28.0710 O   0  0  0  0  0  0  0  0  0  0  0  0
   20.1544    3.2295   30.3378 C   0  0  1  0  0  0  0  0  0  0  0  0
   20.4229    1.8344   30.4740 O   0  0  0  0  0  0  0  0  0  0  0  0
   20.9989    3.9685   31.3622 C   0  0  1  0  0  0  0  0  0  0  0  0
   20.1353    4.3960   32.4296 O   0  0  0  0  0  0  0  0  0  0  0  0
   22.0358    2.9563   31.8328 C   0  0  0  0  0  0  0  0  0  0  0  0
   21.4351    1.6029   31.4624 C   0  0  2  0  0  0  0  0  0  0  0  0
   24.4582   -2.5421   31.9230 N   0  0  0  0  0  0  0  0  0  0  0  0
   23.6093   -2.0326   32.8304 C   0  0  2  0  0  0  0  0  0  0  0  0
   23.5018   -2.6671   34.0210 N   0  0  0  0  0  0  0  0  0  0  0  0
   22.8776   -0.9252   32.5581 N   0  0  0  0  0  0  0  0  0  0  0  0
   23.0027   -0.3213   31.3584 C   0  0  2  0  0  0  0  0  0  0  0  0
   23.8710   -0.8304   30.4171 C   0  0  1  0  0  0  0  0  0  0  0  0
   24.6003   -1.9656   30.7157 C   0  0  0  0  0  0  0  0  0  0  0  0
   25.3884   -2.4470   29.8733 O   0  0  0  0  0  0  0  0  0  0  0  0
   23.8109   -0.0442   29.3241 N   0  0  0  0  0  0  0  0  0  0  0  0
   22.9183    0.9286   29.5795 C   0  0  0  0  0  0  0  0  0  0  0  0
   22.4441    0.7558   30.8180 N   0  0  1  0  0  0  0  0  0  0  0  0
   19.4068    0.7753   28.3678 O   0  0  0  0  0  0  0  0  0  0  0  0
   18.6991    1.8826   26.1957 O   0  5  0  0  0  0  0  0  0  0  0  0
   21.1251    1.8968   26.9033 O   0  0  0  0  0  0  0  0  0  0  0  0
  1  3  1  1  0  0  0
  1 21  1  0  0  0  0
  1 22  1  0  0  0  0
  1 23  2  0  0  0  0
  2  3  1  0  0  0  0
  4  2  1  6  0  0  0
  4  5  1  0  0  0  0
  4  6  1  0  0  0  0
  6  7  1  1  0  0  0
  6  8  1  0  0  0  0
  8  9  1  0  0  0  0
  9  5  1  6  0  0  0
  9 20  1  0  0  0  0
 10 11  1  0  0  0  0
 10 16  1  0  0  0  0
 11 12  1  6  0  0  0
 11 13  1  0  0  0  0
 14 13  1  1  0  0  0
 14 15  1  0  0  0  0
 14 20  1  0  0  0  0
 15 16  1  6  0  0  0
 15 18  1  0  0  0  0
 16 17  2  0  0  0  0
 18 19  1  0  0  0  0
 20 19  1  6  0  0  0
M  CHG  1  22  -1
M  END
>  <CHROM.1>
76.18750876,73.69359045,-89.87148220,-134.42773343,21.73344112,0.95430254
30.07880156,-2.94480237,-0.90776982,1.16345774

>  <Name>
ligand

>  <RI>
416

>  <Rbt.Current_Directory>
/home/itssahil/PROJECTS/Mol_Feturizer/Test_systems_manuscript/rnas/3slm

>  <Rbt.Executable>
rbdock ($Id: //depot/dev/client3/rdock/2013.1/src/exe/rbdock.cxx#4 $)

>  <Rbt.Library>
libRbt.so (2013.1, Build901 2013/11/27)

>  <Rbt.Parameter_File>
/export/apps/rDock/src/rDock_2013.1_src/data/scripts/dock_solv.prm

>  <Rbt.Receptor>
prm/pocket_docking_5.prm

>  <SCORE>
-17.722

>  <SCORE.INTER>
-14.4021

>  <SCORE.INTER.CONST>
1

>  <SCORE.INTER.POLAR>
0

>  <SCORE.INTER.ROT>
4

>  <SCORE.INTER.SOLV>
18.0395

>  <SCORE.INTER.VDW>
-21.8813

>  <SCORE.INTER.norm>
-0.62618

>  <SCORE.INTRA>
-3.31983

>  <SCORE.INTRA.DIHEDRAL>
-2.72414

>  <SCORE.INTRA.DIHEDRAL.0>
8.62657

>  <SCORE.INTRA.POLAR>
0

>  <SCORE.INTRA.POLAR.0>
0

>  <SCORE.INTRA.REPUL>
0

>  <SCORE.INTRA.REPUL.0>
0

>  <SCORE.INTRA.SOLV>
1.24545

>  <SCORE.INTRA.SOLV.lig_0>
-66.3641

>  <SCORE.INTRA.VDW>
-2.58049

>  <SCORE.INTRA.VDW.0>
0.452231

>  <SCORE.INTRA.norm>
-0.144341

>  <SCORE.RESTR>
0

>  <SCORE.RESTR.CAVITY>
0

>  <SCORE.RESTR.norm>
0

>  <SCORE.SYSTEM>
0

>  <SCORE.SYSTEM.CONST>
0

>  <SCORE.SYSTEM.DIHEDRAL>
0

>  <SCORE.SYSTEM.SOLV>
0

>  <SCORE.SYSTEM.norm>
0

>  <SCORE.heavy>
23

>  <SCORE.norm>
-0.77052

>  <RMSD>
7.101

$$$$
ligand
 OpenBabel02271912143D
libRbt.so/2013.1/901 2013/11/27
 23 25  0  0  0  0  0  0  0  0999 V2000
   20.1355    4.7158   30.9160 P   0  0  1  0  0  0  0  0  0  0  0  0
   22.1121    4.7217   29.1989 C   0  0  0  0  0  0  0  0  0  0  0  0
   21.2019    3.9588   29.9789 O   0  0  0  0  0  0  0  0  0  0  0  0
   23.0741    3.7511   28.5516 C   0  0  1  0  0  0  0  0  0  0  0  0
   23.6646    2.8657   29.5025 O   0  0  0  0  0  0  0  0  0  0  0  0
   22.3232    2.9086   27.5343 C   0  0  1  0  0  0  0  0  0  0  0  0
   23.0905    2.8857   26.3183 O   0  0  0  0  0  0  0  0  0  0  0  0
   22.2061    1.5269   28.1656 C   0  0  0  0  0  0  0  0  0  0  0  0
   23.2996    1.5063   29.2304 C   0  0  2  0  0  0  0  0  0  0  0  0
   23.8422   -2.0631   32.9042 N   0  0  0  0  0  0  0  0  0  0  0  0
   24.5825   -1.8977   31.7959 C   0  0  2  0  0  0  0  0  0  0  0  0
   25.6134   -2.7505   31.5918 N   0  0  0  0  0  0  0  0  0  0  0  0
   24.3112   -0.9033   30.9165 N   0  0  0  0  0  0  0  0  0  0  0  0
   23.2809   -0.0655   31.1538 C   0  0  2  0  0  0  0  0  0  0  0  0
   22.5104   -0.2230   32.2855 C   0  0  1  0  0  0  0  0  0  0  0  0
   22.8120   -1.2400   33.1713 C   0  0  0  0  0  0  0  0  0  0  0  0
   22.1294   -1.3957   34.2067 O   0  0  0  0  0  0  0  0  0  0  0  0
   21.5555    0.7280   32.2770 N   0  0  0  0  0  0  0  0  0  0  0  0
   21.7344    1.4650   31.1665 C   0  0  0  0  0  0  0  0  0  0  0  0
   22.7755    0.9679   30.4899 N   0  0  1  0  0  0  0  0  0  0  0  0
   20.9236    5.4981   31.9383 O   0  0  0  0  0  0  0  0  0  0  0  0
   19.3447    5.5695   29.9516 O   0  5  0  0  0  0  0  0  0  0  0  0
   19.3482    3.5778   31.5072 O   0  0  0  0  0  0  0  0  0  0  0  0
  1  3  1  6  0  0  0
  1 21  1  0  0  0  0
  1 22  1  0  0  0  0
  1 23  2  0  0  0  0
  2  3  1  0  0  0  0
  4  2  1  1  0  0  0
  4  5  1  0  0  0  0
  4  6  1  0  0  0  0
  6  7  1  6  0  0  0
  6  8  1  0  0  0  0
  8  9  1  0  0  0  0
  9  5  1  1  0  0  0
  9 20  1  0  0  0  0
 10 11  1  0  0  0  0
 10 16  1  0  0  0  0
 11 12  1  1  0  0  0
 11 13  1  0  0  0  0
 14 13  1  6  0  0  0
 14 15  1  0  0  0  0
 14 20  1  0  0  0  0
 15 16  1  1  0  0  0
 15 18  1  0  0  0  0
 16 17  2  0  0  0  0
 18 19  1  0  0  0  0
 20 19  1  1  0  0  0
M  CHG  1  22  -1
M  END
>  <CHROM.1>
-62.48941694,-51.88966053,173.93445950,-119.51801282,22.25162112,1.84466902
30.63036574,2.21944914,0.84154008,-0.90040379

>  <Name>
ligand

>  <RI>
416

>  <Rbt.Current_Directory>
/home/itssahil/PROJECTS/Mol_Feturizer/Test_systems_manuscript/rnas/3slm

>  <Rbt.Executable>
rbdock ($Id: //depot/dev/client3/rdock/2013.1/src/exe/rbdock.cxx#4 $)

>  <Rbt.Library>
libRbt.so (2013.1, Build901 2013/11/27)

>  <Rbt.Parameter_File>
/export/apps/rDock/src/rDock_2013.1_src/data/scripts/dock_solv.prm

>  <Rbt.Receptor>
prm/pocket_docking_5.prm

>  <SCORE>
-18.2367

>  <SCORE.INTER>
-12.2878

>  <SCORE.INTER.CONST>
1

>  <SCORE.INTER.POLAR>
0

>  <SCORE.INTER.ROT>
4

>  <SCORE.INTER.SOLV>
16.7015

>  <SCORE.INTER.VDW>
-20.0257

>  <SCORE.INTER.norm>
-0.534251

>  <SCORE.INTRA>
-5.94897

>  <SCORE.INTRA.DIHEDRAL>
-7.00151

>  <SCORE.INTRA.DIHEDRAL.0>
8.62657

>  <SCORE.INTRA.POLAR>
0

>  <SCORE.INTRA.POLAR.0>
0

>  <SCORE.INTRA.REPUL>
0

>  <SCORE.INTRA.REPUL.0>
0

>  <SCORE.INTRA.SOLV>
0.22894

>  <SCORE.INTRA.SOLV.lig_0>
-66.3641

>  <SCORE.INTRA.VDW>
-2.56268

>  <SCORE.INTRA.VDW.0>
0.452231

>  <SCORE.INTRA.norm>
-0.258651

>  <SCORE.RESTR>
0

>  <SCORE.RESTR.CAVITY>
0

>  <SCORE.RESTR.norm>
0

>  <SCORE.SYSTEM>
0

>  <SCORE.SYSTEM.CONST>
0

>  <SCORE.SYSTEM.DIHEDRAL>
0

>  <SCORE.SYSTEM.SOLV>
0

>  <SCORE.SYSTEM.norm>
0

>  <SCORE.heavy>
23

>  <SCORE.norm>
-0.792901

>  <RMSD>
7.102

$$$$
ligand
 OpenBabel02271912143D
libRbt.so/2013.1/901 2013/11/27
 23 25  0  0  0  0  0  0  0  0999 V2000
   19.0063    2.4761   26.0321 P   0  0  1  0  0  0  0  0  0  0  0  0
   21.5427    2.5602   26.6765 C   0  0  0  0  0  0  0  0  0  0  0  0
   20.3987    1.7621   26.4062 O   0  0  0  0  0  0  0  0  0  0  0  0
   21.3968    3.0948   28.0834 C   0  0  1  0  0  0  0  0  0  0  0  0
   21.4892    2.0609   29.0629 O   0  0  0  0  0  0  0  0  0  0  0  0
   22.5086    4.0942   28.3547 C   0  0  1  0  0  0  0  0  0  0  0  0
   21.9225    5.2653   28.9489 O   0  0  0  0  0  0  0  0  0  0  0  0
   23.4632    3.3840   29.3063 C   0  0  0  0  0  0  0  0  0  0  0  0
   22.6229    2.2653   29.9162 C   0  0  2  0  0  0  0  0  0  0  0  0
   23.7189   -2.0683   32.4757 N   0  0  0  0  0  0  0  0  0  0  0  0
   22.9320   -1.0529   32.8674 C   0  0  2  0  0  0  0  0  0  0  0  0
   22.3279   -1.1512   34.0745 N   0  0  0  0  0  0  0  0  0  0  0  0
   22.7421    0.0296   32.0750 N   0  0  0  0  0  0  0  0  0  0  0  0
   23.3529    0.0926   30.8739 C   0  0  2  0  0  0  0  0  0  0  0  0
   24.1651   -0.9402   30.4581 C   0  0  1  0  0  0  0  0  0  0  0  0
   24.3367   -2.0371   31.2810 C   0  0  0  0  0  0  0  0  0  0  0  0
   25.0642   -2.9872   30.9196 O   0  0  0  0  0  0  0  0  0  0  0  0
   24.6515   -0.6258   29.2412 N   0  0  0  0  0  0  0  0  0  0  0  0
   24.1456    0.5741   28.9057 C   0  0  0  0  0  0  0  0  0  0  0  0
   23.3695    1.0030   29.9069 N   0  0  1  0  0  0  0  0  0  0  0  0
   18.6729    3.4143   27.1664 O   0  0  0  0  0  0  0  0  0  0  0  0
   19.2917    3.1641   24.7170 O   0  5  0  0  0  0  0  0  0  0  0  0
   18.0587    1.3129   25.9167 O   0  0  0  0  0  0  0  0  0  0  0  0
  1  3  1  1  0  0  0
  1 21  1  0  0  0  0
  1 22  1  0  0  0  0
  1 23  2  0  0  0  0
  2  3  1  0  0  0  0
  4  2  1  6  0  0  0
  4  5  1  0  0  0  0
  4  6  1  0  0  0  0
  6  7  1  1  0  0  0
  6  8  1  0  0  0  0
  8  9  1  0  0  0  0
  9  5  1  6  0  0  0
  9 20  1  0  0  0  0
 10 11  1  0  0  0  0
 10 16  1  0  0  0  0
 11 12  1  6  0  0  0
 11 13  1  0  0  0  0
 14 13  1  1  0  0  0
 14 15  1  0  0  0  0
 14 20  1  0  0  0  0
 15 16  1  6  0  0  0
 15 18  1  0  0  0  0
 16 17  2  0  0  0  0
 18 19  1  0  0  0  0
 20 19  1  6  0  0  0
M  CHG  1  22  -1
M  END
>  <CHROM.1>
-56.62552357,67.65240103,78.15577006,-102.22068344,21.95678149,1.25594332
29.01536070,2.43374468,-0.80674239,-0.20385367

>  <Name>
ligand

>  <RI>
416

>  <Rbt.Current_Directory>
/home/itssahil/PROJECTS/Mol_Feturizer/Test_systems_manuscript/rnas/3slm

>  <Rbt.Executable>
rbdock ($Id: //depot/dev/client3/rdock/2013.1/src/exe/rbdock.cxx#4 $)

>  <Rbt.Library>
libRbt.so (2013.1, Build901 2013/11/27)

>  <Rbt.Parameter_File>
/export/apps/rDock/src/rDock_2013.1_src/data/scripts/dock_solv.prm

>  <Rbt.Receptor>
prm/pocket_docking_4.prm

>  <SCORE>
-17.1151

>  <SCORE.INTER>
-12.6678

>  <SCORE.INTER.CONST>
1

>  <SCORE.INTER.POLAR>
0

>  <SCORE.INTER.ROT>
4

>  <SCORE.INTER.SOLV>
22.9509

>  <SCORE.INTER.VDW>
-22.3622

>  <SCORE.INTER.norm>
-0.550776

>  <SCORE.INTRA>
-4.44723

>  <SCORE.INTRA.DIHEDRAL>
-5.72712

>  <SCORE.INTRA.DIHEDRAL.0>
8.62657

>  <SCORE.INTRA.POLAR>
0

>  <SCORE.INTRA.POLAR.0>
0

>  <SCORE.INTRA.REPUL>
0

>  <SCORE.INTRA.REPUL.0>
0

>  <SCORE.INTRA.SOLV>
0.182676

>  <SCORE.INTRA.SOLV.lig_0>
-66.3641

>  <SCORE.INTRA.VDW>
-1.67501

>  <SCORE.INTRA.VDW.0>
0.452231

>  <SCORE.INTRA.norm>
-0.193358

>  <SCORE.RESTR>
0

>  <SCORE.RESTR.CAVITY>
0

>  <SCORE.RESTR.norm>
0

>  <SCORE.SYSTEM>
0

>  <SCORE.SYSTEM.CONST>
0

>  <SCORE.SYSTEM.DIHEDRAL>
0

>  <SCORE.SYSTEM.SOLV>
0

>  <SCORE.SYSTEM.norm>
0

>  <SCORE.heavy>
23

>  <SCORE.norm>
-0.744134

>  <RMSD>
7.113

$$$$
ligand
 OpenBabel02271912143D
libRbt.so/2013.1/901 2013/11/27
 23 25  0  0  0  0  0  0  0  0999 V2000
   19.6667    2.9838   27.0160 P   0  0  1  0  0  0  0  0  0  0  0  0
   22.1456    2.1442   26.9426 C   0  0  0  0  0  0  0  0  0  0  0  0
   21.2218    3.1196   27.4051 O   0  0  0  0  0  0  0  0  0  0  0  0
   23.3988    2.2786   27.7781 C   0  0  1  0  0  0  0  0  0  0  0  0
   23.1041    2.5396   29.1499 O   0  0  0  0  0  0  0  0  0  0  0  0
   24.1854    0.9805   27.7094 C   0  0  1  0  0  0  0  0  0  0  0  0
   25.5614    1.3044   27.4455 O   0  0  0  0  0  0  0  0  0  0  0  0
   24.0006    0.3266   29.0730 C   0  0  0  0  0  0  0  0  0  0  0  0
   23.5747    1.4738   29.9853 C   0  0  2  0  0  0  0  0  0  0  0  0
   21.8620   -1.7224   33.6436 N   0  0  0  0  0  0  0  0  0  0  0  0
   23.0840   -1.6801   33.0882 C   0  0  2  0  0  0  0  0  0  0  0  0
   24.0084   -2.5658   33.5270 N   0  0  0  0  0  0  0  0  0  0  0  0
   23.3835   -0.7733   32.1269 N   0  0  0  0  0  0  0  0  0  0  0  0
   22.4412    0.1009   31.7177 C   0  0  2  0  0  0  0  0  0  0  0  0
   21.1817    0.0691   32.2761 C   0  0  1  0  0  0  0  0  0  0  0  0
   20.9031   -0.8599   33.2605 C   0  0  0  0  0  0  0  0  0  0  0  0
   19.7689   -0.9009   33.7843 O   0  0  0  0  0  0  0  0  0  0  0  0
   20.4403    1.0304   31.6908 N   0  0  0  0  0  0  0  0  0  0  0  0
   21.2258    1.6506   30.7927 C   0  0  0  0  0  0  0  0  0  0  0  0
   22.4313    1.0716   30.8111 N   0  0  1  0  0  0  0  0  0  0  0  0
   19.5800    3.0611   25.5111 O   0  0  0  0  0  0  0  0  0  0  0  0
   19.2615    1.6483   27.5961 O   0  5  0  0  0  0  0  0  0  0  0  0
   19.0466    4.1635   27.7146 O   0  0  0  0  0  0  0  0  0  0  0  0
  1  3  1  1  0  0  0
  1 21  1  0  0  0  0
  1 22  1  0  0  0  0
  1 23  2  0  0  0  0
  2  3  1  0  0  0  0
  4  2  1  6  0  0  0
  4  5  1  0  0  0  0
  4  6  1  0  0  0  0
  6  7  1  1  0  0  0
  6  8  1  0  0  0  0
  8  9  1  0  0  0  0
  9  5  1  6  0  0  0
  9 20  1  0  0  0  0
 10 11  1  0  0  0  0
 10 16  1  0  0  0  0
 11 12  1  1  0  0  0
 11 13  1  0  0  0  0
 14 13  1  6  0  0  0
 14 15  1  0  0  0  0
 14 20  1  0  0  0  0
 15 16  1  1  0  0  0
 15 18  1  0  0  0  0
 16 17  2  0  0  0  0
 18 19  1  0  0  0  0
 20 19  1  1  0  0  0
M  CHG  1  22  -1
M  END
>  <CHROM.1>
-61.62489631,39.26903360,-163.20207509,179.39846672,21.81624415,1.10993105
29.73387138,1.79180749,0.22845306,-1.03675096

>  <Name>
ligand

>  <RI>
416

>  <Rbt.Current_Directory>
/home/itssahil/PROJECTS/Mol_Feturizer/Test_systems_manuscript/rnas/3slm

>  <Rbt.Executable>
rbdock ($Id: //depot/dev/client3/rdock/2013.1/src/exe/rbdock.cxx#4 $)

>  <Rbt.Library>
libRbt.so (2013.1, Build901 2013/11/27)

>  <Rbt.Parameter_File>
/export/apps/rDock/src/rDock_2013.1_src/data/scripts/dock_solv.prm

>  <Rbt.Receptor>
prm/pocket_docking_4.prm

>  <SCORE>
-13.72

>  <SCORE.INTER>
-9.40568

>  <SCORE.INTER.CONST>
1

>  <SCORE.INTER.POLAR>
0

>  <SCORE.INTER.ROT>
4

>  <SCORE.INTER.SOLV>
23.9472

>  <SCORE.INTER.VDW>
-20.5195

>  <SCORE.INTER.norm>
-0.408942

>  <SCORE.INTRA>
-4.32632

>  <SCORE.INTRA.DIHEDRAL>
-4.71813

>  <SCORE.INTRA.DIHEDRAL.0>
8.62657

>  <SCORE.INTRA.POLAR>
0

>  <SCORE.INTRA.POLAR.0>
0

>  <SCORE.INTRA.REPUL>
0

>  <SCORE.INTRA.REPUL.0>
0

>  <SCORE.INTRA.SOLV>
-0.27023

>  <SCORE.INTRA.SOLV.lig_0>
-66.3641

>  <SCORE.INTRA.VDW>
-1.83214

>  <SCORE.INTRA.VDW.0>
0.452231

>  <SCORE.INTRA.norm>
-0.188101

>  <SCORE.RESTR>
0.0120045

>  <SCORE.RESTR.CAVITY>
0.0120045

>  <SCORE.RESTR.norm>
0.000521935

>  <SCORE.SYSTEM>
0

>  <SCORE.SYSTEM.CONST>
0

>  <SCORE.SYSTEM.DIHEDRAL>
0

>  <SCORE.SYSTEM.SOLV>
0

>  <SCORE.SYSTEM.norm>
0

>  <SCORE.heavy>
23

>  <SCORE.norm>
-0.596521

>  <RMSD>
7.116

$$$$
ligand
 OpenBabel02271912143D
libRbt.so/2013.1/901 2013/11/27
 23 25  0  0  0  0  0  0  0  0999 V2000
   20.2276    4.7939   32.2224 P   0  0  1  0  0  0  0  0  0  0  0  0
   20.4854    4.2792   29.6683 C   0  0  0  0  0  0  0  0  0  0  0  0
   20.5041    5.2507   30.7048 O   0  0  0  0  0  0  0  0  0  0  0  0
   21.9213    4.0064   29.2805 C   0  0  1  0  0  0  0  0  0  0  0  0
   22.6404    3.3406   30.3181 O   0  0  0  0  0  0  0  0  0  0  0  0
   21.9447    3.1140   28.0510 C   0  0  1  0  0  0  0  0  0  0  0  0
   22.8745    3.6751   27.1083 O   0  0  0  0  0  0  0  0  0  0  0  0
   22.3922    1.7477   28.5553 C   0  0  0  0  0  0  0  0  0  0  0  0
   23.0749    2.0439   29.8879 C   0  0  2  0  0  0  0  0  0  0  0  0
   24.1522   -2.2398   32.5376 N   0  0  0  0  0  0  0  0  0  0  0  0
   24.8857   -1.6555   31.5762 C   0  0  2  0  0  0  0  0  0  0  0  0
   26.0647   -2.2307   31.2437 N   0  0  0  0  0  0  0  0  0  0  0  0
   24.4627   -0.5218   30.9666 N   0  0  0  0  0  0  0  0  0  0  0  0
   23.2860    0.0304   31.3273 C   0  0  2  0  0  0  0  0  0  0  0  0
   22.5205   -0.5580   32.3107 C   0  0  1  0  0  0  0  0  0  0  0  0
   22.9773   -1.7096   32.9230 C   0  0  0  0  0  0  0  0  0  0  0  0
   22.3011   -2.2551   33.8216 O   0  0  0  0  0  0  0  0  0  0  0  0
   21.4049    0.1810   32.4706 N   0  0  0  0  0  0  0  0  0  0  0  0
   21.4801    1.2109   31.6092 C   0  0  0  0  0  0  0  0  0  0  0  0
   22.6185    1.1024   30.9156 N   0  0  1  0  0  0  0  0  0  0  0  0
   18.9003    4.0753   32.2320 O   0  0  0  0  0  0  0  0  0  0  0  0
   21.4127    3.9194   32.5612 O   0  5  0  0  0  0  0  0  0  0  0  0
   20.2067    6.1035   32.9634 O   0  0  0  0  0  0  0  0  0  0  0  0
  1  3  1  6  0  0  0
  1 21  1  0  0  0  0
  1 22  1  0  0  0  0
  1 23  2  0  0  0  0
  2  3  1  0  0  0  0
  4  2  1  1  0  0  0
  4  5  1  0  0  0  0
  4  6  1  0  0  0  0
  6  7  1  6  0  0  0
  6  8  1  0  0  0  0
  8  9  1  0  0  0  0
  9  5  1  1  0  0  0
  9 20  1  0  0  0  0
 10 11  1  0  0  0  0
 10 16  1  0  0  0  0
 11 12  1  1  0  0  0
 11 13  1  0  0  0  0
 14 13  1  6  0  0  0
 14 15  1  0  0  0  0
 14 20  1  0  0  0  0
 15 16  1  1  0  0  0
 15 18  1  0  0  0  0
 16 17  2  0  0  0  0
 18 19  1  0  0  0  0
 20 19  1  1  0  0  0
M  CHG  1  22  -1
M  END
>  <CHROM.1>
-55.11323053,68.08235997,-104.44610429,-143.43663896,22.12580991,1.92232640
31.15842320,2.40744887,0.90101199,-0.87713615

>  <Name>
ligand

>  <RI>
416

>  <Rbt.Current_Directory>
/home/itssahil/PROJECTS/Mol_Feturizer/Test_systems_manuscript/rnas/3slm

>  <Rbt.Executable>
rbdock ($Id: //depot/dev/client3/rdock/2013.1/src/exe/rbdock.cxx#4 $)

>  <Rbt.Library>
libRbt.so (2013.1, Build901 2013/11/27)

>  <Rbt.Parameter_File>
/export/apps/rDock/src/rDock_2013.1_src/data/scripts/dock_solv.prm

>  <Rbt.Receptor>
prm/pocket_docking_5.prm

>  <SCORE>
-16.4621

>  <SCORE.INTER>
-14.4377

>  <SCORE.INTER.CONST>
1

>  <SCORE.INTER.POLAR>
0

>  <SCORE.INTER.ROT>
4

>  <SCORE.INTER.SOLV>
17.5269

>  <SCORE.INTER.VDW>
-21.7341

>  <SCORE.INTER.norm>
-0.627727

>  <SCORE.INTRA>
-2.02436

>  <SCORE.INTRA.DIHEDRAL>
-1.01624

>  <SCORE.INTRA.DIHEDRAL.0>
8.62657

>  <SCORE.INTRA.POLAR>
0

>  <SCORE.INTRA.POLAR.0>
0

>  <SCORE.INTRA.REPUL>
0

>  <SCORE.INTRA.REPUL.0>
0

>  <SCORE.INTRA.SOLV>
2.63508

>  <SCORE.INTRA.SOLV.lig_0>
-66.3641

>  <SCORE.INTRA.VDW>
-2.83379

>  <SCORE.INTRA.VDW.0>
0.452231

>  <SCORE.INTRA.norm>
-0.0880158

>  <SCORE.RESTR>
0

>  <SCORE.RESTR.CAVITY>
0

>  <SCORE.RESTR.norm>
0

>  <SCORE.SYSTEM>
0

>  <SCORE.SYSTEM.CONST>
0

>  <SCORE.SYSTEM.DIHEDRAL>
0

>  <SCORE.SYSTEM.SOLV>
0

>  <SCORE.SYSTEM.norm>
0

>  <SCORE.heavy>
23

>  <SCORE.norm>
-0.715743

>  <RMSD>
7.145

$$$$
ligand
 OpenBabel02271912143D
libRbt.so/2013.1/901 2013/11/27
 23 25  0  0  0  0  0  0  0  0999 V2000
   19.8717    1.5125   27.5969 P   0  0  1  0  0  0  0  0  0  0  0  0
   22.1830    1.4847   28.8268 C   0  0  0  0  0  0  0  0  0  0  0  0
   21.1120    0.7373   28.2671 O   0  0  0  0  0  0  0  0  0  0  0  0
   21.6744    2.1129   30.1048 C   0  0  1  0  0  0  0  0  0  0  0  0
   21.3197    1.1334   31.0803 O   0  0  0  0  0  0  0  0  0  0  0  0
   22.7654    2.9879   30.6986 C   0  0  1  0  0  0  0  0  0  0  0  0
   22.1804    4.2523   31.0552 O   0  0  0  0  0  0  0  0  0  0  0  0
   23.2727    2.2259   31.9164 C   0  0  0  0  0  0  0  0  0  0  0  0
   22.1453    1.2512   32.2464 C   0  0  2  0  0  0  0  0  0  0  0  0
   25.3834   -2.4174   30.6377 N   0  0  0  0  0  0  0  0  0  0  0  0
   25.1347   -1.2263   30.0691 C   0  0  2  0  0  0  0  0  0  0  0  0
   25.8078   -0.9137   28.9375 N   0  0  0  0  0  0  0  0  0  0  0  0
   24.2459   -0.3627   30.6169 N   0  0  0  0  0  0  0  0  0  0  0  0
   23.5975   -0.7021   31.7501 C   0  0  2  0  0  0  0  0  0  0  0  0
   23.8400   -1.9214   32.3448 C   0  0  1  0  0  0  0  0  0  0  0  0
   24.7569   -2.7816   31.7712 C   0  0  0  0  0  0  0  0  0  0  0  0
   24.9958   -3.8894   32.2985 O   0  0  0  0  0  0  0  0  0  0  0  0
   23.0660   -2.0117   33.4444 N   0  0  0  0  0  0  0  0  0  0  0  0
   22.3631   -0.8688   33.5340 C   0  0  0  0  0  0  0  0  0  0  0  0
   22.6861   -0.0888   32.4967 N   0  0  1  0  0  0  0  0  0  0  0  0
   19.3831    2.5208   28.6082 O   0  0  0  0  0  0  0  0  0  0  0  0
   20.4568    2.1203   26.3429 O   0  5  0  0  0  0  0  0  0  0  0  0
   18.8908    0.4021   27.3339 O   0  0  0  0  0  0  0  0  0  0  0  0
  1  3  1  1  0  0  0
  1 21  1  0  0  0  0
  1 22  1  0  0  0  0
  1 23  2  0  0  0  0
  2  3  1  0  0  0  0
  4  2  1  6  0  0  0
  4  5  1  0  0  0  0
  4  6  1  0  0  0  0
  6  7  1  1  0  0  0
  6  8  1  0  0  0  0
  8  9  1  0  0  0  0
  9  5  1  6  0  0  0
  9 20  1  0  0  0  0
 10 11  1  0  0  0  0
 10 16  1  0  0  0  0
 11 12  1  1  0  0  0
 11 13  1  0  0  0  0
 14 13  1  6  0  0  0
 14 15  1  0  0  0  0
 14 20  1  0  0  0  0
 15 16  1  1  0  0  0
 15 18  1  0  0  0  0
 16 17  2  0  0  0  0
 18 19  1  0  0  0  0
 20 19  1  1  0  0  0
M  CHG  1  22  -1
M  END
>  <CHROM.1>
-51.79211024,63.75248248,72.21422978,70.63465272,22.42528815,0.37268499,30.27959997
-3.00192583,-0.91499642,0.97458768

>  <Name>
ligand

>  <RI>
416

>  <Rbt.Current_Directory>
/home/itssahil/PROJECTS/Mol_Feturizer/Test_systems_manuscript/rnas/3slm

>  <Rbt.Executable>
rbdock ($Id: //depot/dev/client3/rdock/2013.1/src/exe/rbdock.cxx#4 $)

>  <Rbt.Library>
libRbt.so (2013.1, Build901 2013/11/27)

>  <Rbt.Parameter_File>
/export/apps/rDock/src/rDock_2013.1_src/data/scripts/dock_solv.prm

>  <Rbt.Receptor>
prm/pocket_docking_6.prm

>  <SCORE>
-18.5037

>  <SCORE.INTER>
-13.4554

>  <SCORE.INTER.CONST>
1

>  <SCORE.INTER.POLAR>
0

>  <SCORE.INTER.ROT>
4

>  <SCORE.INTER.SOLV>
19.6209

>  <SCORE.INTER.VDW>
-21.7772

>  <SCORE.INTER.norm>
-0.585018

>  <SCORE.INTRA>
-5.04826

>  <SCORE.INTRA.DIHEDRAL>
-6.51044

>  <SCORE.INTRA.DIHEDRAL.0>
8.62657

>  <SCORE.INTRA.POLAR>
0

>  <SCORE.INTRA.POLAR.0>
0

>  <SCORE.INTRA.REPUL>
0

>  <SCORE.INTRA.REPUL.0>
0

>  <SCORE.INTRA.SOLV>
0.745214

>  <SCORE.INTRA.SOLV.lig_0>
-66.3641

>  <SCORE.INTRA.VDW>
-2.16565

>  <SCORE.INTRA.VDW.0>
0.452231

>  <SCORE.INTRA.norm>
-0.21949

>  <SCORE.RESTR>
0

>  <SCORE.RESTR.CAVITY>
0

>  <SCORE.RESTR.norm>
0

>  <SCORE.SYSTEM>
0

>  <SCORE.SYSTEM.CONST>
0

>  <SCORE.SYSTEM.DIHEDRAL>
0

>  <SCORE.SYSTEM.SOLV>
0

>  <SCORE.SYSTEM.norm>
0

>  <SCORE.heavy>
23

>  <SCORE.norm>
-0.804508

>  <RMSD>
7.149

$$$$
ligand
 OpenBabel02271912143D
libRbt.so/2013.1/901 2013/11/27
 23 25  0  0  0  0  0  0  0  0999 V2000
   20.6288    4.4154   31.4593 P   0  0  1  0  0  0  0  0  0  0  0  0
   22.7722    3.1352   30.6707 C   0  0  0  0  0  0  0  0  0  0  0  0
   21.8095    4.1446   30.4006 O   0  0  0  0  0  0  0  0  0  0  0  0
   23.6530    3.0137   29.4476 C   0  0  1  0  0  0  0  0  0  0  0  0
   24.8038    2.2059   29.6927 O   0  0  0  0  0  0  0  0  0  0  0  0
   22.8602    2.3665   28.3246 C   0  0  1  0  0  0  0  0  0  0  0  0
   23.0641    3.1397   27.1294 O   0  0  0  0  0  0  0  0  0  0  0  0
   23.4214    0.9557   28.1986 C   0  0  0  0  0  0  0  0  0  0  0  0
   24.7922    1.0355   28.8649 C   0  0  2  0  0  0  0  0  0  0  0  0
   22.8845   -1.6464   32.8272 N   0  0  0  0  0  0  0  0  0  0  0  0
   22.3699   -0.5504   32.2462 C   0  0  2  0  0  0  0  0  0  0  0  0
   21.2010   -0.0689   32.7294 N   0  0  0  0  0  0  0  0  0  0  0  0
   22.9965    0.0473   31.2040 N   0  0  0  0  0  0  0  0  0  0  0  0
   24.1565   -0.4628   30.7415 C   0  0  2  0  0  0  0  0  0  0  0  0
   24.6986   -1.5859   31.3281 C   0  0  1  0  0  0  0  0  0  0  0  0
   24.0366   -2.1819   32.3845 C   0  0  0  0  0  0  0  0  0  0  0  0
   24.5083   -3.2049   32.9261 O   0  0  0  0  0  0  0  0  0  0  0  0
   25.8484   -1.8780   30.6886 N   0  0  0  0  0  0  0  0  0  0  0  0
   26.0124   -0.9594   29.7203 C   0  0  0  0  0  0  0  0  0  0  0  0
   24.9870   -0.1022   29.7697 N   0  0  1  0  0  0  0  0  0  0  0  0
   21.2467    4.3529   32.8349 O   0  0  0  0  0  0  0  0  0  0  0  0
   20.1001    5.7780   31.0745 O   0  5  0  0  0  0  0  0  0  0  0  0
   19.6697    3.2900   31.1801 O   0  0  0  0  0  0  0  0  0  0  0  0
  1  3  1  6  0  0  0
  1 21  1  0  0  0  0
  1 22  1  0  0  0  0
  1 23  2  0  0  0  0
  2  3  1  0  0  0  0
  4  2  1  1  0  0  0
  4  5  1  0  0  0  0
  4  6  1  0  0  0  0
  6  7  1  6  0  0  0
  6  8  1  0  0  0  0
  8  9  1  0  0  0  0
  9  5  1  1  0  0  0
  9 20  1  0  0  0  0
 10 11  1  0  0  0  0
 10 16  1  0  0  0  0
 11 12  1  6  0  0  0
 11 13  1  0  0  0  0
 14 13  1  1  0  0  0
 14 15  1  0  0  0  0
 14 20  1  0  0  0  0
 15 16  1  6  0  0  0
 15 18  1  0  0  0  0
 16 17  2  0  0  0  0
 18 19  1  0  0  0  0
 20 19  1  6  0  0  0
M  CHG  1  22  -1
M  END
>  <CHROM.1>
41.48011807,169.27576428,174.09078492,63.01587353,22.94926111,1.39023289
30.72787278,2.38381451,0.78637831,-0.72260720

>  <Name>
ligand

>  <RI>
416

>  <Rbt.Current_Directory>
/home/itssahil/PROJECTS/Mol_Feturizer/Test_systems_manuscript/rnas/3slm

>  <Rbt.Executable>
rbdock ($Id: //depot/dev/client3/rdock/2013.1/src/exe/rbdock.cxx#4 $)

>  <Rbt.Library>
libRbt.so (2013.1, Build901 2013/11/27)

>  <Rbt.Parameter_File>
/export/apps/rDock/src/rDock_2013.1_src/data/scripts/dock_solv.prm

>  <Rbt.Receptor>
prm/pocket_docking_5.prm

>  <SCORE>
-17.0099

>  <SCORE.INTER>
-11.8767

>  <SCORE.INTER.CONST>
1

>  <SCORE.INTER.POLAR>
0

>  <SCORE.INTER.ROT>
4

>  <SCORE.INTER.SOLV>
19.2726

>  <SCORE.INTER.VDW>
-20.6086

>  <SCORE.INTER.norm>
-0.516376

>  <SCORE.INTRA>
-5.13323

>  <SCORE.INTRA.DIHEDRAL>
-6.35064

>  <SCORE.INTRA.DIHEDRAL.0>
8.62657

>  <SCORE.INTRA.POLAR>
0

>  <SCORE.INTRA.POLAR.0>
0

>  <SCORE.INTRA.REPUL>
0

>  <SCORE.INTRA.REPUL.0>
0

>  <SCORE.INTRA.SOLV>
0.967083

>  <SCORE.INTRA.SOLV.lig_0>
-66.3641

>  <SCORE.INTRA.VDW>
-2.44145

>  <SCORE.INTRA.VDW.0>
0.452231

>  <SCORE.INTRA.norm>
-0.223184

>  <SCORE.RESTR>
0

>  <SCORE.RESTR.CAVITY>
0

>  <SCORE.RESTR.norm>
0

>  <SCORE.SYSTEM>
0

>  <SCORE.SYSTEM.CONST>
0

>  <SCORE.SYSTEM.DIHEDRAL>
0

>  <SCORE.SYSTEM.SOLV>
0

>  <SCORE.SYSTEM.norm>
0

>  <SCORE.heavy>
23

>  <SCORE.norm>
-0.73956

>  <RMSD>
7.161

$$$$
ligand
 OpenBabel02271912143D
libRbt.so/2013.1/901 2013/11/27
 23 25  0  0  0  0  0  0  0  0999 V2000
   19.8284    1.7587   27.4391 P   0  0  1  0  0  0  0  0  0  0  0  0
   22.0551    1.4483   28.7811 C   0  0  0  0  0  0  0  0  0  0  0  0
   20.9074    0.8420   28.2030 O   0  0  0  0  0  0  0  0  0  0  0  0
   21.6073    2.1459   30.0457 C   0  0  1  0  0  0  0  0  0  0  0  0
   21.2637    1.2205   31.0765 O   0  0  0  0  0  0  0  0  0  0  0  0
   22.7394    3.0183   30.5614 C   0  0  1  0  0  0  0  0  0  0  0  0
   22.1981    4.3120   30.8798 O   0  0  0  0  0  0  0  0  0  0  0  0
   23.2708    2.2987   31.7947 C   0  0  0  0  0  0  0  0  0  0  0  0
   22.1326    1.3691   32.2071 C   0  0  2  0  0  0  0  0  0  0  0  0
   25.3166   -2.3988   30.7249 N   0  0  0  0  0  0  0  0  0  0  0  0
   25.0910   -1.2210   30.1204 C   0  0  2  0  0  0  0  0  0  0  0  0
   25.7752   -0.9531   28.9838 N   0  0  0  0  0  0  0  0  0  0  0  0
   24.2140   -0.3269   30.6375 N   0  0  0  0  0  0  0  0  0  0  0  0
   23.5541   -0.6220   31.7765 C   0  0  2  0  0  0  0  0  0  0  0  0
   23.7729   -1.8272   32.4080 C   0  0  1  0  0  0  0  0  0  0  0  0
   24.6781   -2.7191   31.8651 C   0  0  0  0  0  0  0  0  0  0  0  0
   24.8956   -3.8148   32.4259 O   0  0  0  0  0  0  0  0  0  0  0  0
   22.9918   -1.8722   33.5053 N   0  0  0  0  0  0  0  0  0  0  0  0
   22.3079   -0.7155   33.5575 C   0  0  0  0  0  0  0  0  0  0  0  0
   22.6494    0.0281   32.4996 N   0  0  1  0  0  0  0  0  0  0  0  0
   19.3849    2.8228   28.4134 O   0  0  0  0  0  0  0  0  0  0  0  0
   20.5823    2.2861   26.2401 O   0  5  0  0  0  0  0  0  0  0  0  0
   18.7450    0.7741   27.0912 O   0  0  0  0  0  0  0  0  0  0  0  0
  1  3  1  1  0  0  0
  1 21  1  0  0  0  0
  1 22  1  0  0  0  0
  1 23  2  0  0  0  0
  2  3  1  0  0  0  0
  4  2  1  6  0  0  0
  4  5  1  0  0  0  0
  4  6  1  0  0  0  0
  6  7  1  1  0  0  0
  6  8  1  0  0  0  0
  8  9  1  0  0  0  0
  9  5  1  6  0  0  0
  9 20  1  0  0  0  0
 10 11  1  0  0  0  0
 10 16  1  0  0  0  0
 11 12  1  1  0  0  0
 11 13  1  0  0  0  0
 14 13  1  6  0  0  0
 14 15  1  0  0  0  0
 14 20  1  0  0  0  0
 15 16  1  1  0  0  0
 15 18  1  0  0  0  0
 16 17  2  0  0  0  0
 18 19  1  0  0  0  0
 20 19  1  1  0  0  0
M  CHG  1  22  -1
M  END
>  <CHROM.1>
-55.64702209,70.90150650,75.30019013,73.15500295,22.37477960,0.48352464,30.23655173
-2.94454978,-0.92973679,1.02465469

>  <Name>
ligand

>  <RI>
0

>  <Rbt.Current_Directory>
/home/itssahil/PROJECTS/Mol_Feturizer/Test_systems_manuscript/rnas/3slm

>  <Rbt.Executable>
rbdock ($Id: //depot/dev/client3/rdock/2013.1/src/exe/rbdock.cxx#4 $)

>  <Rbt.Library>
libRbt.so (2013.1, Build901 2013/11/27)

>  <Rbt.Parameter_File>
/export/apps/rDock/src/rDock_2013.1_src/data/scripts/dock_solv.prm

>  <Rbt.Receptor>
prm/pocket_docking_7.prm

>  <SCORE>
-18.5846

>  <SCORE.INTER>
-13.777

>  <SCORE.INTER.CONST>
1

>  <SCORE.INTER.POLAR>
0

>  <SCORE.INTER.ROT>
4

>  <SCORE.INTER.SOLV>
18.6698

>  <SCORE.INTER.VDW>
-21.6746

>  <SCORE.INTER.norm>
-0.599

>  <SCORE.INTRA>
-4.80754

>  <SCORE.INTRA.DIHEDRAL>
-5.83617

>  <SCORE.INTRA.DIHEDRAL.0>
8.62657

>  <SCORE.INTRA.POLAR>
0

>  <SCORE.INTRA.POLAR.0>
0

>  <SCORE.INTRA.REPUL>
0

>  <SCORE.INTRA.REPUL.0>
0

>  <SCORE.INTRA.SOLV>
0.584

>  <SCORE.INTRA.SOLV.lig_0>
-66.3641

>  <SCORE.INTRA.VDW>
-2.18146

>  <SCORE.INTRA.VDW.0>
0.452231

>  <SCORE.INTRA.norm>
-0.209024

>  <SCORE.RESTR>
0

>  <SCORE.RESTR.CAVITY>
0

>  <SCORE.RESTR.norm>
0

>  <SCORE.SYSTEM>
0

>  <SCORE.SYSTEM.CONST>
0

>  <SCORE.SYSTEM.DIHEDRAL>
0

>  <SCORE.SYSTEM.SOLV>
0

>  <SCORE.SYSTEM.norm>
0

>  <SCORE.heavy>
23

>  <SCORE.norm>
-0.808024

>  <RMSD>
7.161

$$$$
ligand
 OpenBabel02271912143D
libRbt.so/2013.1/901 2013/11/27
 23 25  0  0  0  0  0  0  0  0999 V2000
   23.2535    1.1377   31.9199 P   0  0  1  0  0  0  0  0  0  0  0  0
   21.3811    2.8278   31.2176 C   0  0  0  0  0  0  0  0  0  0  0  0
   22.3398    1.8612   30.8109 O   0  0  0  0  0  0  0  0  0  0  0  0
   20.7294    3.3706   29.9658 C   0  0  1  0  0  0  0  0  0  0  0  0
   19.6386    4.2416   30.2628 O   0  0  0  0  0  0  0  0  0  0  0  0
   21.7554    4.1626   29.1729 C   0  0  1  0  0  0  0  0  0  0  0  0
   21.6760    3.7479   27.7982 O   0  0  0  0  0  0  0  0  0  0  0  0
   21.3632    5.6235   29.3557 C   0  0  0  0  0  0  0  0  0  0  0  0
   19.9003    5.5687   29.7878 C   0  0  2  0  0  0  0  0  0  0  0  0
   17.6202    9.8759   31.4553 N   0  0  0  0  0  0  0  0  0  0  0  0
   17.6061    9.3593   30.2157 C   0  0  2  0  0  0  0  0  0  0  0  0
   16.9078   10.0207   29.2636 N   0  0  0  0  0  0  0  0  0  0  0  0
   18.2618    8.2083   29.9311 N   0  0  0  0  0  0  0  0  0  0  0  0
   18.9421    7.5696   30.9053 C   0  0  2  0  0  0  0  0  0  0  0  0
   18.9680    8.0878   32.1820 C   0  0  1  0  0  0  0  0  0  0  0  0
   18.2848    9.2589   32.4491 C   0  0  0  0  0  0  0  0  0  0  0  0
   18.2905    9.7418   33.6020 O   0  0  0  0  0  0  0  0  0  0  0  0
   19.7148    7.2701   32.9501 N   0  0  0  0  0  0  0  0  0  0  0  0
   20.1375    6.2614   32.1677 C   0  0  0  0  0  0  0  0  0  0  0  0
   19.6717    6.4600   30.9298 N   0  0  1  0  0  0  0  0  0  0  0  0
   22.3162    0.5128   32.9245 O   0  0  0  0  0  0  0  0  0  0  0  0
   24.0704    0.1438   31.1268 O   0  5  0  0  0  0  0  0  0  0  0  0
   24.0597    2.2784   32.4796 O   0  0  0  0  0  0  0  0  0  0  0  0
  1  3  1  6  0  0  0
  1 21  1  0  0  0  0
  1 22  1  0  0  0  0
  1 23  2  0  0  0  0
  2  3  1  0  0  0  0
  4  2  1  1  0  0  0
  4  5  1  0  0  0  0
  4  6  1  0  0  0  0
  6  7  1  6  0  0  0
  6  8  1  0  0  0  0
  8  9  1  0  0  0  0
  9  5  1  1  0  0  0
  9 20  1  0  0  0  0
 10 11  1  0  0  0  0
 10 16  1  0  0  0  0
 11 12  1  1  0  0  0
 11 13  1  0  0  0  0
 14 13  1  6  0  0  0
 14 15  1  0  0  0  0
 14 20  1  0  0  0  0
 15 16  1  1  0  0  0
 15 18  1  0  0  0  0
 16 17  2  0  0  0  0
 18 19  1  0  0  0  0
 20 19  1  1  0  0  0
M  CHG  1  22  -1
M  END
>  <CHROM.1>
55.50224270,173.28356039,177.49167556,-131.50014788,20.54731833,5.16697554
31.04705933,-0.14178242,-0.99618226,1.38516370

>  <Name>
ligand

>  <RI>
0

>  <Rbt.Current_Directory>
/home/itssahil/PROJECTS/Mol_Feturizer/Test_systems_manuscript/rnas/3slm

>  <Rbt.Executable>
rbdock ($Id: //depot/dev/client3/rdock/2013.1/src/exe/rbdock.cxx#4 $)

>  <Rbt.Library>
libRbt.so (2013.1, Build901 2013/11/27)

>  <Rbt.Parameter_File>
/export/apps/rDock/src/rDock_2013.1_src/data/scripts/dock_solv.prm

>  <Rbt.Receptor>
prm/pocket_docking_8.prm

>  <SCORE>
-18.1288

>  <SCORE.INTER>
-12.5366

>  <SCORE.INTER.CONST>
1

>  <SCORE.INTER.POLAR>
0

>  <SCORE.INTER.ROT>
4

>  <SCORE.INTER.SOLV>
15.1981

>  <SCORE.INTER.VDW>
-19.6904

>  <SCORE.INTER.norm>
-0.545069

>  <SCORE.INTRA>
-5.59425

>  <SCORE.INTRA.DIHEDRAL>
-7.1726

>  <SCORE.INTRA.DIHEDRAL.0>
8.62657

>  <SCORE.INTRA.POLAR>
0

>  <SCORE.INTRA.POLAR.0>
0

>  <SCORE.INTRA.REPUL>
0

>  <SCORE.INTRA.REPUL.0>
0

>  <SCORE.INTRA.SOLV>
-0.430361

>  <SCORE.INTRA.SOLV.lig_0>
-66.3641

>  <SCORE.INTRA.VDW>
-1.79277

>  <SCORE.INTRA.VDW.0>
0.452231

>  <SCORE.INTRA.norm>
-0.243228

>  <SCORE.RESTR>
0.00197925

>  <SCORE.RESTR.CAVITY>
0.00197925

>  <SCORE.RESTR.norm>
8.60543e-05

>  <SCORE.SYSTEM>
0

>  <SCORE.SYSTEM.CONST>
0

>  <SCORE.SYSTEM.DIHEDRAL>
0

>  <SCORE.SYSTEM.SOLV>
0

>  <SCORE.SYSTEM.norm>
0

>  <SCORE.heavy>
23

>  <SCORE.norm>
-0.788211

>  <RMSD>
7.164

$$$$
ligand
 OpenBabel02271912143D
libRbt.so/2013.1/901 2013/11/27
 23 25  0  0  0  0  0  0  0  0999 V2000
   19.0120    1.8538   24.9693 P   0  0  1  0  0  0  0  0  0  0  0  0
   20.5531    2.4878   26.9888 C   0  0  0  0  0  0  0  0  0  0  0  0
   20.4369    2.2702   25.5896 O   0  0  0  0  0  0  0  0  0  0  0  0
   21.9545    2.9912   27.2517 C   0  0  1  0  0  0  0  0  0  0  0  0
   22.2185    3.1409   28.6462 O   0  0  0  0  0  0  0  0  0  0  0  0
   22.9554    1.9943   26.6924 C   0  0  1  0  0  0  0  0  0  0  0  0
   23.9394    2.7231   25.9382 O   0  0  0  0  0  0  0  0  0  0  0  0
   23.5593    1.3059   27.9101 C   0  0  0  0  0  0  0  0  0  0  0  0
   23.2721    2.2630   29.0639 C   0  0  2  0  0  0  0  0  0  0  0  0
   24.0205   -1.6540   32.3241 N   0  0  0  0  0  0  0  0  0  0  0  0
   24.7887   -1.2829   31.2869 C   0  0  2  0  0  0  0  0  0  0  0  0
   25.9118   -1.9982   31.0449 N   0  0  0  0  0  0  0  0  0  0  0  0
   24.4543   -0.2211   30.5146 N   0  0  0  0  0  0  0  0  0  0  0  0
   23.3319    0.4755   30.7879 C   0  0  2  0  0  0  0  0  0  0  0  0
   22.5318    0.1064   31.8475 C   0  0  1  0  0  0  0  0  0  0  0  0
   22.8985   -0.9755   32.6252 C   0  0  0  0  0  0  0  0  0  0  0  0
   22.1899   -1.3225   33.5947 O   0  0  0  0  0  0  0  0  0  0  0  0
   21.4835    0.9521   31.8945 N   0  0  0  0  0  0  0  0  0  0  0  0
   21.6340    1.8323   30.8890 C   0  0  0  0  0  0  0  0  0  0  0  0
   22.7512    1.5266   30.2202 N   0  0  1  0  0  0  0  0  0  0  0  0
   19.2836    1.2196   23.6268 O   0  0  0  0  0  0  0  0  0  0  0  0
   18.4285    0.9121   25.9973 O   0  5  0  0  0  0  0  0  0  0  0  0
   18.2937    3.1728   24.8759 O   0  0  0  0  0  0  0  0  0  0  0  0
  1  3  1  1  0  0  0
  1 21  1  0  0  0  0
  1 22  1  0  0  0  0
  1 23  2  0  0  0  0
  2  3  1  0  0  0  0
  4  2  1  1  0  0  0
  4  5  1  0  0  0  0
  4  6  1  0  0  0  0
  6  7  1  1  0  0  0
  6  8  1  0  0  0  0
  8  9  1  0  0  0  0
  9  5  1  6  0  0  0
  9 20  1  0  0  0  0
 10 11  1  0  0  0  0
 10 16  1  0  0  0  0
 11 12  1  1  0  0  0
 11 13  1  0  0  0  0
 14 13  1  6  0  0  0
 14 15  1  0  0  0  0
 14 20  1  0  0  0  0
 15 16  1  1  0  0  0
 15 18  1  0  0  0  0
 16 17  2  0  0  0  0
 18 19  1  0  0  0  0
 20 19  1  1  0  0  0
M  CHG  1  22  -1
M  END
>  <CHROM.1>
-159.86197288,-175.22644554,-174.58122603,169.51356947,21.92097927,1.12060277
28.55143332,2.07640225,-0.06512641,-1.13690430

>  <Name>
ligand

>  <RI>
416

>  <Rbt.Current_Directory>
/home/itssahil/PROJECTS/Mol_Feturizer/Test_systems_manuscript/rnas/3slm

>  <Rbt.Executable>
rbdock ($Id: //depot/dev/client3/rdock/2013.1/src/exe/rbdock.cxx#4 $)

>  <Rbt.Library>
libRbt.so (2013.1, Build901 2013/11/27)

>  <Rbt.Parameter_File>
/export/apps/rDock/src/rDock_2013.1_src/data/scripts/dock_solv.prm

>  <Rbt.Receptor>
prm/pocket_docking_4.prm

>  <SCORE>
-17.5624

>  <SCORE.INTER>
-13.5896

>  <SCORE.INTER.CONST>
1

>  <SCORE.INTER.POLAR>
0

>  <SCORE.INTER.ROT>
4

>  <SCORE.INTER.SOLV>
22.5825

>  <SCORE.INTER.VDW>
-22.8539

>  <SCORE.INTER.norm>
-0.590852

>  <SCORE.INTRA>
-3.97276

>  <SCORE.INTRA.DIHEDRAL>
-6.59492

>  <SCORE.INTRA.DIHEDRAL.0>
8.62657

>  <SCORE.INTRA.POLAR>
0

>  <SCORE.INTRA.POLAR.0>
0

>  <SCORE.INTRA.REPUL>
0

>  <SCORE.INTRA.REPUL.0>
0

>  <SCORE.INTRA.SOLV>
0.110112

>  <SCORE.INTRA.SOLV.lig_0>
-66.3641

>  <SCORE.INTRA.VDW>
-0.73036

>  <SCORE.INTRA.VDW.0>
0.452231

>  <SCORE.INTRA.norm>
-0.172729

>  <SCORE.RESTR>
0

>  <SCORE.RESTR.CAVITY>
0

>  <SCORE.RESTR.norm>
0

>  <SCORE.SYSTEM>
0

>  <SCORE.SYSTEM.CONST>
0

>  <SCORE.SYSTEM.DIHEDRAL>
0

>  <SCORE.SYSTEM.SOLV>
0

>  <SCORE.SYSTEM.norm>
0

>  <SCORE.heavy>
23

>  <SCORE.norm>
-0.763581

>  <RMSD>
7.201

$$$$
ligand
 OpenBabel02271912143D
libRbt.so/2013.1/901 2013/11/27
 23 25  0  0  0  0  0  0  0  0999 V2000
   20.1726    5.5135   30.0279 P   0  0  1  0  0  0  0  0  0  0  0  0
   21.4687    4.1348   28.2184 C   0  0  0  0  0  0  0  0  0  0  0  0
   21.5307    5.0630   29.2923 O   0  0  0  0  0  0  0  0  0  0  0  0
   22.8825    3.6804   27.9335 C   0  0  1  0  0  0  0  0  0  0  0  0
   23.5410    3.2064   29.1076 O   0  0  0  0  0  0  0  0  0  0  0  0
   22.8472    2.5422   26.9276 C   0  0  1  0  0  0  0  0  0  0  0  0
   23.8242    2.8152   25.9083 O   0  0  0  0  0  0  0  0  0  0  0  0
   23.1855    1.2898   27.7266 C   0  0  0  0  0  0  0  0  0  0  0  0
   23.8787    1.8190   28.9793 C   0  0  2  0  0  0  0  0  0  0  0  0
   24.4233   -2.0629   32.3209 N   0  0  0  0  0  0  0  0  0  0  0  0
   25.1777   -1.7858   31.2449 C   0  0  2  0  0  0  0  0  0  0  0  0
   26.2256   -2.6007   30.9813 N   0  0  0  0  0  0  0  0  0  0  0  0
   24.9037   -0.7193   30.4554 N   0  0  0  0  0  0  0  0  0  0  0  0
   23.8562    0.0778   30.7508 C   0  0  2  0  0  0  0  0  0  0  0  0
   23.0710   -0.1941   31.8502 C   0  0  1  0  0  0  0  0  0  0  0  0
   23.3757   -1.2832   32.6445 C   0  0  0  0  0  0  0  0  0  0  0  0
   22.6799   -1.5432   33.6498 O   0  0  0  0  0  0  0  0  0  0  0  0
   22.1009    0.7393   31.9124 N   0  0  0  0  0  0  0  0  0  0  0  0
   22.2848    1.5773   30.8770 C   0  0  0  0  0  0  0  0  0  0  0  0
   23.3442    1.1598   30.1754 N   0  0  1  0  0  0  0  0  0  0  0  0
   20.5505    6.5561   31.0519 O   0  0  0  0  0  0  0  0  0  0  0  0
   19.3036    6.0294   28.9041 O   0  5  0  0  0  0  0  0  0  0  0  0
   19.6822    4.2265   30.6342 O   0  0  0  0  0  0  0  0  0  0  0  0
  1  3  1  6  0  0  0
  1 21  1  0  0  0  0
  1 22  1  0  0  0  0
  1 23  2  0  0  0  0
  2  3  1  0  0  0  0
  4  2  1  1  0  0  0
  4  5  1  0  0  0  0
  4  6  1  0  0  0  0
  6  7  1  6  0  0  0
  6  8  1  0  0  0  0
  8  9  1  0  0  0  0
  9  5  1  1  0  0  0
  9 20  1  0  0  0  0
 10 11  1  0  0  0  0
 10 16  1  0  0  0  0
 11 12  1  1  0  0  0
 11 13  1  0  0  0  0
 14 13  1  6  0  0  0
 14 15  1  0  0  0  0
 14 20  1  0  0  0  0
 15 16  1  1  0  0  0
 15 18  1  0  0  0  0
 16 17  2  0  0  0  0
 18 19  1  0  0  0  0
 20 19  1  1  0  0  0
M  CHG  1  22  -1
M  END
>  <CHROM.1>
-176.53547868,52.60890156,-167.99498821,-150.27979861,22.58988084,2.07275245
30.03214630,2.32957931,0.83943450,-0.95657949

>  <Name>
ligand

>  <RI>
416

>  <Rbt.Current_Directory>
/home/itssahil/PROJECTS/Mol_Feturizer/Test_systems_manuscript/rnas/3slm

>  <Rbt.Executable>
rbdock ($Id: //depot/dev/client3/rdock/2013.1/src/exe/rbdock.cxx#4 $)

>  <Rbt.Library>
libRbt.so (2013.1, Build901 2013/11/27)

>  <Rbt.Parameter_File>
/export/apps/rDock/src/rDock_2013.1_src/data/scripts/dock_solv.prm

>  <Rbt.Receptor>
prm/pocket_docking_4.prm

>  <SCORE>
-17.9038

>  <SCORE.INTER>
-12.8413

>  <SCORE.INTER.CONST>
1

>  <SCORE.INTER.POLAR>
0

>  <SCORE.INTER.ROT>
4

>  <SCORE.INTER.SOLV>
15.447

>  <SCORE.INTER.VDW>
-19.9765

>  <SCORE.INTER.norm>
-0.558317

>  <SCORE.INTRA>
-5.06321

>  <SCORE.INTRA.DIHEDRAL>
-6.45871

>  <SCORE.INTRA.DIHEDRAL.0>
8.62657

>  <SCORE.INTRA.POLAR>
0

>  <SCORE.INTRA.POLAR.0>
0

>  <SCORE.INTRA.REPUL>
0

>  <SCORE.INTRA.REPUL.0>
0

>  <SCORE.INTRA.SOLV>
0.263748

>  <SCORE.INTRA.SOLV.lig_0>
-66.3641

>  <SCORE.INTRA.VDW>
-1.96573

>  <SCORE.INTRA.VDW.0>
0.452231

>  <SCORE.INTRA.norm>
-0.22014

>  <SCORE.RESTR>
0.000729241

>  <SCORE.RESTR.CAVITY>
0.000729241

>  <SCORE.RESTR.norm>
3.17061e-05

>  <SCORE.SYSTEM>
0

>  <SCORE.SYSTEM.CONST>
0

>  <SCORE.SYSTEM.DIHEDRAL>
0

>  <SCORE.SYSTEM.SOLV>
0

>  <SCORE.SYSTEM.norm>
0

>  <SCORE.heavy>
23

>  <SCORE.norm>
-0.778425

>  <RMSD>
7.206

$$$$
ligand
 OpenBabel02271912143D
libRbt.so/2013.1/901 2013/11/27
 23 25  0  0  0  0  0  0  0  0999 V2000
   19.9081    6.7322   32.0617 P   0  0  1  0  0  0  0  0  0  0  0  0
   21.3112    4.7207   31.1449 C   0  0  0  0  0  0  0  0  0  0  0  0
   20.4387    5.8050   30.8588 O   0  0  0  0  0  0  0  0  0  0  0  0
   21.6654    4.0678   29.8278 C   0  0  1  0  0  0  0  0  0  0  0  0
   22.6222    3.0210   29.9876 O   0  0  0  0  0  0  0  0  0  0  0  0
   20.4118    3.4640   29.2176 C   0  0  1  0  0  0  0  0  0  0  0  0
   20.3551    3.8533   27.8344 O   0  0  0  0  0  0  0  0  0  0  0  0
   20.5698    1.9579   29.3843 C   0  0  0  0  0  0  0  0  0  0  0  0
   22.0682    1.7582   29.5957 C   0  0  2  0  0  0  0  0  0  0  0  0
   24.8278   -2.2219   31.3495 N   0  0  0  0  0  0  0  0  0  0  0  0
   24.8998   -1.6324   30.1449 C   0  0  2  0  0  0  0  0  0  0  0  0
   25.8055   -2.1110   29.2605 N   0  0  0  0  0  0  0  0  0  0  0  0
   24.0980   -0.5865   29.8300 N   0  0  0  0  0  0  0  0  0  0  0  0
   23.2112   -0.1287   30.7375 C   0  0  2  0  0  0  0  0  0  0  0  0
   23.1236   -0.7240   31.9774 C   0  0  1  0  0  0  0  0  0  0  0  0
   23.9577   -1.7841   32.2775 C   0  0  0  0  0  0  0  0  0  0  0  0
   23.8984   -2.3336   33.3987 O   0  0  0  0  0  0  0  0  0  0  0  0
   22.1656   -0.0876   32.6801 N   0  0  0  0  0  0  0  0  0  0  0  0
   21.6741    0.8871   31.8949 C   0  0  0  0  0  0  0  0  0  0  0  0
   22.3080    0.8449   30.7179 N   0  0  1  0  0  0  0  0  0  0  0  0
   21.0991    7.4946   32.5894 O   0  0  0  0  0  0  0  0  0  0  0  0
   18.8504    7.5971   31.4156 O   0  5  0  0  0  0  0  0  0  0  0  0
   19.3588    5.7265   33.0370 O   0  0  0  0  0  0  0  0  0  0  0  0
  1  3  1  6  0  0  0
  1 21  1  0  0  0  0
  1 22  1  0  0  0  0
  1 23  2  0  0  0  0
  2  3  1  0  0  0  0
  4  2  1  1  0  0  0
  4  5  1  0  0  0  0
  4  6  1  0  0  0  0
  6  7  1  6  0  0  0
  6  8  1  0  0  0  0
  8  9  1  0  0  0  0
  9  5  1  1  0  0  0
  9 20  1  0  0  0  0
 10 11  1  0  0  0  0
 10 16  1  0  0  0  0
 11 12  1  1  0  0  0
 11 13  1  0  0  0  0
 14 13  1  6  0  0  0
 14 15  1  0  0  0  0
 14 20  1  0  0  0  0
 15 16  1  1  0  0  0
 15 18  1  0  0  0  0
 16 17  2  0  0  0  0
 18 19  1  0  0  0  0
 20 19  1  1  0  0  0
M  CHG  1  22  -1
M  END
>  <CHROM.1>
67.90309395,175.63831955,-178.41266075,-106.22973415,21.92564848,2.41891333
30.99289028,-3.14067625,1.08522423,-1.52849236

>  <Name>
ligand

>  <RI>
0

>  <Rbt.Current_Directory>
/home/itssahil/PROJECTS/Mol_Feturizer/Test_systems_manuscript/rnas/3slm

>  <Rbt.Executable>
rbdock ($Id: //depot/dev/client3/rdock/2013.1/src/exe/rbdock.cxx#4 $)

>  <Rbt.Library>
libRbt.so (2013.1, Build901 2013/11/27)

>  <Rbt.Parameter_File>
/export/apps/rDock/src/rDock_2013.1_src/data/scripts/dock_solv.prm

>  <Rbt.Receptor>
prm/pocket_docking_7.prm

>  <SCORE>
-17.5183

>  <SCORE.INTER>
-12.3032

>  <SCORE.INTER.CONST>
1

>  <SCORE.INTER.POLAR>
0

>  <SCORE.INTER.ROT>
4

>  <SCORE.INTER.SOLV>
17.6654

>  <SCORE.INTER.VDW>
-20.3573

>  <SCORE.INTER.norm>
-0.534922

>  <SCORE.INTRA>
-5.21504

>  <SCORE.INTRA.DIHEDRAL>
-7.26641

>  <SCORE.INTRA.DIHEDRAL.0>
8.62657

>  <SCORE.INTRA.POLAR>
0

>  <SCORE.INTRA.POLAR.0>
0

>  <SCORE.INTRA.REPUL>
0

>  <SCORE.INTRA.REPUL.0>
0

>  <SCORE.INTRA.SOLV>
-0.403756

>  <SCORE.INTRA.SOLV.lig_0>
-66.3641

>  <SCORE.INTRA.VDW>
-1.37995

>  <SCORE.INTRA.VDW.0>
0.452231

>  <SCORE.INTRA.norm>
-0.226741

>  <SCORE.RESTR>
0

>  <SCORE.RESTR.CAVITY>
0

>  <SCORE.RESTR.norm>
0

>  <SCORE.SYSTEM>
0

>  <SCORE.SYSTEM.CONST>
0

>  <SCORE.SYSTEM.DIHEDRAL>
0

>  <SCORE.SYSTEM.SOLV>
0

>  <SCORE.SYSTEM.norm>
0

>  <SCORE.heavy>
23

>  <SCORE.norm>
-0.761663

>  <RMSD>
7.241

$$$$
ligand
 OpenBabel02271912143D
libRbt.so/2013.1/901 2013/11/27
 23 25  0  0  0  0  0  0  0  0999 V2000
   21.2626    2.5352   27.2408 P   0  0  1  0  0  0  0  0  0  0  0  0
   20.1198    2.8136   29.5800 C   0  0  0  0  0  0  0  0  0  0  0  0
   21.2667    2.4100   28.8447 O   0  0  0  0  0  0  0  0  0  0  0  0
   20.4291    2.6080   31.0458 C   0  0  1  0  0  0  0  0  0  0  0  0
   20.9383    1.3009   31.3089 O   0  0  0  0  0  0  0  0  0  0  0  0
   21.4820    3.6140   31.4791 C   0  0  1  0  0  0  0  0  0  0  0  0
   21.0468    4.2150   32.7110 O   0  0  0  0  0  0  0  0  0  0  0  0
   22.7613    2.8055   31.6550 C   0  0  0  0  0  0  0  0  0  0  0  0
   22.2775    1.3668   31.8164 C   0  0  2  0  0  0  0  0  0  0  0  0
   24.8283   -3.1017   31.5778 N   0  0  0  0  0  0  0  0  0  0  0  0
   24.1895   -2.5693   32.6324 C   0  0  2  0  0  0  0  0  0  0  0  0
   24.1867   -3.2712   33.7895 N   0  0  0  0  0  0  0  0  0  0  0  0
   23.5604   -1.3731   32.5371 N   0  0  0  0  0  0  0  0  0  0  0  0
   23.5756   -0.7027   31.3665 C   0  0  2  0  0  0  0  0  0  0  0  0
   24.2283   -1.2345   30.2755 C   0  0  1  0  0  0  0  0  0  0  0  0
   24.8558   -2.4599   30.3957 C   0  0  0  0  0  0  0  0  0  0  0  0
   25.4478   -2.9625   29.4162 O   0  0  0  0  0  0  0  0  0  0  0  0
   24.0990   -0.3709   29.2489 N   0  0  0  0  0  0  0  0  0  0  0  0
   23.3746    0.6718   29.6919 C   0  0  0  0  0  0  0  0  0  0  0  0
   23.0730    0.4638   30.9782 N   0  0  1  0  0  0  0  0  0  0  0  0
   21.0260    3.9893   26.9124 O   0  0  0  0  0  0  0  0  0  0  0  0
   22.6219    2.0166   26.8316 O   0  5  0  0  0  0  0  0  0  0  0  0
   20.1235    1.6365   26.8418 O   0  0  0  0  0  0  0  0  0  0  0  0
  1  3  1  1  0  0  0
  1 21  1  0  0  0  0
  1 22  1  0  0  0  0
  1 23  2  0  0  0  0
  2  3  1  0  0  0  0
  4  2  1  6  0  0  0
  4  5  1  0  0  0  0
  4  6  1  0  0  0  0
  6  7  1  1  0  0  0
  6  8  1  0  0  0  0
  8  9  1  0  0  0  0
  9  5  1  6  0  0  0
  9 20  1  0  0  0  0
 10 11  1  0  0  0  0
 10 16  1  0  0  0  0
 11 12  1  6  0  0  0
 11 13  1  0  0  0  0
 14 13  1  1  0  0  0
 14 15  1  0  0  0  0
 14 20  1  0  0  0  0
 15 16  1  6  0  0  0
 15 18  1  0  0  0  0
 16 17  2  0  0  0  0
 18 19  1  0  0  0  0
 20 19  1  6  0  0  0
M  CHG  1  22  -1
M  END
>  <CHROM.1>
58.80159484,-50.31103744,-178.84372396,-109.12434533,22.50781443,0.80850873
30.11916253,-2.67288175,-0.99135514,1.58046572

>  <Name>
ligand

>  <RI>
416

>  <Rbt.Current_Directory>
/home/itssahil/PROJECTS/Mol_Feturizer/Test_systems_manuscript/rnas/3slm

>  <Rbt.Executable>
rbdock ($Id: //depot/dev/client3/rdock/2013.1/src/exe/rbdock.cxx#4 $)

>  <Rbt.Library>
libRbt.so (2013.1, Build901 2013/11/27)

>  <Rbt.Parameter_File>
/export/apps/rDock/src/rDock_2013.1_src/data/scripts/dock_solv.prm

>  <Rbt.Receptor>
prm/pocket_docking_5.prm

>  <SCORE>
-17.3304

>  <SCORE.INTER>
-11.4468

>  <SCORE.INTER.CONST>
1

>  <SCORE.INTER.POLAR>
0

>  <SCORE.INTER.ROT>
4

>  <SCORE.INTER.SOLV>
17.4855

>  <SCORE.INTER.VDW>
-19.7264

>  <SCORE.INTER.norm>
-0.497685

>  <SCORE.INTRA>
-5.88369

>  <SCORE.INTRA.DIHEDRAL>
-7.11277

>  <SCORE.INTRA.DIHEDRAL.0>
8.62657

>  <SCORE.INTRA.POLAR>
0

>  <SCORE.INTRA.POLAR.0>
0

>  <SCORE.INTRA.REPUL>
0

>  <SCORE.INTRA.REPUL.0>
0

>  <SCORE.INTRA.SOLV>
0.180022

>  <SCORE.INTRA.SOLV.lig_0>
-66.3641

>  <SCORE.INTRA.VDW>
-2.41732

>  <SCORE.INTRA.VDW.0>
0.452231

>  <SCORE.INTRA.norm>
-0.255813

>  <SCORE.RESTR>
0

>  <SCORE.RESTR.CAVITY>
0

>  <SCORE.RESTR.norm>
0

>  <SCORE.SYSTEM>
0

>  <SCORE.SYSTEM.CONST>
0

>  <SCORE.SYSTEM.DIHEDRAL>
0

>  <SCORE.SYSTEM.SOLV>
0

>  <SCORE.SYSTEM.norm>
0

>  <SCORE.heavy>
23

>  <SCORE.norm>
-0.753498

>  <RMSD>
7.249

$$$$
ligand
 OpenBabel02271912143D
libRbt.so/2013.1/901 2013/11/27
 23 25  0  0  0  0  0  0  0  0999 V2000
   19.3119    1.9314   26.9485 P   0  0  1  0  0  0  0  0  0  0  0  0
   20.6948    2.7847   29.0015 C   0  0  0  0  0  0  0  0  0  0  0  0
   19.9215    1.7413   28.4251 O   0  0  0  0  0  0  0  0  0  0  0  0
   21.1351    2.3160   30.3700 C   0  0  1  0  0  0  0  0  0  0  0  0
   21.9705    1.1611   30.2989 O   0  0  0  0  0  0  0  0  0  0  0  0
   21.9271    3.4230   31.0452 C   0  0  1  0  0  0  0  0  0  0  0  0
   21.4317    3.5734   32.3869 O   0  0  0  0  0  0  0  0  0  0  0  0
   23.3763    2.9539   31.0173 C   0  0  0  0  0  0  0  0  0  0  0  0
   23.2791    1.4447   30.8113 C   0  0  2  0  0  0  0  0  0  0  0  0
   26.7367   -2.1044   29.4039 N   0  0  0  0  0  0  0  0  0  0  0  0
   26.0353   -2.0409   30.5474 C   0  0  2  0  0  0  0  0  0  0  0  0
   26.2281   -3.0197   31.4619 N   0  0  0  0  0  0  0  0  0  0  0  0
   25.1564   -1.0346   30.7728 N   0  0  0  0  0  0  0  0  0  0  0  0
   24.9820   -0.0789   29.8370 C   0  0  2  0  0  0  0  0  0  0  0  0
   25.6957   -0.1286   28.6591 C   0  0  1  0  0  0  0  0  0  0  0  0
   26.5803   -1.1693   28.4493 C   0  0  0  0  0  0  0  0  0  0  0  0
   27.2324   -1.2361   27.3850 O   0  0  0  0  0  0  0  0  0  0  0  0
   25.3434    0.9359   27.9114 N   0  0  0  0  0  0  0  0  0  0  0  0
   24.4246    1.6279   28.6080 C   0  0  0  0  0  0  0  0  0  0  0  0
   24.2224    1.0090   29.7763 N   0  0  1  0  0  0  0  0  0  0  0  0
   18.5498    0.6707   26.6201 O   0  0  0  0  0  0  0  0  0  0  0  0
   18.4507    3.1678   27.0664 O   0  5  0  0  0  0  0  0  0  0  0  0
   20.5428    2.1260   26.1050 O   0  0  0  0  0  0  0  0  0  0  0  0
  1  3  1  1  0  0  0
  1 21  1  0  0  0  0
  1 22  1  0  0  0  0
  1 23  2  0  0  0  0
  2  3  1  0  0  0  0
  4  2  1  6  0  0  0
  4  5  1  0  0  0  0
  4  6  1  0  0  0  0
  6  7  1  1  0  0  0
  6  8  1  0  0  0  0
  8  9  1  0  0  0  0
  9  5  1  6  0  0  0
  9 20  1  0  0  0  0
 10 11  1  0  0  0  0
 10 16  1  0  0  0  0
 11 12  1  6  0  0  0
 11 13  1  0  0  0  0
 14 13  1  1  0  0  0
 14 15  1  0  0  0  0
 14 20  1  0  0  0  0
 15 16  1  6  0  0  0
 15 18  1  0  0  0  0
 16 17  2  0  0  0  0
 18 19  1  0  0  0  0
 20 19  1  6  0  0  0
M  CHG  1  22  -1
M  END
>  <CHROM.1>
-179.92349229,62.53244350,-179.49399709,-106.03611279,22.84756273,0.97770338
29.09182582,-3.13109163,-0.54285237,1.14062812

>  <Name>
ligand

>  <RI>
0

>  <Rbt.Current_Directory>
/home/itssahil/PROJECTS/Mol_Feturizer/Test_systems_manuscript/rnas/3slm

>  <Rbt.Executable>
rbdock ($Id: //depot/dev/client3/rdock/2013.1/src/exe/rbdock.cxx#4 $)

>  <Rbt.Library>
libRbt.so (2013.1, Build901 2013/11/27)

>  <Rbt.Parameter_File>
/export/apps/rDock/src/rDock_2013.1_src/data/scripts/dock_solv.prm

>  <Rbt.Receptor>
prm/pocket_docking_8.prm

>  <SCORE>
-17.5485

>  <SCORE.INTER>
-12.2517

>  <SCORE.INTER.CONST>
1

>  <SCORE.INTER.POLAR>
0

>  <SCORE.INTER.ROT>
4

>  <SCORE.INTER.SOLV>
20.2684

>  <SCORE.INTER.VDW>
-21.1906

>  <SCORE.INTER.norm>
-0.532683

>  <SCORE.INTRA>
-5.29683

>  <SCORE.INTRA.DIHEDRAL>
-7.43654

>  <SCORE.INTRA.DIHEDRAL.0>
8.62657

>  <SCORE.INTRA.POLAR>
0

>  <SCORE.INTRA.POLAR.0>
0

>  <SCORE.INTRA.REPUL>
0

>  <SCORE.INTRA.REPUL.0>
0

>  <SCORE.INTRA.SOLV>
-0.0319684

>  <SCORE.INTRA.SOLV.lig_0>
-66.3641

>  <SCORE.INTRA.VDW>
-1.56258

>  <SCORE.INTRA.VDW.0>
0.452231

>  <SCORE.INTRA.norm>
-0.230297

>  <SCORE.RESTR>
0

>  <SCORE.RESTR.CAVITY>
0

>  <SCORE.RESTR.norm>
0

>  <SCORE.SYSTEM>
0

>  <SCORE.SYSTEM.CONST>
0

>  <SCORE.SYSTEM.DIHEDRAL>
0

>  <SCORE.SYSTEM.SOLV>
0

>  <SCORE.SYSTEM.norm>
0

>  <SCORE.heavy>
23

>  <SCORE.norm>
-0.76298

>  <RMSD>
7.271

$$$$
ligand
 OpenBabel02271912143D
libRbt.so/2013.1/901 2013/11/27
 23 25  0  0  0  0  0  0  0  0999 V2000
   18.9975    2.4281   26.1835 P   0  0  1  0  0  0  0  0  0  0  0  0
   20.5110    1.2819   27.9865 C   0  0  0  0  0  0  0  0  0  0  0  0
   20.4177    1.8753   26.6989 O   0  0  0  0  0  0  0  0  0  0  0  0
   20.5573    2.4051   28.9979 C   0  0  1  0  0  0  0  0  0  0  0  0
   20.8235    1.9293   30.3168 O   0  0  0  0  0  0  0  0  0  0  0  0
   21.6664    3.3719   28.6188 C   0  0  1  0  0  0  0  0  0  0  0  0
   21.1390    4.7080   28.6894 O   0  0  0  0  0  0  0  0  0  0  0  0
   22.7713    3.1359   29.6408 C   0  0  0  0  0  0  0  0  0  0  0  0
   22.0636    2.4541   30.8088 C   0  0  2  0  0  0  0  0  0  0  0  0
   22.0031   -1.9143   33.5373 N   0  0  0  0  0  0  0  0  0  0  0  0
   21.0010   -1.0389   33.3553 C   0  0  2  0  0  0  0  0  0  0  0  0
   19.8104   -1.3115   33.9382 N   0  0  0  0  0  0  0  0  0  0  0  0
   21.1746    0.0754   32.6043 N   0  0  0  0  0  0  0  0  0  0  0  0
   22.3720    0.3134   32.0305 C   0  0  2  0  0  0  0  0  0  0  0  0
   23.4111   -0.5740   32.2093 C   0  0  1  0  0  0  0  0  0  0  0  0
   23.2068   -1.7074   32.9732 C   0  0  0  0  0  0  0  0  0  0  0  0
   24.1345   -2.5280   33.1422 O   0  0  0  0  0  0  0  0  0  0  0  0
   24.4840   -0.1013   31.5447 N   0  0  0  0  0  0  0  0  0  0  0  0
   24.1159    1.0522   30.9595 C   0  0  0  0  0  0  0  0  0  0  0  0
   22.8383    1.2974   31.2700 N   0  0  1  0  0  0  0  0  0  0  0  0
   18.5461    3.4747   27.1729 O   0  0  0  0  0  0  0  0  0  0  0  0
   19.2947    2.9632   24.8016 O   0  5  0  0  0  0  0  0  0  0  0  0
   18.1407    1.1910   26.1852 O   0  0  0  0  0  0  0  0  0  0  0  0
  1  3  1  1  0  0  0
  1 21  1  0  0  0  0
  1 22  1  0  0  0  0
  1 23  2  0  0  0  0
  2  3  1  0  0  0  0
  4  2  1  6  0  0  0
  4  5  1  0  0  0  0
  4  6  1  0  0  0  0
  6  7  1  1  0  0  0
  6  8  1  0  0  0  0
  8  9  1  0  0  0  0
  9  5  1  6  0  0  0
  9 20  1  0  0  0  0
 10 11  1  0  0  0  0
 10 16  1  0  0  0  0
 11 12  1  6  0  0  0
 11 13  1  0  0  0  0
 14 13  1  1  0  0  0
 14 15  1  0  0  0  0
 14 20  1  0  0  0  0
 15 16  1  6  0  0  0
 15 18  1  0  0  0  0
 16 17  2  0  0  0  0
 18 19  1  0  0  0  0
 20 19  1  6  0  0  0
M  CHG  1  22  -1
M  END
>  <CHROM.1>
59.02373730,-172.50229165,-78.86903184,-46.62161926,21.24817547,1.20907733
29.82124841,2.05422976,-0.49983631,-0.79049288

>  <Name>
ligand

>  <RI>
416

>  <Rbt.Current_Directory>
/home/itssahil/PROJECTS/Mol_Feturizer/Test_systems_manuscript/rnas/3slm

>  <Rbt.Executable>
rbdock ($Id: //depot/dev/client3/rdock/2013.1/src/exe/rbdock.cxx#4 $)

>  <Rbt.Library>
libRbt.so (2013.1, Build901 2013/11/27)

>  <Rbt.Parameter_File>
/export/apps/rDock/src/rDock_2013.1_src/data/scripts/dock_solv.prm

>  <Rbt.Receptor>
prm/pocket_docking_4.prm

>  <SCORE>
-16.8028

>  <SCORE.INTER>
-13.5718

>  <SCORE.INTER.CONST>
1

>  <SCORE.INTER.POLAR>
0

>  <SCORE.INTER.ROT>
4

>  <SCORE.INTER.SOLV>
25.631

>  <SCORE.INTER.VDW>
-23.8582

>  <SCORE.INTER.norm>
-0.590076

>  <SCORE.INTRA>
-3.23456

>  <SCORE.INTRA.DIHEDRAL>
-5.56857

>  <SCORE.INTRA.DIHEDRAL.0>
8.62657

>  <SCORE.INTRA.POLAR>
0

>  <SCORE.INTRA.POLAR.0>
0

>  <SCORE.INTRA.REPUL>
0

>  <SCORE.INTRA.REPUL.0>
0

>  <SCORE.INTRA.SOLV>
0.704348

>  <SCORE.INTRA.SOLV.lig_0>
-66.3641

>  <SCORE.INTRA.VDW>
-0.802446

>  <SCORE.INTRA.VDW.0>
0.452231

>  <SCORE.INTRA.norm>
-0.140633

>  <SCORE.RESTR>
0.00351429

>  <SCORE.RESTR.CAVITY>
0.00351429

>  <SCORE.RESTR.norm>
0.000152795

>  <SCORE.SYSTEM>
0

>  <SCORE.SYSTEM.CONST>
0

>  <SCORE.SYSTEM.DIHEDRAL>
0

>  <SCORE.SYSTEM.SOLV>
0

>  <SCORE.SYSTEM.norm>
0

>  <SCORE.heavy>
23

>  <SCORE.norm>
-0.730556

>  <RMSD>
7.288

$$$$
ligand
 OpenBabel02271912143D
libRbt.so/2013.1/901 2013/11/27
 23 25  0  0  0  0  0  0  0  0999 V2000
   22.8727    0.4537   31.6443 P   0  0  1  0  0  0  0  0  0  0  0  0
   22.5992    2.9715   30.9804 C   0  0  0  0  0  0  0  0  0  0  0  0
   23.0287    2.0255   31.9495 O   0  0  0  0  0  0  0  0  0  0  0  0
   21.1108    2.7809   30.7934 C   0  0  1  0  0  0  0  0  0  0  0  0
   20.3543    3.4213   31.8203 O   0  0  0  0  0  0  0  0  0  0  0  0
   20.6942    3.3844   29.4627 C   0  0  1  0  0  0  0  0  0  0  0  0
   19.8624    2.4308   28.7796 O   0  0  0  0  0  0  0  0  0  0  0  0
   19.9357    4.6568   29.8191 C   0  0  0  0  0  0  0  0  0  0  0  0
   19.5219    4.4528   31.2741 C   0  0  2  0  0  0  0  0  0  0  0  0
   18.9062    9.5538   31.6373 N   0  0  0  0  0  0  0  0  0  0  0  0
   18.4734    8.7357   30.6641 C   0  0  2  0  0  0  0  0  0  0  0  0
   17.7770    9.2838   29.6413 N   0  0  0  0  0  0  0  0  0  0  0  0
   18.7182    7.4039   30.7108 N   0  0  0  0  0  0  0  0  0  0  0  0
   19.4088    6.8885   31.7486 C   0  0  2  0  0  0  0  0  0  0  0  0
   19.8615    7.7148   32.7543 C   0  0  1  0  0  0  0  0  0  0  0  0
   19.5923    9.0686   32.6880 C   0  0  0  0  0  0  0  0  0  0  0  0
   19.9886    9.8341   33.5932 O   0  0  0  0  0  0  0  0  0  0  0  0
   20.5201    6.9571   33.6535 N   0  0  0  0  0  0  0  0  0  0  0  0
   20.4706    5.6857   33.2183 C   0  0  0  0  0  0  0  0  0  0  0  0
   19.8043    5.6590   32.0590 N   0  0  1  0  0  0  0  0  0  0  0  0
   22.7397    0.3059   30.1481 O   0  0  0  0  0  0  0  0  0  0  0  0
   24.1293   -0.1560   32.2219 O   0  5  0  0  0  0  0  0  0  0  0  0
   21.6205    0.0933   32.3969 O   0  0  0  0  0  0  0  0  0  0  0  0
  1  3  1  1  0  0  0
  1 21  1  0  0  0  0
  1 22  1  0  0  0  0
  1 23  2  0  0  0  0
  2  3  1  0  0  0  0
  4  2  1  1  0  0  0
  4  5  1  0  0  0  0
  4  6  1  0  0  0  0
  6  7  1  1  0  0  0
  6  8  1  0  0  0  0
  8  9  1  0  0  0  0
  9  5  1  1  0  0  0
  9 20  1  0  0  0  0
 10 11  1  0  0  0  0
 10 16  1  0  0  0  0
 11 12  1  1  0  0  0
 11 13  1  0  0  0  0
 14 13  1  6  0  0  0
 14 15  1  0  0  0  0
 14 20  1  0  0  0  0
 15 16  1  1  0  0  0
 15 18  1  0  0  0  0
 16 17  2  0  0  0  0
 18 19  1  0  0  0  0
 20 19  1  1  0  0  0
M  CHG  1  22  -1
M  END
>  <CHROM.1>
20.21961070,80.63547088,62.12389623,168.54014712,20.71485106,4.55173650,31.46248460
-0.83587849,-0.92301618,0.68621233

>  <Name>
ligand

>  <RI>
0

>  <Rbt.Current_Directory>
/home/itssahil/PROJECTS/Mol_Feturizer/Test_systems_manuscript/rnas/3slm

>  <Rbt.Executable>
rbdock ($Id: //depot/dev/client3/rdock/2013.1/src/exe/rbdock.cxx#4 $)

>  <Rbt.Library>
libRbt.so (2013.1, Build901 2013/11/27)

>  <Rbt.Parameter_File>
/export/apps/rDock/src/rDock_2013.1_src/data/scripts/dock_solv.prm

>  <Rbt.Receptor>
prm/blind_docking_60.prm

>  <SCORE>
-16.9991

>  <SCORE.INTER>
-14.3076

>  <SCORE.INTER.CONST>
1

>  <SCORE.INTER.POLAR>
0

>  <SCORE.INTER.ROT>
4

>  <SCORE.INTER.SOLV>
15.5131

>  <SCORE.INTER.VDW>
-20.9761

>  <SCORE.INTER.norm>
-0.62207

>  <SCORE.INTRA>
-2.69149

>  <SCORE.INTRA.DIHEDRAL>
-4.28088

>  <SCORE.INTRA.DIHEDRAL.0>
8.62657

>  <SCORE.INTRA.POLAR>
0

>  <SCORE.INTRA.POLAR.0>
0

>  <SCORE.INTRA.REPUL>
0

>  <SCORE.INTRA.REPUL.0>
0

>  <SCORE.INTRA.SOLV>
1.03765

>  <SCORE.INTRA.SOLV.lig_0>
-66.3641

>  <SCORE.INTRA.VDW>
-1.06988

>  <SCORE.INTRA.VDW.0>
0.452231

>  <SCORE.INTRA.norm>
-0.117021

>  <SCORE.RESTR>
0

>  <SCORE.RESTR.CAVITY>
0

>  <SCORE.RESTR.norm>
0

>  <SCORE.SYSTEM>
0

>  <SCORE.SYSTEM.CONST>
0

>  <SCORE.SYSTEM.DIHEDRAL>
0

>  <SCORE.SYSTEM.SOLV>
0

>  <SCORE.SYSTEM.norm>
0

>  <SCORE.heavy>
23

>  <SCORE.norm>
-0.739092

>  <RMSD>
7.305

$$$$
ligand
 OpenBabel02271912143D
libRbt.so/2013.1/901 2013/11/27
 23 25  0  0  0  0  0  0  0  0999 V2000
   21.2800    4.3115   30.9520 P   0  0  1  0  0  0  0  0  0  0  0  0
   23.1835    2.6711   30.2163 C   0  0  0  0  0  0  0  0  0  0  0  0
   22.4782    3.8795   29.9690 O   0  0  0  0  0  0  0  0  0  0  0  0
   24.0926    2.4298   29.0322 C   0  0  1  0  0  0  0  0  0  0  0  0
   25.1927    1.5831   29.3638 O   0  0  0  0  0  0  0  0  0  0  0  0
   23.3010    1.7532   27.9258 C   0  0  1  0  0  0  0  0  0  0  0  0
   23.5795    2.4389   26.6927 O   0  0  0  0  0  0  0  0  0  0  0  0
   23.7925    0.3113   27.9047 C   0  0  0  0  0  0  0  0  0  0  0  0
   25.1455    0.3650   28.6093 C   0  0  2  0  0  0  0  0  0  0  0  0
   23.2335   -1.7121   32.9177 N   0  0  0  0  0  0  0  0  0  0  0  0
   22.8319   -0.5953   32.2890 C   0  0  2  0  0  0  0  0  0  0  0  0
   21.7920    0.0891   32.8198 N   0  0  0  0  0  0  0  0  0  0  0  0
   23.4423   -0.1739   31.1551 N   0  0  0  0  0  0  0  0  0  0  0  0
   24.4711   -0.8839   30.6480 C   0  0  2  0  0  0  0  0  0  0  0  0
   24.8966   -2.0310   31.2822 C   0  0  1  0  0  0  0  0  0  0  0  0
   24.2527   -2.4444   32.4330 C   0  0  0  0  0  0  0  0  0  0  0  0
   24.6192   -3.4855   33.0197 O   0  0  0  0  0  0  0  0  0  0  0  0
   25.9309   -2.5370   30.5819 N   0  0  0  0  0  0  0  0  0  0  0  0
   26.1381   -1.7245   29.5306 C   0  0  0  0  0  0  0  0  0  0  0  0
   25.2548   -0.7219   29.5879 N   0  0  1  0  0  0  0  0  0  0  0  0
   21.1216    5.8070   30.8238 O   0  0  0  0  0  0  0  0  0  0  0  0
   20.0961    3.5141   30.4552 O   0  5  0  0  0  0  0  0  0  0  0  0
   21.7847    3.8745   32.3006 O   0  0  0  0  0  0  0  0  0  0  0  0
  1  3  1  6  0  0  0
  1 21  1  0  0  0  0
  1 22  1  0  0  0  0
  1 23  2  0  0  0  0
  2  3  1  0  0  0  0
  4  2  1  1  0  0  0
  4  5  1  0  0  0  0
  4  6  1  0  0  0  0
  6  7  1  6  0  0  0
  6  8  1  0  0  0  0
  8  9  1  0  0  0  0
  9  5  1  1  0  0  0
  9 20  1  0  0  0  0
 10 11  1  0  0  0  0
 10 16  1  0  0  0  0
 11 12  1  6  0  0  0
 11 13  1  0  0  0  0
 14 13  1  1  0  0  0
 14 15  1  0  0  0  0
 14 20  1  0  0  0  0
 15 16  1  6  0  0  0
 15 18  1  0  0  0  0
 16 17  2  0  0  0  0
 18 19  1  0  0  0  0
 20 19  1  6  0  0  0
M  CHG  1  22  -1
M  END
>  <CHROM.1>
156.87420331,157.22288625,171.68422043,54.34466456,23.37860356,1.03865624
30.47211199,2.36465935,0.88203272,-0.81048860

>  <Name>
ligand

>  <RI>
416

>  <Rbt.Current_Directory>
/home/itssahil/PROJECTS/Mol_Feturizer/Test_systems_manuscript/rnas/3slm

>  <Rbt.Executable>
rbdock ($Id: //depot/dev/client3/rdock/2013.1/src/exe/rbdock.cxx#4 $)

>  <Rbt.Library>
libRbt.so (2013.1, Build901 2013/11/27)

>  <Rbt.Parameter_File>
/export/apps/rDock/src/rDock_2013.1_src/data/scripts/dock_solv.prm

>  <Rbt.Receptor>
prm/pocket_docking_6.prm

>  <SCORE>
-14.3556

>  <SCORE.INTER>
-10.8469

>  <SCORE.INTER.CONST>
1

>  <SCORE.INTER.POLAR>
0

>  <SCORE.INTER.ROT>
4

>  <SCORE.INTER.SOLV>
20.0801

>  <SCORE.INTER.VDW>
-20.1913

>  <SCORE.INTER.norm>
-0.471606

>  <SCORE.INTRA>
-3.50862

>  <SCORE.INTRA.DIHEDRAL>
-4.70177

>  <SCORE.INTRA.DIHEDRAL.0>
8.62657

>  <SCORE.INTRA.POLAR>
0

>  <SCORE.INTRA.POLAR.0>
0

>  <SCORE.INTRA.REPUL>
0

>  <SCORE.INTRA.REPUL.0>
0

>  <SCORE.INTRA.SOLV>
2.13625

>  <SCORE.INTRA.SOLV.lig_0>
-66.3641

>  <SCORE.INTRA.VDW>
-2.22587

>  <SCORE.INTRA.VDW.0>
0.452231

>  <SCORE.INTRA.norm>
-0.152549

>  <SCORE.RESTR>
0

>  <SCORE.RESTR.CAVITY>
0

>  <SCORE.RESTR.norm>
0

>  <SCORE.SYSTEM>
0

>  <SCORE.SYSTEM.CONST>
0

>  <SCORE.SYSTEM.DIHEDRAL>
0

>  <SCORE.SYSTEM.SOLV>
0

>  <SCORE.SYSTEM.norm>
0

>  <SCORE.heavy>
23

>  <SCORE.norm>
-0.624155

>  <RMSD>
7.306

$$$$
ligand
 OpenBabel02271912143D
libRbt.so/2013.1/901 2013/11/27
 23 25  0  0  0  0  0  0  0  0999 V2000
   19.8379    3.0060   26.6947 P   0  0  1  0  0  0  0  0  0  0  0  0
   20.6721    4.8183   28.3903 C   0  0  0  0  0  0  0  0  0  0  0  0
   20.8261    4.2026   27.1191 O   0  0  0  0  0  0  0  0  0  0  0  0
   21.2856    3.8926   29.4166 C   0  0  1  0  0  0  0  0  0  0  0  0
   21.7100    4.5928   30.5855 O   0  0  0  0  0  0  0  0  0  0  0  0
   20.2519    2.8627   29.8401 C   0  0  1  0  0  0  0  0  0  0  0  0
   20.8727    1.5659   29.8073 O   0  0  0  0  0  0  0  0  0  0  0  0
   19.8380    3.2658   31.2498 C   0  0  0  0  0  0  0  0  0  0  0  0
   20.9810    4.1516   31.7384 C   0  0  2  0  0  0  0  0  0  0  0  0
   18.2816    8.4879   31.0740 N   0  0  0  0  0  0  0  0  0  0  0  0
   18.5953    7.5599   30.1552 C   0  0  2  0  0  0  0  0  0  0  0  0
   18.1555    7.7502   28.8895 N   0  0  0  0  0  0  0  0  0  0  0  0
   19.3200    6.4645   30.4878 N   0  0  0  0  0  0  0  0  0  0  0  0
   19.7363    6.3012   31.7605 C   0  0  2  0  0  0  0  0  0  0  0  0
   19.4245    7.2453   32.7147 C   0  0  1  0  0  0  0  0  0  0  0  0
   18.6774    8.3500   32.3524 C   0  0  0  0  0  0  0  0  0  0  0  0
   18.3785    9.2145   33.2043 O   0  0  0  0  0  0  0  0  0  0  0  0
   19.9609    6.8492   33.8859 N   0  0  0  0  0  0  0  0  0  0  0  0
   20.5865    5.6796   33.6644 C   0  0  0  0  0  0  0  0  0  0  0  0
   20.4522    5.3641   32.3717 N   0  0  1  0  0  0  0  0  0  0  0  0
   18.5114    3.2708   27.3642 O   0  0  0  0  0  0  0  0  0  0  0  0
   19.8011    3.0820   25.1857 O   0  5  0  0  0  0  0  0  0  0  0  0
   20.5458    1.7886   27.2251 O   0  0  0  0  0  0  0  0  0  0  0  0
  1  3  1  1  0  0  0
  1 21  1  0  0  0  0
  1 22  1  0  0  0  0
  1 23  2  0  0  0  0
  2  3  1  0  0  0  0
  4  2  1  6  0  0  0
  4  5  1  0  0  0  0
  4  6  1  0  0  0  0
  6  7  1  1  0  0  0
  6  8  1  0  0  0  0
  8  9  1  0  0  0  0
  9  5  1  6  0  0  0
  9 20  1  0  0  0  0
 10 11  1  0  0  0  0
 10 16  1  0  0  0  0
 11 12  1  1  0  0  0
 11 13  1  0  0  0  0
 14 13  1  6  0  0  0
 14 15  1  0  0  0  0
 14 20  1  0  0  0  0
 15 16  1  1  0  0  0
 15 18  1  0  0  0  0
 16 17  2  0  0  0  0
 18 19  1  0  0  0  0
 20 19  1  1  0  0  0
M  CHG  1  22  -1
M  END
>  <CHROM.1>
31.24915702,154.92501615,77.94577479,52.87552428,19.87010313,5.00642668,29.92723224
1.30115631,1.05337984,-2.05931832

>  <Name>
ligand

>  <RI>
0

>  <Rbt.Current_Directory>
/home/itssahil/PROJECTS/Mol_Feturizer/Test_systems_manuscript/rnas/3slm

>  <Rbt.Executable>
rbdock ($Id: //depot/dev/client3/rdock/2013.1/src/exe/rbdock.cxx#4 $)

>  <Rbt.Library>
libRbt.so (2013.1, Build901 2013/11/27)

>  <Rbt.Parameter_File>
/export/apps/rDock/src/rDock_2013.1_src/data/scripts/dock_solv.prm

>  <Rbt.Receptor>
prm/blind_docking_80.prm

>  <SCORE>
-17.6319

>  <SCORE.INTER>
-15.8432

>  <SCORE.INTER.CONST>
1

>  <SCORE.INTER.POLAR>
0

>  <SCORE.INTER.ROT>
4

>  <SCORE.INTER.SOLV>
19.2596

>  <SCORE.INTER.VDW>
-23.2487

>  <SCORE.INTER.norm>
-0.688834

>  <SCORE.INTRA>
-1.78868

>  <SCORE.INTRA.DIHEDRAL>
-2.92297

>  <SCORE.INTRA.DIHEDRAL.0>
8.62657

>  <SCORE.INTRA.POLAR>
0

>  <SCORE.INTRA.POLAR.0>
0

>  <SCORE.INTRA.REPUL>
0

>  <SCORE.INTRA.REPUL.0>
0

>  <SCORE.INTRA.SOLV>
4.14664

>  <SCORE.INTRA.SOLV.lig_0>
-66.3641

>  <SCORE.INTRA.VDW>
-2.40052

>  <SCORE.INTRA.VDW.0>
0.452231

>  <SCORE.INTRA.norm>
-0.0777689

>  <SCORE.RESTR>
0

>  <SCORE.RESTR.CAVITY>
0

>  <SCORE.RESTR.norm>
0

>  <SCORE.SYSTEM>
0

>  <SCORE.SYSTEM.CONST>
0

>  <SCORE.SYSTEM.DIHEDRAL>
0

>  <SCORE.SYSTEM.SOLV>
0

>  <SCORE.SYSTEM.norm>
0

>  <SCORE.heavy>
23

>  <SCORE.norm>
-0.766603

>  <RMSD>
7.317

$$$$
ligand
 OpenBabel02271912143D
libRbt.so/2013.1/901 2013/11/27
 23 25  0  0  0  0  0  0  0  0999 V2000
   20.0485    1.9538   27.9072 P   0  0  1  0  0  0  0  0  0  0  0  0
   22.5752    2.6375   27.8487 C   0  0  0  0  0  0  0  0  0  0  0  0
   21.6020    1.6684   28.2127 O   0  0  0  0  0  0  0  0  0  0  0  0
   23.9025    2.1743   28.4056 C   0  0  1  0  0  0  0  0  0  0  0  0
   23.8746    2.0505   29.8271 O   0  0  0  0  0  0  0  0  0  0  0  0
   24.2378    0.8105   27.8257 C   0  0  1  0  0  0  0  0  0  0  0  0
   25.6030    0.8393   27.3746 O   0  0  0  0  0  0  0  0  0  0  0  0
   24.0318   -0.1739   28.9701 C   0  0  0  0  0  0  0  0  0  0  0  0
   24.0950    0.6912   30.2261 C   0  0  2  0  0  0  0  0  0  0  0  0
   22.4346   -2.4860   33.9247 N   0  0  0  0  0  0  0  0  0  0  0  0
   23.6055   -2.5216   33.2680 C   0  0  2  0  0  0  0  0  0  0  0  0
   24.4869   -3.4934   33.6003 N   0  0  0  0  0  0  0  0  0  0  0  0
   23.8978   -1.6081   32.3109 N   0  0  0  0  0  0  0  0  0  0  0  0
   23.0001   -0.6475   32.0092 C   0  0  2  0  0  0  0  0  0  0  0  0
   21.7931   -0.5984   32.6725 C   0  0  1  0  0  0  0  0  0  0  0  0
   21.5217   -1.5366   33.6502 C   0  0  0  0  0  0  0  0  0  0  0  0
   20.4355   -1.5055   34.2680 O   0  0  0  0  0  0  0  0  0  0  0  0
   21.0875    0.4391   32.1807 N   0  0  0  0  0  0  0  0  0  0  0  0
   21.8441    1.0261   31.2367 C   0  0  0  0  0  0  0  0  0  0  0  0
   22.9951    0.3525   31.1351 N   0  0  1  0  0  0  0  0  0  0  0  0
   19.6375    3.1243   28.7669 O   0  0  0  0  0  0  0  0  0  0  0  0
   20.0140    2.2288   26.4215 O   0  5  0  0  0  0  0  0  0  0  0  0
   19.3906    0.6590   28.3013 O   0  0  0  0  0  0  0  0  0  0  0  0
  1  3  1  1  0  0  0
  1 21  1  0  0  0  0
  1 22  1  0  0  0  0
  1 23  2  0  0  0  0
  2  3  1  0  0  0  0
  4  2  1  6  0  0  0
  4  5  1  0  0  0  0
  4  6  1  0  0  0  0
  6  7  1  1  0  0  0
  6  8  1  0  0  0  0
  8  9  1  0  0  0  0
  9  5  1  6  0  0  0
  9 20  1  0  0  0  0
 10 11  1  0  0  0  0
 10 16  1  0  0  0  0
 11 12  1  1  0  0  0
 11 13  1  0  0  0  0
 14 13  1  6  0  0  0
 14 15  1  0  0  0  0
 14 20  1  0  0  0  0
 15 16  1  1  0  0  0
 15 18  1  0  0  0  0
 16 17  2  0  0  0  0
 18 19  1  0  0  0  0
 20 19  1  1  0  0  0
M  CHG  1  22  -1
M  END
>  <CHROM.1>
-65.88244015,-60.17486990,173.23819769,-160.27975663,22.27065266,0.41566222
30.21630835,1.77141670,0.20173169,-0.99908946

>  <Name>
ligand

>  <RI>
416

>  <Rbt.Current_Directory>
/home/itssahil/PROJECTS/Mol_Feturizer/Test_systems_manuscript/rnas/3slm

>  <Rbt.Executable>
rbdock ($Id: //depot/dev/client3/rdock/2013.1/src/exe/rbdock.cxx#4 $)

>  <Rbt.Library>
libRbt.so (2013.1, Build901 2013/11/27)

>  <Rbt.Parameter_File>
/export/apps/rDock/src/rDock_2013.1_src/data/scripts/dock_solv.prm

>  <Rbt.Receptor>
prm/pocket_docking_5.prm

>  <SCORE>
-19.0985

>  <SCORE.INTER>
-13.0749

>  <SCORE.INTER.CONST>
1

>  <SCORE.INTER.POLAR>
0

>  <SCORE.INTER.ROT>
4

>  <SCORE.INTER.SOLV>
20.0061

>  <SCORE.INTER.VDW>
-21.652

>  <SCORE.INTER.norm>
-0.568475

>  <SCORE.INTRA>
-6.02355

>  <SCORE.INTRA.DIHEDRAL>
-7.1063

>  <SCORE.INTRA.DIHEDRAL.0>
8.62657

>  <SCORE.INTRA.POLAR>
0

>  <SCORE.INTRA.POLAR.0>
0

>  <SCORE.INTRA.REPUL>
0

>  <SCORE.INTRA.REPUL.0>
0

>  <SCORE.INTRA.SOLV>
-0.15755

>  <SCORE.INTRA.SOLV.lig_0>
-66.3641

>  <SCORE.INTRA.VDW>
-2.39162

>  <SCORE.INTRA.VDW.0>
0.452231

>  <SCORE.INTRA.norm>
-0.261893

>  <SCORE.RESTR>
0

>  <SCORE.RESTR.CAVITY>
0

>  <SCORE.RESTR.norm>
0

>  <SCORE.SYSTEM>
0

>  <SCORE.SYSTEM.CONST>
0

>  <SCORE.SYSTEM.DIHEDRAL>
0

>  <SCORE.SYSTEM.SOLV>
0

>  <SCORE.SYSTEM.norm>
0

>  <SCORE.heavy>
23

>  <SCORE.norm>
-0.830368

>  <RMSD>
7.391

$$$$
ligand
 OpenBabel02271912143D
libRbt.so/2013.1/901 2013/11/27
 23 25  0  0  0  0  0  0  0  0999 V2000
   20.0668    1.6387   27.7657 P   0  0  1  0  0  0  0  0  0  0  0  0
   22.5464    2.4776   27.8193 C   0  0  0  0  0  0  0  0  0  0  0  0
   21.6197    1.4498   28.1412 O   0  0  0  0  0  0  0  0  0  0  0  0
   23.8875    2.0688   28.3858 C   0  0  1  0  0  0  0  0  0  0  0  0
   23.8625    1.9742   29.8096 O   0  0  0  0  0  0  0  0  0  0  0  0
   24.2664    0.7044   27.8349 C   0  0  1  0  0  0  0  0  0  0  0  0
   25.6303    0.7671   27.3833 O   0  0  0  0  0  0  0  0  0  0  0  0
   24.0910   -0.2616   28.9999 C   0  0  0  0  0  0  0  0  0  0  0  0
   24.1259    0.6314   30.2372 C   0  0  2  0  0  0  0  0  0  0  0  0
   22.5024   -2.6181   33.8892 N   0  0  0  0  0  0  0  0  0  0  0  0
   23.6645   -2.6437   33.2166 C   0  0  2  0  0  0  0  0  0  0  0  0
   24.5466   -3.6252   33.5167 N   0  0  0  0  0  0  0  0  0  0  0  0
   23.9476   -1.7110   32.2753 N   0  0  0  0  0  0  0  0  0  0  0  0
   23.0495   -0.7412   32.0058 C   0  0  2  0  0  0  0  0  0  0  0  0
   21.8515   -0.7022   32.6858 C   0  0  1  0  0  0  0  0  0  0  0  0
   21.5894   -1.6601   33.6469 C   0  0  0  0  0  0  0  0  0  0  0  0
   20.5115   -1.6385   34.2794 O   0  0  0  0  0  0  0  0  0  0  0  0
   21.1432    0.3479   32.2254 N   0  0  0  0  0  0  0  0  0  0  0  0
   21.8896    0.9522   31.2842 C   0  0  0  0  0  0  0  0  0  0  0  0
   23.0367    0.2771   31.1532 N   0  0  1  0  0  0  0  0  0  0  0  0
   19.3864    0.3164   28.0243 O   0  0  0  0  0  0  0  0  0  0  0  0
   19.6085    2.7625   28.6663 O   0  5  0  0  0  0  0  0  0  0  0  0
   20.1217    2.0109   26.3087 O   0  0  0  0  0  0  0  0  0  0  0  0
  1  3  1  1  0  0  0
  1 21  1  0  0  0  0
  1 22  1  0  0  0  0
  1 23  2  0  0  0  0
  2  3  1  0  0  0  0
  4  2  1  6  0  0  0
  4  5  1  0  0  0  0
  4  6  1  0  0  0  0
  6  7  1  1  0  0  0
  6  8  1  0  0  0  0
  8  9  1  0  0  0  0
  9  5  1  6  0  0  0
  9 20  1  0  0  0  0
 10 11  1  0  0  0  0
 10 16  1  0  0  0  0
 11 12  1  1  0  0  0
 11 13  1  0  0  0  0
 14 13  1  6  0  0  0
 14 15  1  0  0  0  0
 14 20  1  0  0  0  0
 15 16  1  1  0  0  0
 15 18  1  0  0  0  0
 16 17  2  0  0  0  0
 18 19  1  0  0  0  0
 20 19  1  1  0  0  0
M  CHG  1  22  -1
M  END
>  <CHROM.1>
171.15511590,-63.29665304,175.59252655,-163.53034347,22.30507911,0.25924820
30.17345153,1.77594328,0.15985436,-1.01487495

>  <Name>
ligand

>  <RI>
0

>  <Rbt.Current_Directory>
/home/itssahil/PROJECTS/Mol_Feturizer/Test_systems_manuscript/rnas/3slm

>  <Rbt.Executable>
rbdock ($Id: //depot/dev/client3/rdock/2013.1/src/exe/rbdock.cxx#4 $)

>  <Rbt.Library>
libRbt.so (2013.1, Build901 2013/11/27)

>  <Rbt.Parameter_File>
/export/apps/rDock/src/rDock_2013.1_src/data/scripts/dock_solv.prm

>  <Rbt.Receptor>
prm/pocket_docking_7.prm

>  <SCORE>
-20.7215

>  <SCORE.INTER>
-15.3093

>  <SCORE.INTER.CONST>
1

>  <SCORE.INTER.POLAR>
0

>  <SCORE.INTER.ROT>
4

>  <SCORE.INTER.SOLV>
17.2004

>  <SCORE.INTER.VDW>
-22.2064

>  <SCORE.INTER.norm>
-0.665623

>  <SCORE.INTRA>
-5.41213

>  <SCORE.INTRA.DIHEDRAL>
-7.13673

>  <SCORE.INTRA.DIHEDRAL.0>
8.62657

>  <SCORE.INTRA.POLAR>
0

>  <SCORE.INTRA.POLAR.0>
0

>  <SCORE.INTRA.REPUL>
0

>  <SCORE.INTRA.REPUL.0>
0

>  <SCORE.INTRA.SOLV>
0.417593

>  <SCORE.INTRA.SOLV.lig_0>
-66.3641

>  <SCORE.INTRA.VDW>
-2.05256

>  <SCORE.INTRA.VDW.0>
0.452231

>  <SCORE.INTRA.norm>
-0.23531

>  <SCORE.RESTR>
0

>  <SCORE.RESTR.CAVITY>
0

>  <SCORE.RESTR.norm>
0

>  <SCORE.SYSTEM>
0

>  <SCORE.SYSTEM.CONST>
0

>  <SCORE.SYSTEM.DIHEDRAL>
0

>  <SCORE.SYSTEM.SOLV>
0

>  <SCORE.SYSTEM.norm>
0

>  <SCORE.heavy>
23

>  <SCORE.norm>
-0.900933

>  <RMSD>
7.402

$$$$
ligand
 OpenBabel02271912143D
libRbt.so/2013.1/901 2013/11/27
 23 25  0  0  0  0  0  0  0  0999 V2000
   19.8111    5.0786   32.1653 P   0  0  1  0  0  0  0  0  0  0  0  0
   21.7953    3.5876   31.3317 C   0  0  0  0  0  0  0  0  0  0  0  0
   20.9273    4.6831   31.0763 O   0  0  0  0  0  0  0  0  0  0  0  0
   22.7800    3.5164   30.1863 C   0  0  1  0  0  0  0  0  0  0  0  0
   23.8513    2.6125   30.4547 O   0  0  0  0  0  0  0  0  0  0  0  0
   22.0605    3.0292   28.9399 C   0  0  1  0  0  0  0  0  0  0  0  0
   22.4238    3.8910   27.8476 O   0  0  0  0  0  0  0  0  0  0  0  0
   22.5451    1.6001   28.7297 C   0  0  0  0  0  0  0  0  0  0  0  0
   23.8483    1.5249   29.5206 C   0  0  2  0  0  0  0  0  0  0  0  0
   26.3288   -2.8896   30.4648 N   0  0  0  0  0  0  0  0  0  0  0  0
   26.6230   -1.9558   29.5454 C   0  0  2  0  0  0  0  0  0  0  0  0
   27.7046   -2.1627   28.7587 N   0  0  0  0  0  0  0  0  0  0  0  0
   25.8668   -0.8389   29.4172 N   0  0  0  0  0  0  0  0  0  0  0  0
   24.7997   -0.6597   30.2228 C   0  0  2  0  0  0  0  0  0  0  0  0
   24.4832   -1.6094   31.1699 C   0  0  1  0  0  0  0  0  0  0  0  0
   25.2746   -2.7363   31.2865 C   0  0  0  0  0  0  0  0  0  0  0  0
   25.0083   -3.6064   32.1434 O   0  0  0  0  0  0  0  0  0  0  0  0
   23.3820   -1.1943   31.8267 N   0  0  0  0  0  0  0  0  0  0  0  0
   23.0268   -0.0079   31.3027 C   0  0  0  0  0  0  0  0  0  0  0  0
   23.8868    0.2996   30.3256 N   0  0  1  0  0  0  0  0  0  0  0  0
   20.4921    5.0869   33.5122 O   0  0  0  0  0  0  0  0  0  0  0  0
   19.3188    6.4321   31.7071 O   0  5  0  0  0  0  0  0  0  0  0  0
   18.7956    3.9786   32.0126 O   0  0  0  0  0  0  0  0  0  0  0  0
  1  3  1  6  0  0  0
  1 21  1  0  0  0  0
  1 22  1  0  0  0  0
  1 23  2  0  0  0  0
  2  3  1  0  0  0  0
  4  2  1  1  0  0  0
  4  5  1  0  0  0  0
  4  6  1  0  0  0  0
  6  7  1  6  0  0  0
  6  8  1  0  0  0  0
  8  9  1  0  0  0  0
  9  5  1  1  0  0  0
  9 20  1  0  0  0  0
 10 11  1  0  0  0  0
 10 16  1  0  0  0  0
 11 12  1  1  0  0  0
 11 13  1  0  0  0  0
 14 13  1  6  0  0  0
 14 15  1  0  0  0  0
 14 20  1  0  0  0  0
 15 16  1  1  0  0  0
 15 18  1  0  0  0  0
 16 17  2  0  0  0  0
 18 19  1  0  0  0  0
 20 19  1  1  0  0  0
M  CHG  1  22  -1
M  END
>  <CHROM.1>
46.27363091,169.14735400,-176.42512948,-123.89663829,22.97651404,1.54519526
30.71683509,2.68245638,0.81929492,-0.79809201

>  <Name>
ligand

>  <RI>
416

>  <Rbt.Current_Directory>
/home/itssahil/PROJECTS/Mol_Feturizer/Test_systems_manuscript/rnas/3slm

>  <Rbt.Executable>
rbdock ($Id: //depot/dev/client3/rdock/2013.1/src/exe/rbdock.cxx#4 $)

>  <Rbt.Library>
libRbt.so (2013.1, Build901 2013/11/27)

>  <Rbt.Parameter_File>
/export/apps/rDock/src/rDock_2013.1_src/data/scripts/dock_solv.prm

>  <Rbt.Receptor>
prm/pocket_docking_5.prm

>  <SCORE>
-17.9231

>  <SCORE.INTER>
-12.5624

>  <SCORE.INTER.CONST>
1

>  <SCORE.INTER.POLAR>
0

>  <SCORE.INTER.ROT>
4

>  <SCORE.INTER.SOLV>
16.7431

>  <SCORE.INTER.VDW>
-20.2226

>  <SCORE.INTER.norm>
-0.546193

>  <SCORE.INTRA>
-5.37205

>  <SCORE.INTRA.DIHEDRAL>
-6.65969

>  <SCORE.INTRA.DIHEDRAL.0>
8.62657

>  <SCORE.INTRA.POLAR>
0

>  <SCORE.INTRA.POLAR.0>
0

>  <SCORE.INTRA.REPUL>
0

>  <SCORE.INTRA.REPUL.0>
0

>  <SCORE.INTRA.SOLV>
-0.62148

>  <SCORE.INTRA.SOLV.lig_0>
-66.3641

>  <SCORE.INTRA.VDW>
-1.73146

>  <SCORE.INTRA.VDW.0>
0.452231

>  <SCORE.INTRA.norm>
-0.233567

>  <SCORE.RESTR>
0.0113331

>  <SCORE.RESTR.CAVITY>
0.0113331

>  <SCORE.RESTR.norm>
0.000492742

>  <SCORE.SYSTEM>
0

>  <SCORE.SYSTEM.CONST>
0

>  <SCORE.SYSTEM.DIHEDRAL>
0

>  <SCORE.SYSTEM.SOLV>
0

>  <SCORE.SYSTEM.norm>
0

>  <SCORE.heavy>
23

>  <SCORE.norm>
-0.779267

>  <RMSD>
7.411

$$$$
ligand
 OpenBabel02271912143D
libRbt.so/2013.1/901 2013/11/27
 23 25  0  0  0  0  0  0  0  0999 V2000
   24.2208    1.0007   27.9027 P   0  0  1  0  0  0  0  0  0  0  0  0
   22.0354    2.1784   28.7345 C   0  0  0  0  0  0  0  0  0  0  0  0
   23.2994    1.6208   29.0665 O   0  0  0  0  0  0  0  0  0  0  0  0
   21.3761    2.6019   30.0278 C   0  0  1  0  0  0  0  0  0  0  0  0
   21.2049    1.5068   30.9269 O   0  0  0  0  0  0  0  0  0  0  0  0
   22.2485    3.6379   30.7162 C   0  0  1  0  0  0  0  0  0  0  0  0
   21.4075    4.7299   31.1265 O   0  0  0  0  0  0  0  0  0  0  0  0
   22.8700    2.9138   31.9040 C   0  0  0  0  0  0  0  0  0  0  0  0
   21.9586    1.7104   32.1294 C   0  0  2  0  0  0  0  0  0  0  0  0
   22.1319   -3.0076   34.1890 N   0  0  0  0  0  0  0  0  0  0  0  0
   21.1366   -2.1090   34.2628 C   0  0  2  0  0  0  0  0  0  0  0  0
   20.0215   -2.4562   34.9467 N   0  0  0  0  0  0  0  0  0  0  0  0
   21.2424   -0.8985   33.6634 N   0  0  0  0  0  0  0  0  0  0  0  0
   22.3645   -0.5870   32.9826 C   0  0  2  0  0  0  0  0  0  0  0  0
   23.3959   -1.4972   32.8993 C   0  0  1  0  0  0  0  0  0  0  0  0
   23.2608   -2.7283   33.5124 C   0  0  0  0  0  0  0  0  0  0  0  0
   24.1820   -3.5703   33.4431 O   0  0  0  0  0  0  0  0  0  0  0  0
   24.3888   -0.9394   32.1787 N   0  0  0  0  0  0  0  0  0  0  0  0
   23.9789    0.2890   31.8163 C   0  0  0  0  0  0  0  0  0  0  0  0
   22.7563    0.4943   32.3181 N   0  0  1  0  0  0  0  0  0  0  0  0
   25.6561    1.1769   28.3352 O   0  0  0  0  0  0  0  0  0  0  0  0
   23.7699   -0.4388   27.8092 O   0  5  0  0  0  0  0  0  0  0  0  0
   23.8477    1.8336   26.7062 O   0  0  0  0  0  0  0  0  0  0  0  0
  1  3  1  1  0  0  0
  1 21  1  0  0  0  0
  1 22  1  0  0  0  0
  1 23  2  0  0  0  0
  2  3  1  0  0  0  0
  4  2  1  6  0  0  0
  4  5  1  0  0  0  0
  4  6  1  0  0  0  0
  6  7  1  1  0  0  0
  6  8  1  0  0  0  0
  8  9  1  0  0  0  0
  9  5  1  6  0  0  0
  9 20  1  0  0  0  0
 10 11  1  0  0  0  0
 10 16  1  0  0  0  0
 11 12  1  6  0  0  0
 11 13  1  0  0  0  0
 14 13  1  1  0  0  0
 14 15  1  0  0  0  0
 14 20  1  0  0  0  0
 15 16  1  6  0  0  0
 15 18  1  0  0  0  0
 16 17  2  0  0  0  0
 18 19  1  0  0  0  0
 20 19  1  6  0  0  0
M  CHG  1  22  -1
M  END
>  <CHROM.1>
150.30467693,-59.13488714,176.80239385,-89.20779806,22.83251793,0.41347841
31.08219306,-1.28840353,-0.87992399,2.45598468

>  <Name>
ligand

>  <RI>
416

>  <Rbt.Current_Directory>
/home/itssahil/PROJECTS/Mol_Feturizer/Test_systems_manuscript/rnas/3slm

>  <Rbt.Executable>
rbdock ($Id: //depot/dev/client3/rdock/2013.1/src/exe/rbdock.cxx#4 $)

>  <Rbt.Library>
libRbt.so (2013.1, Build901 2013/11/27)

>  <Rbt.Parameter_File>
/export/apps/rDock/src/rDock_2013.1_src/data/scripts/dock_solv.prm

>  <Rbt.Receptor>
prm/pocket_docking_5.prm

>  <SCORE>
-16.579

>  <SCORE.INTER>
-12.3237

>  <SCORE.INTER.CONST>
1

>  <SCORE.INTER.POLAR>
0

>  <SCORE.INTER.ROT>
4

>  <SCORE.INTER.SOLV>
20.7793

>  <SCORE.INTER.VDW>
-21.4089

>  <SCORE.INTER.norm>
-0.535811

>  <SCORE.INTRA>
-4.25532

>  <SCORE.INTRA.DIHEDRAL>
-6.28347

>  <SCORE.INTRA.DIHEDRAL.0>
8.62657

>  <SCORE.INTRA.POLAR>
0

>  <SCORE.INTRA.POLAR.0>
0

>  <SCORE.INTRA.REPUL>
0

>  <SCORE.INTRA.REPUL.0>
0

>  <SCORE.INTRA.SOLV>
0.302308

>  <SCORE.INTRA.SOLV.lig_0>
-66.3641

>  <SCORE.INTRA.VDW>
-1.26474

>  <SCORE.INTRA.VDW.0>
0.452231

>  <SCORE.INTRA.norm>
-0.185014

>  <SCORE.RESTR>
0

>  <SCORE.RESTR.CAVITY>
0

>  <SCORE.RESTR.norm>
0

>  <SCORE.SYSTEM>
0

>  <SCORE.SYSTEM.CONST>
0

>  <SCORE.SYSTEM.DIHEDRAL>
0

>  <SCORE.SYSTEM.SOLV>
0

>  <SCORE.SYSTEM.norm>
0

>  <SCORE.heavy>
23

>  <SCORE.norm>
-0.720825

>  <RMSD>
7.436

$$$$
ligand
 OpenBabel02271912143D
libRbt.so/2013.1/901 2013/11/27
 23 25  0  0  0  0  0  0  0  0999 V2000
   20.2149    6.1283   32.0199 P   0  0  1  0  0  0  0  0  0  0  0  0
   21.0673    4.6098   30.0647 C   0  0  0  0  0  0  0  0  0  0  0  0
   21.3882    5.5401   31.0895 O   0  0  0  0  0  0  0  0  0  0  0  0
   22.3693    4.1576   29.4427 C   0  0  1  0  0  0  0  0  0  0  0  0
   23.1686    3.4071   30.3562 O   0  0  0  0  0  0  0  0  0  0  0  0
   22.0687    3.2687   28.2477 C   0  0  1  0  0  0  0  0  0  0  0  0
   22.8839    3.7074   27.1472 O   0  0  0  0  0  0  0  0  0  0  0  0
   22.4233    1.8572   28.6982 C   0  0  0  0  0  0  0  0  0  0  0  0
   23.3576    2.0657   29.8871 C   0  0  2  0  0  0  0  0  0  0  0  0
   24.3655   -2.2952   32.4364 N   0  0  0  0  0  0  0  0  0  0  0  0
   24.9930   -1.8057   31.3546 C   0  0  2  0  0  0  0  0  0  0  0  0
   26.0297   -2.5149   30.8508 N   0  0  0  0  0  0  0  0  0  0  0  0
   24.6061   -0.6351   30.7926 N   0  0  0  0  0  0  0  0  0  0  0  0
   23.5736    0.0511   31.3244 C   0  0  2  0  0  0  0  0  0  0  0  0
   22.9179   -0.4387   32.4331 C   0  0  1  0  0  0  0  0  0  0  0  0
   23.3364   -1.6309   32.9928 C   0  0  0  0  0  0  0  0  0  0  0  0
   22.7592   -2.0889   34.0025 O   0  0  0  0  0  0  0  0  0  0  0  0
   21.9335    0.4248   32.7522 N   0  0  0  0  0  0  0  0  0  0  0  0
   21.9822    1.4332   31.8640 C   0  0  0  0  0  0  0  0  0  0  0  0
   22.9725    1.1899   30.9987 N   0  0  1  0  0  0  0  0  0  0  0  0
   19.0352    6.4053   31.1199 O   0  0  0  0  0  0  0  0  0  0  0  0
   19.9785    5.0390   33.0404 O   0  5  0  0  0  0  0  0  0  0  0  0
   20.8388    7.3725   32.5919 O   0  0  0  0  0  0  0  0  0  0  0  0
  1  3  1  6  0  0  0
  1 21  1  0  0  0  0
  1 22  1  0  0  0  0
  1 23  2  0  0  0  0
  2  3  1  0  0  0  0
  4  2  1  1  0  0  0
  4  5  1  0  0  0  0
  4  6  1  0  0  0  0
  6  7  1  6  0  0  0
  6  8  1  0  0  0  0
  8  9  1  0  0  0  0
  9  5  1  1  0  0  0
  9 20  1  0  0  0  0
 10 11  1  0  0  0  0
 10 16  1  0  0  0  0
 11 12  1  1  0  0  0
 11 13  1  0  0  0  0
 14 13  1  6  0  0  0
 14 15  1  0  0  0  0
 14 20  1  0  0  0  0
 15 16  1  1  0  0  0
 15 18  1  0  0  0  0
 16 17  2  0  0  0  0
 18 19  1  0  0  0  0
 20 19  1  1  0  0  0
M  CHG  1  22  -1
M  END
>  <CHROM.1>
-40.81111741,66.26538382,-175.52549324,-142.50796318,22.34764785,2.32778375
31.15427709,2.47871132,0.98861149,-0.90608633

>  <Name>
ligand

>  <RI>
416

>  <Rbt.Current_Directory>
/home/itssahil/PROJECTS/Mol_Feturizer/Test_systems_manuscript/rnas/3slm

>  <Rbt.Executable>
rbdock ($Id: //depot/dev/client3/rdock/2013.1/src/exe/rbdock.cxx#4 $)

>  <Rbt.Library>
libRbt.so (2013.1, Build901 2013/11/27)

>  <Rbt.Parameter_File>
/export/apps/rDock/src/rDock_2013.1_src/data/scripts/dock_solv.prm

>  <Rbt.Receptor>
prm/pocket_docking_5.prm

>  <SCORE>
-19.8564

>  <SCORE.INTER>
-14.2475

>  <SCORE.INTER.CONST>
1

>  <SCORE.INTER.POLAR>
0

>  <SCORE.INTER.ROT>
4

>  <SCORE.INTER.SOLV>
17.6352

>  <SCORE.INTER.VDW>
-21.6434

>  <SCORE.INTER.norm>
-0.619456

>  <SCORE.INTRA>
-5.60891

>  <SCORE.INTRA.DIHEDRAL>
-6.54531

>  <SCORE.INTRA.DIHEDRAL.0>
8.62657

>  <SCORE.INTRA.POLAR>
0

>  <SCORE.INTRA.POLAR.0>
0

>  <SCORE.INTRA.REPUL>
0

>  <SCORE.INTRA.REPUL.0>
0

>  <SCORE.INTRA.SOLV>
-0.805053

>  <SCORE.INTRA.SOLV.lig_0>
-66.3641

>  <SCORE.INTRA.VDW>
-1.93373

>  <SCORE.INTRA.VDW.0>
0.452231

>  <SCORE.INTRA.norm>
-0.243866

>  <SCORE.RESTR>
0

>  <SCORE.RESTR.CAVITY>
0

>  <SCORE.RESTR.norm>
0

>  <SCORE.SYSTEM>
0

>  <SCORE.SYSTEM.CONST>
0

>  <SCORE.SYSTEM.DIHEDRAL>
0

>  <SCORE.SYSTEM.SOLV>
0

>  <SCORE.SYSTEM.norm>
0

>  <SCORE.heavy>
23

>  <SCORE.norm>
-0.863322

>  <RMSD>
7.447

$$$$
ligand
 OpenBabel02271912143D
libRbt.so/2013.1/901 2013/11/27
 23 25  0  0  0  0  0  0  0  0999 V2000
   24.9130    0.0158   28.4425 P   0  0  1  0  0  0  0  0  0  0  0  0
   22.8715    1.6270   28.7449 C   0  0  0  0  0  0  0  0  0  0  0  0
   23.8899    0.8512   29.3611 O   0  0  0  0  0  0  0  0  0  0  0  0
   22.0056    2.1919   29.8484 C   0  0  1  0  0  0  0  0  0  0  0  0
   21.4862    1.1706   30.6993 O   0  0  0  0  0  0  0  0  0  0  0  0
   22.8382    3.1319   30.7037 C   0  0  1  0  0  0  0  0  0  0  0  0
   22.0881    4.3435   30.8974 O   0  0  0  0  0  0  0  0  0  0  0  0
   23.0706    2.3852   32.0112 C   0  0  0  0  0  0  0  0  0  0  0  0
   21.9727    1.3252   32.0390 C   0  0  2  0  0  0  0  0  0  0  0  0
   21.2046   -3.0523   34.6426 N   0  0  0  0  0  0  0  0  0  0  0  0
   20.3847   -1.9931   34.5455 C   0  0  2  0  0  0  0  0  0  0  0  0
   19.1966   -2.0526   35.1907 N   0  0  0  0  0  0  0  0  0  0  0  0
   20.7326   -0.9049   33.8170 N   0  0  0  0  0  0  0  0  0  0  0  0
   21.9212   -0.8809   33.1795 C   0  0  2  0  0  0  0  0  0  0  0  0
   22.7747   -1.9590   33.2708 C   0  0  1  0  0  0  0  0  0  0  0  0
   22.3938   -3.0605   34.0134 C   0  0  0  0  0  0  0  0  0  0  0  0
   23.1507   -4.0511   34.1035 O   0  0  0  0  0  0  0  0  0  0  0  0
   23.8823   -1.6772   32.5566 N   0  0  0  0  0  0  0  0  0  0  0  0
   23.7163   -0.4523   32.0271 C   0  0  0  0  0  0  0  0  0  0  0  0
   22.5297    0.0232   32.4203 N   0  0  1  0  0  0  0  0  0  0  0  0
   24.1043   -1.0410   27.7302 O   0  0  0  0  0  0  0  0  0  0  0  0
   25.5181    1.0581   27.5306 O   0  5  0  0  0  0  0  0  0  0  0  0
   25.8795   -0.5454   29.4501 O   0  0  0  0  0  0  0  0  0  0  0  0
  1  3  1  1  0  0  0
  1 21  1  0  0  0  0
  1 22  1  0  0  0  0
  1 23  2  0  0  0  0
  2  3  1  0  0  0  0
  4  2  1  6  0  0  0
  4  5  1  0  0  0  0
  4  6  1  0  0  0  0
  6  7  1  1  0  0  0
  6  8  1  0  0  0  0
  8  9  1  0  0  0  0
  9  5  1  6  0  0  0
  9 20  1  0  0  0  0
 10 11  1  0  0  0  0
 10 16  1  0  0  0  0
 11 12  1  6  0  0  0
 11 13  1  0  0  0  0
 14 13  1  1  0  0  0
 14 15  1  0  0  0  0
 14 20  1  0  0  0  0
 15 16  1  6  0  0  0
 15 18  1  0  0  0  0
 16 17  2  0  0  0  0
 18 19  1  0  0  0  0
 20 19  1  6  0  0  0
M  CHG  1  22  -1
M  END
>  <CHROM.1>
-65.13464678,-55.53493580,175.18160823,-100.69112436,22.88744969,-0.10488772
31.34632530,-0.94506338,-0.82101633,2.62307665

>  <Name>
ligand

>  <RI>
0

>  <Rbt.Current_Directory>
/home/itssahil/PROJECTS/Mol_Feturizer/Test_systems_manuscript/rnas/3slm

>  <Rbt.Executable>
rbdock ($Id: //depot/dev/client3/rdock/2013.1/src/exe/rbdock.cxx#4 $)

>  <Rbt.Library>
libRbt.so (2013.1, Build901 2013/11/27)

>  <Rbt.Parameter_File>
/export/apps/rDock/src/rDock_2013.1_src/data/scripts/dock_solv.prm

>  <Rbt.Receptor>
prm/pocket_docking_7.prm

>  <SCORE>
-20.0023

>  <SCORE.INTER>
-14.1534

>  <SCORE.INTER.CONST>
1

>  <SCORE.INTER.POLAR>
0

>  <SCORE.INTER.ROT>
4

>  <SCORE.INTER.SOLV>
16.5669

>  <SCORE.INTER.VDW>
-21.2246

>  <SCORE.INTER.norm>
-0.615366

>  <SCORE.INTRA>
-5.84892

>  <SCORE.INTRA.DIHEDRAL>
-7.25188

>  <SCORE.INTRA.DIHEDRAL.0>
8.62657

>  <SCORE.INTRA.POLAR>
0

>  <SCORE.INTRA.POLAR.0>
0

>  <SCORE.INTRA.REPUL>
0

>  <SCORE.INTRA.REPUL.0>
0

>  <SCORE.INTRA.SOLV>
0.105095

>  <SCORE.INTRA.SOLV.lig_0>
-66.3641

>  <SCORE.INTRA.VDW>
-2.27553

>  <SCORE.INTRA.VDW.0>
0.452231

>  <SCORE.INTRA.norm>
-0.254301

>  <SCORE.RESTR>
0

>  <SCORE.RESTR.CAVITY>
0

>  <SCORE.RESTR.norm>
0

>  <SCORE.SYSTEM>
0

>  <SCORE.SYSTEM.CONST>
0

>  <SCORE.SYSTEM.DIHEDRAL>
0

>  <SCORE.SYSTEM.SOLV>
0

>  <SCORE.SYSTEM.norm>
0

>  <SCORE.heavy>
23

>  <SCORE.norm>
-0.869666

>  <RMSD>
7.460

$$$$
ligand
 OpenBabel02271912143D
libRbt.so/2013.1/901 2013/11/27
 23 25  0  0  0  0  0  0  0  0999 V2000
   20.0227    5.9795   32.2197 P   0  0  1  0  0  0  0  0  0  0  0  0
   20.9150    4.5233   30.2352 C   0  0  0  0  0  0  0  0  0  0  0  0
   21.2154    5.4164   31.2986 O   0  0  0  0  0  0  0  0  0  0  0  0
   22.2297    4.0813   29.6330 C   0  0  1  0  0  0  0  0  0  0  0  0
   22.9921    3.2816   30.5364 O   0  0  0  0  0  0  0  0  0  0  0  0
   21.9547    3.2486   28.3922 C   0  0  1  0  0  0  0  0  0  0  0  0
   22.8079    3.7234   27.3364 O   0  0  0  0  0  0  0  0  0  0  0  0
   22.2788    1.8144   28.7913 C   0  0  0  0  0  0  0  0  0  0  0  0
   23.1792    1.9593   30.0153 C   0  0  2  0  0  0  0  0  0  0  0  0
   24.2535   -2.3455   32.6319 N   0  0  0  0  0  0  0  0  0  0  0  0
   24.9496   -1.7948   31.6241 C   0  0  2  0  0  0  0  0  0  0  0  0
   26.0849   -2.4155   31.2272 N   0  0  0  0  0  0  0  0  0  0  0  0
   24.5332   -0.6498   31.0312 N   0  0  0  0  0  0  0  0  0  0  0  0
   23.4011   -0.0520   31.4562 C   0  0  2  0  0  0  0  0  0  0  0  0
   22.6743   -0.6055   32.4880 C   0  0  1  0  0  0  0  0  0  0  0  0
   23.1239   -1.7695   33.0817 C   0  0  0  0  0  0  0  0  0  0  0  0
   22.4827   -2.2841   34.0233 O   0  0  0  0  0  0  0  0  0  0  0  0
   21.5981    0.1755   32.7075 N   0  0  0  0  0  0  0  0  0  0  0  0
   21.6599    1.1967   31.8347 C   0  0  0  0  0  0  0  0  0  0  0  0
   22.7503    1.0416   31.0759 N   0  0  1  0  0  0  0  0  0  0  0  0
   18.9374    6.4636   31.2891 O   0  0  0  0  0  0  0  0  0  0  0  0
   19.6304    4.7948   33.0723 O   0  5  0  0  0  0  0  0  0  0  0  0
   20.6925    7.0864   32.9881 O   0  0  0  0  0  0  0  0  0  0  0  0
  1  3  1  6  0  0  0
  1 21  1  0  0  0  0
  1 22  1  0  0  0  0
  1 23  2  0  0  0  0
  2  3  1  0  0  0  0
  4  2  1  1  0  0  0
  4  5  1  0  0  0  0
  4  6  1  0  0  0  0
  6  7  1  6  0  0  0
  6  8  1  0  0  0  0
  8  9  1  0  0  0  0
  9  5  1  1  0  0  0
  9 20  1  0  0  0  0
 10 11  1  0  0  0  0
 10 16  1  0  0  0  0
 11 12  1  1  0  0  0
 11 13  1  0  0  0  0
 14 13  1  6  0  0  0
 14 15  1  0  0  0  0
 14 20  1  0  0  0  0
 15 16  1  1  0  0  0
 15 18  1  0  0  0  0
 16 17  2  0  0  0  0
 18 19  1  0  0  0  0
 20 19  1  1  0  0  0
M  CHG  1  22  -1
M  END
>  <CHROM.1>
-48.13366407,66.91989799,-175.33255966,-135.55568237,22.17711795,2.22146026
31.31026194,2.44029960,0.95763427,-0.85675378

>  <Name>
ligand

>  <RI>
416

>  <Rbt.Current_Directory>
/home/itssahil/PROJECTS/Mol_Feturizer/Test_systems_manuscript/rnas/3slm

>  <Rbt.Executable>
rbdock ($Id: //depot/dev/client3/rdock/2013.1/src/exe/rbdock.cxx#4 $)

>  <Rbt.Library>
libRbt.so (2013.1, Build901 2013/11/27)

>  <Rbt.Parameter_File>
/export/apps/rDock/src/rDock_2013.1_src/data/scripts/dock_solv.prm

>  <Rbt.Receptor>
prm/pocket_docking_6.prm

>  <SCORE>
-20.1717

>  <SCORE.INTER>
-14.3469

>  <SCORE.INTER.CONST>
1

>  <SCORE.INTER.POLAR>
0

>  <SCORE.INTER.ROT>
4

>  <SCORE.INTER.SOLV>
17.91

>  <SCORE.INTER.VDW>
-21.8013

>  <SCORE.INTER.norm>
-0.623778

>  <SCORE.INTRA>
-5.82484

>  <SCORE.INTRA.DIHEDRAL>
-6.85716

>  <SCORE.INTRA.DIHEDRAL.0>
8.62657

>  <SCORE.INTRA.POLAR>
0

>  <SCORE.INTRA.POLAR.0>
0

>  <SCORE.INTRA.REPUL>
0

>  <SCORE.INTRA.REPUL.0>
0

>  <SCORE.INTRA.SOLV>
-0.754776

>  <SCORE.INTRA.SOLV.lig_0>
-66.3641

>  <SCORE.INTRA.VDW>
-2.01887

>  <SCORE.INTRA.VDW.0>
0.452231

>  <SCORE.INTRA.norm>
-0.253254

>  <SCORE.RESTR>
0

>  <SCORE.RESTR.CAVITY>
0

>  <SCORE.RESTR.norm>
0

>  <SCORE.SYSTEM>
0

>  <SCORE.SYSTEM.CONST>
0

>  <SCORE.SYSTEM.DIHEDRAL>
0

>  <SCORE.SYSTEM.SOLV>
0

>  <SCORE.SYSTEM.norm>
0

>  <SCORE.heavy>
23

>  <SCORE.norm>
-0.877032

>  <RMSD>
7.466

$$$$
ligand
 OpenBabel02271912143D
libRbt.so/2013.1/901 2013/11/27
 23 25  0  0  0  0  0  0  0  0999 V2000
   20.0059    5.9683   32.2313 P   0  0  1  0  0  0  0  0  0  0  0  0
   20.9644    4.5342   30.2615 C   0  0  0  0  0  0  0  0  0  0  0  0
   21.2299    5.4061   31.3515 O   0  0  0  0  0  0  0  0  0  0  0  0
   22.2982    4.0955   29.7002 C   0  0  1  0  0  0  0  0  0  0  0  0
   23.0243    3.2784   30.6178 O   0  0  0  0  0  0  0  0  0  0  0  0
   22.0649    3.2837   28.4373 C   0  0  1  0  0  0  0  0  0  0  0  0
   22.9576    3.7710   27.4206 O   0  0  0  0  0  0  0  0  0  0  0  0
   22.3686    1.8420   28.8252 C   0  0  0  0  0  0  0  0  0  0  0  0
   23.2248    1.9635   30.0829 C   0  0  2  0  0  0  0  0  0  0  0  0
   24.1743   -2.3995   32.6510 N   0  0  0  0  0  0  0  0  0  0  0  0
   24.9066   -1.8380   31.6752 C   0  0  2  0  0  0  0  0  0  0  0  0
   26.0472   -2.4635   31.3018 N   0  0  0  0  0  0  0  0  0  0  0  0
   24.5203   -0.6780   31.0912 N   0  0  0  0  0  0  0  0  0  0  0  0
   23.3818   -0.0759   31.4925 C   0  0  2  0  0  0  0  0  0  0  0  0
   22.6180   -0.6403   32.4911 C   0  0  1  0  0  0  0  0  0  0  0  0
   23.0373   -1.8197   33.0766 C   0  0  0  0  0  0  0  0  0  0  0  0
   22.3622   -2.3444   33.9884 O   0  0  0  0  0  0  0  0  0  0  0  0
   21.5436    0.1481   32.6920 N   0  0  0  0  0  0  0  0  0  0  0  0
   21.6426    1.1842   31.8406 C   0  0  0  0  0  0  0  0  0  0  0  0
   22.7541    1.0313   31.1127 N   0  0  1  0  0  0  0  0  0  0  0  0
   18.9567    6.4600   31.2641 O   0  0  0  0  0  0  0  0  0  0  0  0
   19.5796    4.7806   33.0631 O   0  5  0  0  0  0  0  0  0  0  0  0
   20.6504    7.0695   33.0290 O   0  0  0  0  0  0  0  0  0  0  0  0
  1  3  1  6  0  0  0
  1 21  1  0  0  0  0
  1 22  1  0  0  0  0
  1 23  2  0  0  0  0
  2  3  1  0  0  0  0
  4  2  1  1  0  0  0
  4  5  1  0  0  0  0
  4  6  1  0  0  0  0
  6  7  1  6  0  0  0
  6  8  1  0  0  0  0
  8  9  1  0  0  0  0
  9  5  1  1  0  0  0
  9 20  1  0  0  0  0
 10 11  1  0  0  0  0
 10 16  1  0  0  0  0
 11 12  1  1  0  0  0
 11 13  1  0  0  0  0
 14 13  1  6  0  0  0
 14 15  1  0  0  0  0
 14 20  1  0  0  0  0
 15 16  1  1  0  0  0
 15 18  1  0  0  0  0
 16 17  2  0  0  0  0
 18 19  1  0  0  0  0
 20 19  1  1  0  0  0
M  CHG  1  22  -1
M  END
>  <CHROM.1>
-47.23962998,66.75788930,-175.79735996,-136.04718165,22.17471973,2.20847916
31.34007351,2.38811406,0.93763127,-0.79688851

>  <Name>
ligand

>  <RI>
416

>  <Rbt.Current_Directory>
/home/itssahil/PROJECTS/Mol_Feturizer/Test_systems_manuscript/rnas/3slm

>  <Rbt.Executable>
rbdock ($Id: //depot/dev/client3/rdock/2013.1/src/exe/rbdock.cxx#4 $)

>  <Rbt.Library>
libRbt.so (2013.1, Build901 2013/11/27)

>  <Rbt.Parameter_File>
/export/apps/rDock/src/rDock_2013.1_src/data/scripts/dock_solv.prm

>  <Rbt.Receptor>
prm/pocket_docking_6.prm

>  <SCORE>
-20.1337

>  <SCORE.INTER>
-14.3157

>  <SCORE.INTER.CONST>
1

>  <SCORE.INTER.POLAR>
0

>  <SCORE.INTER.ROT>
4

>  <SCORE.INTER.SOLV>
18.1563

>  <SCORE.INTER.VDW>
-21.8625

>  <SCORE.INTER.norm>
-0.622421

>  <SCORE.INTRA>
-5.81807

>  <SCORE.INTRA.DIHEDRAL>
-6.84926

>  <SCORE.INTRA.DIHEDRAL.0>
8.62657

>  <SCORE.INTRA.POLAR>
0

>  <SCORE.INTRA.POLAR.0>
0

>  <SCORE.INTRA.REPUL>
0

>  <SCORE.INTRA.REPUL.0>
0

>  <SCORE.INTRA.SOLV>
-0.764659

>  <SCORE.INTRA.SOLV.lig_0>
-66.3641

>  <SCORE.INTRA.VDW>
-2.01111

>  <SCORE.INTRA.VDW.0>
0.452231

>  <SCORE.INTRA.norm>
-0.252959

>  <SCORE.RESTR>
0

>  <SCORE.RESTR.CAVITY>
0

>  <SCORE.RESTR.norm>
0

>  <SCORE.SYSTEM>
0

>  <SCORE.SYSTEM.CONST>
0

>  <SCORE.SYSTEM.DIHEDRAL>
0

>  <SCORE.SYSTEM.SOLV>
0

>  <SCORE.SYSTEM.norm>
0

>  <SCORE.heavy>
23

>  <SCORE.norm>
-0.87538

>  <RMSD>
7.470

$$$$
ligand
 OpenBabel02271912143D
libRbt.so/2013.1/901 2013/11/27
 23 25  0  0  0  0  0  0  0  0999 V2000
   22.0195    2.3357   27.4055 P   0  0  1  0  0  0  0  0  0  0  0  0
   20.4798    2.7923   29.4733 C   0  0  0  0  0  0  0  0  0  0  0  0
   21.6810    2.2208   28.9741 O   0  0  0  0  0  0  0  0  0  0  0  0
   20.5174    2.6748   30.9804 C   0  0  1  0  0  0  0  0  0  0  0  0
   20.9710    1.3908   31.4077 O   0  0  0  0  0  0  0  0  0  0  0  0
   21.4735    3.7158   31.5379 C   0  0  1  0  0  0  0  0  0  0  0  0
   20.8212    4.3817   32.6330 O   0  0  0  0  0  0  0  0  0  0  0  0
   22.6998    2.9330   31.9902 C   0  0  0  0  0  0  0  0  0  0  0  0
   22.1955    1.5007   32.1451 C   0  0  2  0  0  0  0  0  0  0  0  0
   24.5285   -3.0776   32.5039 N   0  0  0  0  0  0  0  0  0  0  0  0
   23.6761   -2.5131   33.3749 C   0  0  2  0  0  0  0  0  0  0  0  0
   23.3608   -3.2095   34.4917 N   0  0  0  0  0  0  0  0  0  0  0  0
   23.1425   -1.2905   33.1375 N   0  0  0  0  0  0  0  0  0  0  0  0
   23.4717   -0.6262   32.0106 C   0  0  2  0  0  0  0  0  0  0  0  0
   24.3465   -1.1908   31.1077 C   0  0  1  0  0  0  0  0  0  0  0  0
   24.8712   -2.4423   31.3685 C   0  0  0  0  0  0  0  0  0  0  0  0
   25.6612   -2.9746   30.5592 O   0  0  0  0  0  0  0  0  0  0  0  0
   24.5091   -0.3265   30.0865 N   0  0  0  0  0  0  0  0  0  0  0  0
   23.7453    0.7491   30.3469 C   0  0  0  0  0  0  0  0  0  0  0  0
   23.1306    0.5599   31.5196 N   0  0  1  0  0  0  0  0  0  0  0  0
   22.3173    3.7883   27.1236 O   0  0  0  0  0  0  0  0  0  0  0  0
   23.1992    1.4096   27.2187 O   0  5  0  0  0  0  0  0  0  0  0  0
   20.7531    1.8456   26.7570 O   0  0  0  0  0  0  0  0  0  0  0  0
  1  3  1  1  0  0  0
  1 21  1  0  0  0  0
  1 22  1  0  0  0  0
  1 23  2  0  0  0  0
  2  3  1  0  0  0  0
  4  2  1  6  0  0  0
  4  5  1  0  0  0  0
  4  6  1  0  0  0  0
  6  7  1  1  0  0  0
  6  8  1  0  0  0  0
  8  9  1  0  0  0  0
  9  5  1  6  0  0  0
  9 20  1  0  0  0  0
 10 11  1  0  0  0  0
 10 16  1  0  0  0  0
 11 12  1  6  0  0  0
 11 13  1  0  0  0  0
 14 13  1  1  0  0  0
 14 15  1  0  0  0  0
 14 20  1  0  0  0  0
 15 16  1  6  0  0  0
 15 18  1  0  0  0  0
 16 17  2  0  0  0  0
 18 19  1  0  0  0  0
 20 19  1  6  0  0  0
M  CHG  1  22  -1
M  END
>  <CHROM.1>
68.99681226,-43.88833432,-173.32436626,-103.36488649,22.67864272,0.80302557
30.52524402,-2.33660324,-0.98700993,1.82387284

>  <Name>
ligand

>  <RI>
0

>  <Rbt.Current_Directory>
/home/itssahil/PROJECTS/Mol_Feturizer/Test_systems_manuscript/rnas/3slm

>  <Rbt.Executable>
rbdock ($Id: //depot/dev/client3/rdock/2013.1/src/exe/rbdock.cxx#4 $)

>  <Rbt.Library>
libRbt.so (2013.1, Build901 2013/11/27)

>  <Rbt.Parameter_File>
/export/apps/rDock/src/rDock_2013.1_src/data/scripts/dock_solv.prm

>  <Rbt.Receptor>
prm/blind_docking_80.prm

>  <SCORE>
-17.2448

>  <SCORE.INTER>
-11.9573

>  <SCORE.INTER.CONST>
1

>  <SCORE.INTER.POLAR>
0

>  <SCORE.INTER.ROT>
4

>  <SCORE.INTER.SOLV>
16.0189

>  <SCORE.INTER.VDW>
-19.5778

>  <SCORE.INTER.norm>
-0.519883

>  <SCORE.INTRA>
-5.28749

>  <SCORE.INTRA.DIHEDRAL>
-6.21677

>  <SCORE.INTRA.DIHEDRAL.0>
8.62657

>  <SCORE.INTRA.POLAR>
0

>  <SCORE.INTRA.POLAR.0>
0

>  <SCORE.INTRA.REPUL>
0

>  <SCORE.INTRA.REPUL.0>
0

>  <SCORE.INTRA.SOLV>
0.279633

>  <SCORE.INTRA.SOLV.lig_0>
-66.3641

>  <SCORE.INTRA.VDW>
-2.31892

>  <SCORE.INTRA.VDW.0>
0.452231

>  <SCORE.INTRA.norm>
-0.229891

>  <SCORE.RESTR>
0

>  <SCORE.RESTR.CAVITY>
0

>  <SCORE.RESTR.norm>
0

>  <SCORE.SYSTEM>
0

>  <SCORE.SYSTEM.CONST>
0

>  <SCORE.SYSTEM.DIHEDRAL>
0

>  <SCORE.SYSTEM.SOLV>
0

>  <SCORE.SYSTEM.norm>
0

>  <SCORE.heavy>
23

>  <SCORE.norm>
-0.749774

>  <RMSD>
7.473

$$$$
ligand
 OpenBabel02271912143D
libRbt.so/2013.1/901 2013/11/27
 23 25  0  0  0  0  0  0  0  0999 V2000
   22.1817    2.2956   27.4273 P   0  0  1  0  0  0  0  0  0  0  0  0
   20.6198    2.8120   29.4643 C   0  0  0  0  0  0  0  0  0  0  0  0
   21.8097    2.1976   28.9895 O   0  0  0  0  0  0  0  0  0  0  0  0
   20.5981    2.6502   30.9675 C   0  0  1  0  0  0  0  0  0  0  0  0
   21.0316    1.3527   31.3742 O   0  0  0  0  0  0  0  0  0  0  0  0
   21.5341    3.6711   31.5924 C   0  0  1  0  0  0  0  0  0  0  0  0
   20.8410    4.3068   32.6803 O   0  0  0  0  0  0  0  0  0  0  0  0
   22.7399    2.8711   32.0690 C   0  0  0  0  0  0  0  0  0  0  0  0
   22.2266    1.4367   32.1618 C   0  0  2  0  0  0  0  0  0  0  0  0
   24.6143   -3.1122   32.5336 N   0  0  0  0  0  0  0  0  0  0  0  0
   23.7417   -2.5634   33.3944 C   0  0  2  0  0  0  0  0  0  0  0  0
   23.4190   -3.2694   34.5030 N   0  0  0  0  0  0  0  0  0  0  0  0
   23.1955   -1.3467   33.1549 N   0  0  0  0  0  0  0  0  0  0  0  0
   23.5327   -0.6726   32.0362 C   0  0  2  0  0  0  0  0  0  0  0  0
   24.4282   -1.2211   31.1438 C   0  0  1  0  0  0  0  0  0  0  0  0
   24.9655   -2.4669   31.4065 C   0  0  0  0  0  0  0  0  0  0  0  0
   25.7745   -2.9847   30.6066 O   0  0  0  0  0  0  0  0  0  0  0  0
   24.5946   -0.3497   30.1293 N   0  0  0  0  0  0  0  0  0  0  0  0
   23.8128    0.7145   30.3834 C   0  0  0  0  0  0  0  0  0  0  0  0
   23.1833    0.5113   31.5459 N   0  0  1  0  0  0  0  0  0  0  0  0
   23.2668    1.2792   27.1676 O   0  0  0  0  0  0  0  0  0  0  0  0
   20.8758    2.0074   26.7232 O   0  5  0  0  0  0  0  0  0  0  0  0
   22.6469    3.7198   27.2869 O   0  0  0  0  0  0  0  0  0  0  0  0
  1  3  1  1  0  0  0
  1 21  1  0  0  0  0
  1 22  1  0  0  0  0
  1 23  2  0  0  0  0
  2  3  1  0  0  0  0
  4  2  1  6  0  0  0
  4  5  1  0  0  0  0
  4  6  1  0  0  0  0
  6  7  1  1  0  0  0
  6  8  1  0  0  0  0
  8  9  1  0  0  0  0
  9  5  1  6  0  0  0
  9 20  1  0  0  0  0
 10 11  1  0  0  0  0
 10 16  1  0  0  0  0
 11 12  1  6  0  0  0
 11 13  1  0  0  0  0
 14 13  1  1  0  0  0
 14 15  1  0  0  0  0
 14 20  1  0  0  0  0
 15 16  1  6  0  0  0
 15 18  1  0  0  0  0
 16 17  2  0  0  0  0
 18 19  1  0  0  0  0
 20 19  1  6  0  0  0
M  CHG  1  22  -1
M  END
>  <CHROM.1>
-165.74584645,-41.30813240,-175.50768045,-105.54218930,22.77389638,0.76816585
30.55037024,-2.30609972,-0.97782694,1.85679724

>  <Name>
ligand

>  <RI>
416

>  <Rbt.Current_Directory>
/home/itssahil/PROJECTS/Mol_Feturizer/Test_systems_manuscript/rnas/3slm

>  <Rbt.Executable>
rbdock ($Id: //depot/dev/client3/rdock/2013.1/src/exe/rbdock.cxx#4 $)

>  <Rbt.Library>
libRbt.so (2013.1, Build901 2013/11/27)

>  <Rbt.Parameter_File>
/export/apps/rDock/src/rDock_2013.1_src/data/scripts/dock_solv.prm

>  <Rbt.Receptor>
prm/pocket_docking_5.prm

>  <SCORE>
-17.3909

>  <SCORE.INTER>
-12.4482

>  <SCORE.INTER.CONST>
1

>  <SCORE.INTER.POLAR>
0

>  <SCORE.INTER.ROT>
4

>  <SCORE.INTER.SOLV>
15.9826

>  <SCORE.INTER.VDW>
-19.893

>  <SCORE.INTER.norm>
-0.541225

>  <SCORE.INTRA>
-4.94269

>  <SCORE.INTRA.DIHEDRAL>
-5.85306

>  <SCORE.INTRA.DIHEDRAL.0>
8.62657

>  <SCORE.INTRA.POLAR>
0

>  <SCORE.INTRA.POLAR.0>
0

>  <SCORE.INTRA.REPUL>
0

>  <SCORE.INTRA.REPUL.0>
0

>  <SCORE.INTRA.SOLV>
0.393518

>  <SCORE.INTRA.SOLV.lig_0>
-66.3641

>  <SCORE.INTRA.VDW>
-2.21292

>  <SCORE.INTRA.VDW.0>
0.452231

>  <SCORE.INTRA.norm>
-0.214899

>  <SCORE.RESTR>
0

>  <SCORE.RESTR.CAVITY>
0

>  <SCORE.RESTR.norm>
0

>  <SCORE.SYSTEM>
0

>  <SCORE.SYSTEM.CONST>
0

>  <SCORE.SYSTEM.DIHEDRAL>
0

>  <SCORE.SYSTEM.SOLV>
0

>  <SCORE.SYSTEM.norm>
0

>  <SCORE.heavy>
23

>  <SCORE.norm>
-0.756124

>  <RMSD>
7.518

$$$$
ligand
 OpenBabel02271912143D
libRbt.so/2013.1/901 2013/11/27
 23 25  0  0  0  0  0  0  0  0999 V2000
   22.1964    4.2215   28.8226 P   0  0  1  0  0  0  0  0  0  0  0  0
   23.1705    2.0477   27.7359 C   0  0  0  0  0  0  0  0  0  0  0  0
   23.1483    3.4680   27.7670 O   0  0  0  0  0  0  0  0  0  0  0  0
   24.4132    1.6002   28.4720 C   0  0  1  0  0  0  0  0  0  0  0  0
   24.2433    1.6440   29.8884 O   0  0  0  0  0  0  0  0  0  0  0  0
   24.7325    0.1660   28.0853 C   0  0  1  0  0  0  0  0  0  0  0  0
   26.1342    0.0879   27.7737 O   0  0  0  0  0  0  0  0  0  0  0  0
   24.3681   -0.6694   29.3062 C   0  0  0  0  0  0  0  0  0  0  0  0
   24.3552    0.3328   30.4573 C   0  0  2  0  0  0  0  0  0  0  0  0
   22.0681   -2.5256   34.0809 N   0  0  0  0  0  0  0  0  0  0  0  0
   23.2744   -2.7109   33.5204 C   0  0  2  0  0  0  0  0  0  0  0  0
   24.0124   -3.7636   33.9432 N   0  0  0  0  0  0  0  0  0  0  0  0
   23.7405   -1.8653   32.5698 N   0  0  0  0  0  0  0  0  0  0  0  0
   22.9827   -0.8208   32.1766 C   0  0  2  0  0  0  0  0  0  0  0  0
   21.7417   -0.6179   32.7405 C   0  0  1  0  0  0  0  0  0  0  0  0
   21.2920   -1.4898   33.7138 C   0  0  0  0  0  0  0  0  0  0  0  0
   20.1721   -1.3195   34.2423 O   0  0  0  0  0  0  0  0  0  0  0  0
   21.1975    0.4758   32.1714 N   0  0  0  0  0  0  0  0  0  0  0  0
   22.0857    0.9460   31.2779 C   0  0  0  0  0  0  0  0  0  0  0  0
   23.1576    0.1462   31.2830 N   0  0  1  0  0  0  0  0  0  0  0  0
   22.3648    5.7032   28.5891 O   0  0  0  0  0  0  0  0  0  0  0  0
   20.8153    3.6938   28.5089 O   0  5  0  0  0  0  0  0  0  0  0  0
   22.7385    3.7570   30.1472 O   0  0  0  0  0  0  0  0  0  0  0  0
  1  3  1  6  0  0  0
  1 21  1  0  0  0  0
  1 22  1  0  0  0  0
  1 23  2  0  0  0  0
  2  3  1  0  0  0  0
  4  2  1  6  0  0  0
  4  5  1  0  0  0  0
  4  6  1  0  0  0  0
  6  7  1  1  0  0  0
  6  8  1  0  0  0  0
  8  9  1  0  0  0  0
  9  5  1  6  0  0  0
  9 20  1  0  0  0  0
 10 11  1  0  0  0  0
 10 16  1  0  0  0  0
 11 12  1  1  0  0  0
 11 13  1  0  0  0  0
 14 13  1  6  0  0  0
 14 15  1  0  0  0  0
 14 20  1  0  0  0  0
 15 16  1  1  0  0  0
 15 18  1  0  0  0  0
 16 17  2  0  0  0  0
 18 19  1  0  0  0  0
 20 19  1  1  0  0  0
M  CHG  1  22  -1
M  END
>  <CHROM.1>
-178.55615592,79.16262996,-101.02654520,-166.71853896,22.93559427,0.84688255
30.56415200,1.50161287,0.66972216,-0.68337668

>  <Name>
ligand

>  <RI>
0

>  <Rbt.Current_Directory>
/home/itssahil/PROJECTS/Mol_Feturizer/Test_systems_manuscript/rnas/3slm

>  <Rbt.Executable>
rbdock ($Id: //depot/dev/client3/rdock/2013.1/src/exe/rbdock.cxx#4 $)

>  <Rbt.Library>
libRbt.so (2013.1, Build901 2013/11/27)

>  <Rbt.Parameter_File>
/export/apps/rDock/src/rDock_2013.1_src/data/scripts/dock_solv.prm

>  <Rbt.Receptor>
prm/pocket_docking_8.prm

>  <SCORE>
-16.7867

>  <SCORE.INTER>
-15.6723

>  <SCORE.INTER.CONST>
1

>  <SCORE.INTER.POLAR>
0

>  <SCORE.INTER.ROT>
4

>  <SCORE.INTER.SOLV>
13.0845

>  <SCORE.INTER.VDW>
-21.0764

>  <SCORE.INTER.norm>
-0.681404

>  <SCORE.INTRA>
-1.1144

>  <SCORE.INTRA.DIHEDRAL>
-0.594915

>  <SCORE.INTRA.DIHEDRAL.0>
8.62657

>  <SCORE.INTRA.POLAR>
0

>  <SCORE.INTRA.POLAR.0>
0

>  <SCORE.INTRA.REPUL>
0

>  <SCORE.INTRA.REPUL.0>
0

>  <SCORE.INTRA.SOLV>
2.92634

>  <SCORE.INTRA.SOLV.lig_0>
-66.3641

>  <SCORE.INTRA.VDW>
-2.28011

>  <SCORE.INTRA.VDW.0>
0.452231

>  <SCORE.INTRA.norm>
-0.0484521

>  <SCORE.RESTR>
0

>  <SCORE.RESTR.CAVITY>
0

>  <SCORE.RESTR.norm>
0

>  <SCORE.SYSTEM>
0

>  <SCORE.SYSTEM.CONST>
0

>  <SCORE.SYSTEM.DIHEDRAL>
0

>  <SCORE.SYSTEM.SOLV>
0

>  <SCORE.SYSTEM.norm>
0

>  <SCORE.heavy>
23

>  <SCORE.norm>
-0.729856

>  <RMSD>
7.522

$$$$
ligand
 OpenBabel02271912143D
libRbt.so/2013.1/901 2013/11/27
 23 25  0  0  0  0  0  0  0  0999 V2000
   19.3999    5.0862   32.3593 P   0  0  1  0  0  0  0  0  0  0  0  0
   21.5209    3.6742   31.7569 C   0  0  0  0  0  0  0  0  0  0  0  0
   20.6892    4.7834   31.4459 O   0  0  0  0  0  0  0  0  0  0  0  0
   22.6842    3.6985   30.7911 C   0  0  1  0  0  0  0  0  0  0  0  0
   23.7229    2.8000   31.1791 O   0  0  0  0  0  0  0  0  0  0  0  0
   22.1973    3.2809   29.4138 C   0  0  1  0  0  0  0  0  0  0  0  0
   22.7110    4.2202   28.4536 O   0  0  0  0  0  0  0  0  0  0  0  0
   22.7535    1.8787   29.1996 C   0  0  0  0  0  0  0  0  0  0  0  0
   23.9087    1.7769   30.1921 C   0  0  2  0  0  0  0  0  0  0  0  0
   25.9372   -2.9276   30.7258 N   0  0  0  0  0  0  0  0  0  0  0  0
   26.2899   -1.9688   29.8540 C   0  0  2  0  0  0  0  0  0  0  0  0
   27.3072   -2.2334   29.0015 N   0  0  0  0  0  0  0  0  0  0  0  0
   25.6537   -0.7727   29.8358 N   0  0  0  0  0  0  0  0  0  0  0  0
   24.6486   -0.5384   30.7045 C   0  0  2  0  0  0  0  0  0  0  0  0
   24.2733   -1.5125   31.6042 C   0  0  1  0  0  0  0  0  0  0  0  0
   24.9428   -2.7215   31.6083 C   0  0  0  0  0  0  0  0  0  0  0  0
   24.6220   -3.6157   32.4207 O   0  0  0  0  0  0  0  0  0  0  0  0
   23.2532   -1.0304   32.3413 N   0  0  0  0  0  0  0  0  0  0  0  0
   23.0056    0.2199   31.9126 C   0  0  0  0  0  0  0  0  0  0  0  0
   23.8500    0.5019   30.9145 N   0  0  1  0  0  0  0  0  0  0  0  0
   18.5241    3.8581   32.3074 O   0  0  0  0  0  0  0  0  0  0  0  0
   19.9809    5.3807   33.7231 O   0  5  0  0  0  0  0  0  0  0  0  0
   18.7917    6.2864   31.6855 O   0  0  0  0  0  0  0  0  0  0  0  0
  1  3  1  6  0  0  0
  1 21  1  0  0  0  0
  1 22  1  0  0  0  0
  1 23  2  0  0  0  0
  2  3  1  0  0  0  0
  4  2  1  1  0  0  0
  4  5  1  0  0  0  0
  4  6  1  0  0  0  0
  6  7  1  6  0  0  0
  6  8  1  0  0  0  0
  8  9  1  0  0  0  0
  9  5  1  1  0  0  0
  9 20  1  0  0  0  0
 10 11  1  0  0  0  0
 10 16  1  0  0  0  0
 11 12  1  1  0  0  0
 11 13  1  0  0  0  0
 14 13  1  6  0  0  0
 14 15  1  0  0  0  0
 14 20  1  0  0  0  0
 15 16  1  1  0  0  0
 15 18  1  0  0  0  0
 16 17  2  0  0  0  0
 18 19  1  0  0  0  0
 20 19  1  1  0  0  0
M  CHG  1  22  -1
M  END
>  <CHROM.1>
-58.76641773,167.94265008,-176.43931741,-138.37999673,22.77168165,1.64620162
31.11372323,2.57138899,0.75324555,-0.65065537

>  <Name>
ligand

>  <RI>
0

>  <Rbt.Current_Directory>
/home/itssahil/PROJECTS/Mol_Feturizer/Test_systems_manuscript/rnas/3slm

>  <Rbt.Executable>
rbdock ($Id: //depot/dev/client3/rdock/2013.1/src/exe/rbdock.cxx#4 $)

>  <Rbt.Library>
libRbt.so (2013.1, Build901 2013/11/27)

>  <Rbt.Parameter_File>
/export/apps/rDock/src/rDock_2013.1_src/data/scripts/dock_solv.prm

>  <Rbt.Receptor>
prm/blind_docking_60.prm

>  <SCORE>
-19.7311

>  <SCORE.INTER>
-14.221

>  <SCORE.INTER.CONST>
1

>  <SCORE.INTER.POLAR>
0

>  <SCORE.INTER.ROT>
4

>  <SCORE.INTER.SOLV>
20.4668

>  <SCORE.INTER.VDW>
-22.5696

>  <SCORE.INTER.norm>
-0.618306

>  <SCORE.INTRA>
-5.52576

>  <SCORE.INTRA.DIHEDRAL>
-6.80148

>  <SCORE.INTRA.DIHEDRAL.0>
8.62657

>  <SCORE.INTRA.POLAR>
0

>  <SCORE.INTRA.POLAR.0>
0

>  <SCORE.INTRA.REPUL>
0

>  <SCORE.INTRA.REPUL.0>
0

>  <SCORE.INTRA.SOLV>
-0.580982

>  <SCORE.INTRA.SOLV.lig_0>
-66.3641

>  <SCORE.INTRA.VDW>
-1.83453

>  <SCORE.INTRA.VDW.0>
0.452231

>  <SCORE.INTRA.norm>
-0.240251

>  <SCORE.RESTR>
0.0156553

>  <SCORE.RESTR.CAVITY>
0.0156553

>  <SCORE.RESTR.norm>
0.000680665

>  <SCORE.SYSTEM>
0

>  <SCORE.SYSTEM.CONST>
0

>  <SCORE.SYSTEM.DIHEDRAL>
0

>  <SCORE.SYSTEM.SOLV>
0

>  <SCORE.SYSTEM.norm>
0

>  <SCORE.heavy>
23

>  <SCORE.norm>
-0.857876

>  <RMSD>
7.527

$$$$
ligand
 OpenBabel02271912143D
libRbt.so/2013.1/901 2013/11/27
 23 25  0  0  0  0  0  0  0  0999 V2000
   20.0434    6.2189   32.0931 P   0  0  1  0  0  0  0  0  0  0  0  0
   20.4012    3.9849   30.7754 C   0  0  0  0  0  0  0  0  0  0  0  0
   20.0975    4.6130   32.0131 O   0  0  0  0  0  0  0  0  0  0  0  0
   21.8764    4.1915   30.5154 C   0  0  1  0  0  0  0  0  0  0  0  0
   22.6899    3.5372   31.4885 O   0  0  0  0  0  0  0  0  0  0  0  0
   22.2276    3.6178   29.1530 C   0  0  1  0  0  0  0  0  0  0  0  0
   23.0159    4.5916   28.4470 O   0  0  0  0  0  0  0  0  0  0  0  0
   23.0128    2.3450   29.4438 C   0  0  0  0  0  0  0  0  0  0  0  0
   23.5002    2.5236   30.8792 C   0  0  2  0  0  0  0  0  0  0  0  0
   24.8303   -2.4026   31.5830 N   0  0  0  0  0  0  0  0  0  0  0  0
   25.3051   -1.5400   30.6697 C   0  0  2  0  0  0  0  0  0  0  0  0
   26.2597   -1.9831   29.8187 N   0  0  0  0  0  0  0  0  0  0  0  0
   24.8497   -0.2654   30.6093 N   0  0  0  0  0  0  0  0  0  0  0  0
   23.9031    0.1466   31.4776 C   0  0  2  0  0  0  0  0  0  0  0  0
   23.4040   -0.7267   32.4196 C   0  0  1  0  0  0  0  0  0  0  0  0
   23.8903   -2.0194   32.4661 C   0  0  0  0  0  0  0  0  0  0  0  0
   23.4555   -2.8251   33.3171 O   0  0  0  0  0  0  0  0  0  0  0  0
   22.4766   -0.0727   33.1465 N   0  0  0  0  0  0  0  0  0  0  0  0
   22.4070    1.1829   32.6701 C   0  0  0  0  0  0  0  0  0  0  0  0
   23.2678    1.2998   31.6532 N   0  0  1  0  0  0  0  0  0  0  0  0
   21.3825    6.7295   31.6195 O   0  0  0  0  0  0  0  0  0  0  0  0
   18.8829    6.5893   31.1986 O   0  5  0  0  0  0  0  0  0  0  0  0
   19.7884    6.4689   33.5549 O   0  0  0  0  0  0  0  0  0  0  0  0
  1  3  1  6  0  0  0
  1 21  1  0  0  0  0
  1 22  1  0  0  0  0
  1 23  2  0  0  0  0
  2  3  1  0  0  0  0
  4  2  1  1  0  0  0
  4  5  1  0  0  0  0
  4  6  1  0  0  0  0
  6  7  1  6  0  0  0
  6  8  1  0  0  0  0
  8  9  1  0  0  0  0
  9  5  1  1  0  0  0
  9 20  1  0  0  0  0
 10 11  1  0  0  0  0
 10 16  1  0  0  0  0
 11 12  1  1  0  0  0
 11 13  1  0  0  0  0
 14 13  1  6  0  0  0
 14 15  1  0  0  0  0
 14 20  1  0  0  0  0
 15 16  1  1  0  0  0
 15 18  1  0  0  0  0
 16 17  2  0  0  0  0
 18 19  1  0  0  0  0
 20 19  1  1  0  0  0
M  CHG  1  22  -1
M  END
>  <CHROM.1>
-56.69591280,64.44089694,73.10160559,-174.83907321,22.43428432,2.37447269
31.39104845,2.41459521,0.86122351,-0.70161148

>  <Name>
ligand

>  <RI>
0

>  <Rbt.Current_Directory>
/home/itssahil/PROJECTS/Mol_Feturizer/Test_systems_manuscript/rnas/3slm

>  <Rbt.Executable>
rbdock ($Id: //depot/dev/client3/rdock/2013.1/src/exe/rbdock.cxx#4 $)

>  <Rbt.Library>
libRbt.so (2013.1, Build901 2013/11/27)

>  <Rbt.Parameter_File>
/export/apps/rDock/src/rDock_2013.1_src/data/scripts/dock_solv.prm

>  <Rbt.Receptor>
prm/pocket_docking_7.prm

>  <SCORE>
-20.3235

>  <SCORE.INTER>
-15.6692

>  <SCORE.INTER.CONST>
1

>  <SCORE.INTER.POLAR>
0

>  <SCORE.INTER.ROT>
4

>  <SCORE.INTER.SOLV>
16.8292

>  <SCORE.INTER.VDW>
-22.3225

>  <SCORE.INTER.norm>
-0.681271

>  <SCORE.INTRA>
-4.65428

>  <SCORE.INTRA.DIHEDRAL>
-6.50204

>  <SCORE.INTRA.DIHEDRAL.0>
8.62657

>  <SCORE.INTRA.POLAR>
0

>  <SCORE.INTRA.POLAR.0>
0

>  <SCORE.INTRA.REPUL>
0

>  <SCORE.INTRA.REPUL.0>
0

>  <SCORE.INTRA.SOLV>
0.30179

>  <SCORE.INTRA.SOLV.lig_0>
-66.3641

>  <SCORE.INTRA.VDW>
-1.55416

>  <SCORE.INTRA.VDW.0>
0.452231

>  <SCORE.INTRA.norm>
-0.20236

>  <SCORE.RESTR>
0

>  <SCORE.RESTR.CAVITY>
0

>  <SCORE.RESTR.norm>
0

>  <SCORE.SYSTEM>
0

>  <SCORE.SYSTEM.CONST>
0

>  <SCORE.SYSTEM.DIHEDRAL>
0

>  <SCORE.SYSTEM.SOLV>
0

>  <SCORE.SYSTEM.norm>
0

>  <SCORE.heavy>
23

>  <SCORE.norm>
-0.883631

>  <RMSD>
7.531

$$$$
ligand
 OpenBabel02271912143D
libRbt.so/2013.1/901 2013/11/27
 23 25  0  0  0  0  0  0  0  0999 V2000
   20.0669    4.5309   32.2680 P   0  0  1  0  0  0  0  0  0  0  0  0
   21.3420    2.4537   31.3116 C   0  0  0  0  0  0  0  0  0  0  0  0
   21.3088    3.5082   32.2633 O   0  0  0  0  0  0  0  0  0  0  0  0
   22.7954    2.1589   31.0162 C   0  0  1  0  0  0  0  0  0  0  0  0
   23.4193    1.4255   32.0697 O   0  0  0  0  0  0  0  0  0  0  0  0
   22.8874    1.3245   29.7498 C   0  0  1  0  0  0  0  0  0  0  0  0
   23.8979    1.9026   28.9054 O   0  0  0  0  0  0  0  0  0  0  0  0
   23.2626   -0.0759   30.2182 C   0  0  0  0  0  0  0  0  0  0  0  0
   23.8522    0.1386   31.6097 C   0  0  2  0  0  0  0  0  0  0  0  0
   19.5971   -1.6605   33.8876 N   0  0  0  0  0  0  0  0  0  0  0  0
   19.7017   -0.6455   33.0145 C   0  0  2  0  0  0  0  0  0  0  0  0
   18.5673    0.0011   32.6587 N   0  0  0  0  0  0  0  0  0  0  0  0
   20.9029   -0.2876   32.4998 N   0  0  0  0  0  0  0  0  0  0  0  0
   22.0135   -0.9582   32.8694 C   0  0  2  0  0  0  0  0  0  0  0  0
   21.9234   -2.0009   33.7660 C   0  0  1  0  0  0  0  0  0  0  0  0
   20.6858   -2.3519   34.2708 C   0  0  0  0  0  0  0  0  0  0  0  0
   20.5818   -3.2988   35.0801 O   0  0  0  0  0  0  0  0  0  0  0  0
   23.1640   -2.4873   33.9678 N   0  0  0  0  0  0  0  0  0  0  0  0
   24.0055   -1.7658   33.2065 C   0  0  0  0  0  0  0  0  0  0  0  0
   23.2982   -0.8366   32.5546 N   0  0  1  0  0  0  0  0  0  0  0  0
   18.8088    3.6973   32.2470 O   0  0  0  0  0  0  0  0  0  0  0  0
   20.2616    5.3344   33.5331 O   0  5  0  0  0  0  0  0  0  0  0  0
   20.2846    5.3213   31.0061 O   0  0  0  0  0  0  0  0  0  0  0  0
  1  3  1  1  0  0  0
  1 21  1  0  0  0  0
  1 22  1  0  0  0  0
  1 23  2  0  0  0  0
  2  3  1  0  0  0  0
  4  2  1  1  0  0  0
  4  5  1  0  0  0  0
  4  6  1  0  0  0  0
  6  7  1  6  0  0  0
  6  8  1  0  0  0  0
  8  9  1  0  0  0  0
  9  5  1  1  0  0  0
  9 20  1  0  0  0  0
 10 11  1  0  0  0  0
 10 16  1  0  0  0  0
 11 12  1  6  0  0  0
 11 13  1  0  0  0  0
 14 13  1  1  0  0  0
 14 15  1  0  0  0  0
 14 20  1  0  0  0  0
 15 16  1  6  0  0  0
 15 18  1  0  0  0  0
 16 17  2  0  0  0  0
 18 19  1  0  0  0  0
 20 19  1  6  0  0  0
M  CHG  1  22  -1
M  END
>  <CHROM.1>
49.25748681,75.93603176,150.01389328,55.32925532,21.48542880,1.00099696,32.31673380
1.79116046,0.57331368,-0.40183466

>  <Name>
ligand

>  <RI>
0

>  <Rbt.Current_Directory>
/home/itssahil/PROJECTS/Mol_Feturizer/Test_systems_manuscript/rnas/3slm

>  <Rbt.Executable>
rbdock ($Id: //depot/dev/client3/rdock/2013.1/src/exe/rbdock.cxx#4 $)

>  <Rbt.Library>
libRbt.so (2013.1, Build901 2013/11/27)

>  <Rbt.Parameter_File>
/export/apps/rDock/src/rDock_2013.1_src/data/scripts/dock_solv.prm

>  <Rbt.Receptor>
prm/pocket_docking_8.prm

>  <SCORE>
-17.8888

>  <SCORE.INTER>
-14.1155

>  <SCORE.INTER.CONST>
1

>  <SCORE.INTER.POLAR>
0

>  <SCORE.INTER.ROT>
4

>  <SCORE.INTER.SOLV>
27.445

>  <SCORE.INTER.VDW>
-24.8253

>  <SCORE.INTER.norm>
-0.613719

>  <SCORE.INTRA>
-3.77501

>  <SCORE.INTRA.DIHEDRAL>
-2.80798

>  <SCORE.INTRA.DIHEDRAL.0>
8.62657

>  <SCORE.INTRA.POLAR>
0

>  <SCORE.INTRA.POLAR.0>
0

>  <SCORE.INTRA.REPUL>
0

>  <SCORE.INTRA.REPUL.0>
0

>  <SCORE.INTRA.SOLV>
0.8482

>  <SCORE.INTRA.SOLV.lig_0>
-66.3641

>  <SCORE.INTRA.VDW>
-2.79512

>  <SCORE.INTRA.VDW.0>
0.452231

>  <SCORE.INTRA.norm>
-0.164131

>  <SCORE.RESTR>
0.00168761

>  <SCORE.RESTR.CAVITY>
0.00168761

>  <SCORE.RESTR.norm>
7.33741e-05

>  <SCORE.SYSTEM>
0

>  <SCORE.SYSTEM.CONST>
0

>  <SCORE.SYSTEM.DIHEDRAL>
0

>  <SCORE.SYSTEM.SOLV>
0

>  <SCORE.SYSTEM.norm>
0

>  <SCORE.heavy>
23

>  <SCORE.norm>
-0.777776

>  <RMSD>
7.533

$$$$
ligand
 OpenBabel02271912143D
libRbt.so/2013.1/901 2013/11/27
 23 25  0  0  0  0  0  0  0  0999 V2000
   22.7155    2.6451   27.5724 P   0  0  1  0  0  0  0  0  0  0  0  0
   20.8548    2.9055   29.3959 C   0  0  0  0  0  0  0  0  0  0  0  0
   22.1354    2.3951   29.0520 O   0  0  0  0  0  0  0  0  0  0  0  0
   20.6860    2.7306   30.8884 C   0  0  1  0  0  0  0  0  0  0  0  0
   21.0470    1.4189   31.3195 O   0  0  0  0  0  0  0  0  0  0  0  0
   21.5828    3.7216   31.6110 C   0  0  1  0  0  0  0  0  0  0  0  0
   20.8050    4.3649   32.6353 O   0  0  0  0  0  0  0  0  0  0  0  0
   22.7179    2.8870   32.1908 C   0  0  0  0  0  0  0  0  0  0  0  0
   22.1632    1.4653   32.2179 C   0  0  2  0  0  0  0  0  0  0  0  0
   24.3799   -3.1535   32.7519 N   0  0  0  0  0  0  0  0  0  0  0  0
   23.4411   -2.5916   33.5308 C   0  0  2  0  0  0  0  0  0  0  0  0
   22.9910   -3.3028   34.5906 N   0  0  0  0  0  0  0  0  0  0  0  0
   22.9540   -1.3571   33.2578 N   0  0  0  0  0  0  0  0  0  0  0  0
   23.4186   -0.6780   32.1888 C   0  0  2  0  0  0  0  0  0  0  0  0
   24.3834   -1.2397   31.3808 C   0  0  1  0  0  0  0  0  0  0  0  0
   24.8585   -2.5035   31.6756 C   0  0  0  0  0  0  0  0  0  0  0  0
   25.7289   -3.0333   30.9515 O   0  0  0  0  0  0  0  0  0  0  0  0
   24.6730   -0.3601   30.4017 N   0  0  0  0  0  0  0  0  0  0  0  0
   23.8985    0.7223   30.5941 C   0  0  0  0  0  0  0  0  0  0  0  0
   23.1514    0.5216   31.6851 N   0  0  1  0  0  0  0  0  0  0  0  0
   22.9107    4.1341   27.4208 O   0  0  0  0  0  0  0  0  0  0  0  0
   23.9955    1.8421   27.5425 O   0  5  0  0  0  0  0  0  0  0  0  0
   21.6284    2.0894   26.6927 O   0  0  0  0  0  0  0  0  0  0  0  0
  1  3  1  1  0  0  0
  1 21  1  0  0  0  0
  1 22  1  0  0  0  0
  1 23  2  0  0  0  0
  2  3  1  0  0  0  0
  4  2  1  6  0  0  0
  4  5  1  0  0  0  0
  4  6  1  0  0  0  0
  6  7  1  1  0  0  0
  6  8  1  0  0  0  0
  8  9  1  0  0  0  0
  9  5  1  6  0  0  0
  9 20  1  0  0  0  0
 10 11  1  0  0  0  0
 10 16  1  0  0  0  0
 11 12  1  6  0  0  0
 11 13  1  0  0  0  0
 14 13  1  1  0  0  0
 14 15  1  0  0  0  0
 14 20  1  0  0  0  0
 15 16  1  6  0  0  0
 15 18  1  0  0  0  0
 16 17  2  0  0  0  0
 18 19  1  0  0  0  0
 20 19  1  6  0  0  0
M  CHG  1  22  -1
M  END
>  <CHROM.1>
64.59325962,-47.53688693,-170.35385133,-105.17687849,22.87609722,0.86691581
30.67189504,-2.07092134,-0.94412957,2.08997430

>  <Name>
ligand

>  <RI>
416

>  <Rbt.Current_Directory>
/home/itssahil/PROJECTS/Mol_Feturizer/Test_systems_manuscript/rnas/3slm

>  <Rbt.Executable>
rbdock ($Id: //depot/dev/client3/rdock/2013.1/src/exe/rbdock.cxx#4 $)

>  <Rbt.Library>
libRbt.so (2013.1, Build901 2013/11/27)

>  <Rbt.Parameter_File>
/export/apps/rDock/src/rDock_2013.1_src/data/scripts/dock_solv.prm

>  <Rbt.Receptor>
prm/pocket_docking_5.prm

>  <SCORE>
-17.7259

>  <SCORE.INTER>
-12.2669

>  <SCORE.INTER.CONST>
1

>  <SCORE.INTER.POLAR>
0

>  <SCORE.INTER.ROT>
4

>  <SCORE.INTER.SOLV>
15.8905

>  <SCORE.INTER.VDW>
-19.7414

>  <SCORE.INTER.norm>
-0.533344

>  <SCORE.INTRA>
-5.45902

>  <SCORE.INTRA.DIHEDRAL>
-6.42719

>  <SCORE.INTRA.DIHEDRAL.0>
8.62657

>  <SCORE.INTRA.POLAR>
0

>  <SCORE.INTRA.POLAR.0>
0

>  <SCORE.INTRA.REPUL>
0

>  <SCORE.INTRA.REPUL.0>
0

>  <SCORE.INTRA.SOLV>
0.230515

>  <SCORE.INTRA.SOLV.lig_0>
-66.3641

>  <SCORE.INTRA.VDW>
-2.36068

>  <SCORE.INTRA.VDW.0>
0.452231

>  <SCORE.INTRA.norm>
-0.237349

>  <SCORE.RESTR>
0

>  <SCORE.RESTR.CAVITY>
0

>  <SCORE.RESTR.norm>
0

>  <SCORE.SYSTEM>
0

>  <SCORE.SYSTEM.CONST>
0

>  <SCORE.SYSTEM.DIHEDRAL>
0

>  <SCORE.SYSTEM.SOLV>
0

>  <SCORE.SYSTEM.norm>
0

>  <SCORE.heavy>
23

>  <SCORE.norm>
-0.770693

>  <RMSD>
7.541

$$$$
ligand
 OpenBabel02271912143D
libRbt.so/2013.1/901 2013/11/27
 23 25  0  0  0  0  0  0  0  0999 V2000
   19.9667    5.7961   32.5014 P   0  0  1  0  0  0  0  0  0  0  0  0
   20.9298    4.4074   30.5017 C   0  0  0  0  0  0  0  0  0  0  0  0
   21.1944    5.2329   31.6274 O   0  0  0  0  0  0  0  0  0  0  0  0
   22.2603    4.0733   29.8655 C   0  0  1  0  0  0  0  0  0  0  0  0
   23.0941    3.3080   30.7349 O   0  0  0  0  0  0  0  0  0  0  0  0
   22.0201    3.2531   28.6092 C   0  0  1  0  0  0  0  0  0  0  0  0
   22.8174    3.8117   27.5507 O   0  0  0  0  0  0  0  0  0  0  0  0
   22.4512    1.8362   28.9665 C   0  0  0  0  0  0  0  0  0  0  0  0
   23.3629    2.0148   30.1775 C   0  0  2  0  0  0  0  0  0  0  0  0
   24.5772   -2.4647   32.4119 N   0  0  0  0  0  0  0  0  0  0  0  0
   25.1808   -1.8696   31.3701 C   0  0  2  0  0  0  0  0  0  0  0  0
   26.2503   -2.4907   30.8206 N   0  0  0  0  0  0  0  0  0  0  0  0
   24.7386   -0.6815   30.8920 N   0  0  0  0  0  0  0  0  0  0  0  0
   23.6745   -0.0850   31.4677 C   0  0  2  0  0  0  0  0  0  0  0  0
   23.0427   -0.6836   32.5363 C   0  0  1  0  0  0  0  0  0  0  0  0
   23.5175   -1.8916   33.0107 C   0  0  0  0  0  0  0  0  0  0  0  0
   22.9626   -2.4477   33.9830 O   0  0  0  0  0  0  0  0  0  0  0  0
   22.0182    0.1070   32.9128 N   0  0  0  0  0  0  0  0  0  0  0  0
   22.0188    1.1776   32.0992 C   0  0  0  0  0  0  0  0  0  0  0  0
   23.0198    1.0443   31.2222 N   0  0  1  0  0  0  0  0  0  0  0  0
   19.0605    6.5474   31.5567 O   0  0  0  0  0  0  0  0  0  0  0  0
   19.3488    4.5552   33.1036 O   0  5  0  0  0  0  0  0  0  0  0  0
   20.6541    6.6816   33.5054 O   0  0  0  0  0  0  0  0  0  0  0  0
  1  3  1  6  0  0  0
  1 21  1  0  0  0  0
  1 22  1  0  0  0  0
  1 23  2  0  0  0  0
  2  3  1  0  0  0  0
  4  2  1  1  0  0  0
  4  5  1  0  0  0  0
  4  6  1  0  0  0  0
  6  7  1  6  0  0  0
  6  8  1  0  0  0  0
  8  9  1  0  0  0  0
  9  5  1  1  0  0  0
  9 20  1  0  0  0  0
 10 11  1  0  0  0  0
 10 16  1  0  0  0  0
 11 12  1  1  0  0  0
 11 13  1  0  0  0  0
 14 13  1  6  0  0  0
 14 15  1  0  0  0  0
 14 20  1  0  0  0  0
 15 16  1  1  0  0  0
 15 18  1  0  0  0  0
 16 17  2  0  0  0  0
 18 19  1  0  0  0  0
 20 19  1  1  0  0  0
M  CHG  1  22  -1
M  END
>  <CHROM.1>
-56.27712397,63.69304470,178.32055131,-143.21675382,22.32238357,2.14200826
31.43183074,2.52211690,0.94070038,-0.87341939

>  <Name>
ligand

>  <RI>
0

>  <Rbt.Current_Directory>
/home/itssahil/PROJECTS/Mol_Feturizer/Test_systems_manuscript/rnas/3slm

>  <Rbt.Executable>
rbdock ($Id: //depot/dev/client3/rdock/2013.1/src/exe/rbdock.cxx#4 $)

>  <Rbt.Library>
libRbt.so (2013.1, Build901 2013/11/27)

>  <Rbt.Parameter_File>
/export/apps/rDock/src/rDock_2013.1_src/data/scripts/dock_solv.prm

>  <Rbt.Receptor>
prm/pocket_docking_8.prm

>  <SCORE>
-20.0852

>  <SCORE.INTER>
-14.0801

>  <SCORE.INTER.CONST>
1

>  <SCORE.INTER.POLAR>
0

>  <SCORE.INTER.ROT>
4

>  <SCORE.INTER.SOLV>
20.5763

>  <SCORE.INTER.VDW>
-22.5122

>  <SCORE.INTER.norm>
-0.61218

>  <SCORE.INTRA>
-6.00509

>  <SCORE.INTRA.DIHEDRAL>
-7.27595

>  <SCORE.INTRA.DIHEDRAL.0>
8.62657

>  <SCORE.INTRA.POLAR>
0

>  <SCORE.INTRA.POLAR.0>
0

>  <SCORE.INTRA.REPUL>
0

>  <SCORE.INTRA.REPUL.0>
0

>  <SCORE.INTRA.SOLV>
-0.733139

>  <SCORE.INTRA.SOLV.lig_0>
-66.3641

>  <SCORE.INTRA.VDW>
-2.00055

>  <SCORE.INTRA.VDW.0>
0.452231

>  <SCORE.INTRA.norm>
-0.261091

>  <SCORE.RESTR>
0

>  <SCORE.RESTR.CAVITY>
0

>  <SCORE.RESTR.norm>
0

>  <SCORE.SYSTEM>
0

>  <SCORE.SYSTEM.CONST>
0

>  <SCORE.SYSTEM.DIHEDRAL>
0

>  <SCORE.SYSTEM.SOLV>
0

>  <SCORE.SYSTEM.norm>
0

>  <SCORE.heavy>
23

>  <SCORE.norm>
-0.873271

>  <RMSD>
7.544

$$$$
ligand
 OpenBabel02271912143D
libRbt.so/2013.1/901 2013/11/27
 23 25  0  0  0  0  0  0  0  0999 V2000
   22.7619    2.6451   27.6065 P   0  0  1  0  0  0  0  0  0  0  0  0
   20.9083    2.9067   29.4371 C   0  0  0  0  0  0  0  0  0  0  0  0
   22.1729    2.3679   29.0778 O   0  0  0  0  0  0  0  0  0  0  0  0
   20.7230    2.6715   30.9192 C   0  0  1  0  0  0  0  0  0  0  0  0
   21.0837    1.3447   31.3016 O   0  0  0  0  0  0  0  0  0  0  0  0
   21.6078    3.6356   31.6914 C   0  0  1  0  0  0  0  0  0  0  0  0
   20.8158    4.2347   32.7316 O   0  0  0  0  0  0  0  0  0  0  0  0
   22.7391    2.7820   32.2505 C   0  0  0  0  0  0  0  0  0  0  0  0
   22.1893    1.3585   32.2141 C   0  0  2  0  0  0  0  0  0  0  0  0
   24.4946   -3.2266   32.6548 N   0  0  0  0  0  0  0  0  0  0  0  0
   23.5562   -2.6924   33.4535 C   0  0  2  0  0  0  0  0  0  0  0  0
   23.1329   -3.4261   34.5090 N   0  0  0  0  0  0  0  0  0  0  0  0
   23.0438   -1.4632   33.2041 N   0  0  0  0  0  0  0  0  0  0  0  0
   23.4821   -0.7613   32.1388 C   0  0  2  0  0  0  0  0  0  0  0  0
   24.4460   -1.2945   31.3106 C   0  0  1  0  0  0  0  0  0  0  0  0
   24.9473   -2.5534   31.5815 C   0  0  0  0  0  0  0  0  0  0  0  0
   25.8173   -3.0575   30.8390 O   0  0  0  0  0  0  0  0  0  0  0  0
   24.7070   -0.3963   30.3403 N   0  0  0  0  0  0  0  0  0  0  0  0
   23.9160    0.6691   30.5577 C   0  0  0  0  0  0  0  0  0  0  0  0
   23.1870    0.4402   31.6554 N   0  0  1  0  0  0  0  0  0  0  0  0
   22.9640    4.1360   27.4859 O   0  0  0  0  0  0  0  0  0  0  0  0
   24.0388    1.8375   27.5673 O   0  5  0  0  0  0  0  0  0  0  0  0
   21.6773    2.1117   26.7101 O   0  0  0  0  0  0  0  0  0  0  0  0
  1  3  1  1  0  0  0
  1 21  1  0  0  0  0
  1 22  1  0  0  0  0
  1 23  2  0  0  0  0
  2  3  1  0  0  0  0
  4  2  1  6  0  0  0
  4  5  1  0  0  0  0
  4  6  1  0  0  0  0
  6  7  1  1  0  0  0
  6  8  1  0  0  0  0
  8  9  1  0  0  0  0
  9  5  1  6  0  0  0
  9 20  1  0  0  0  0
 10 11  1  0  0  0  0
 10 16  1  0  0  0  0
 11 12  1  6  0  0  0
 11 13  1  0  0  0  0
 14 13  1  1  0  0  0
 14 15  1  0  0  0  0
 14 20  1  0  0  0  0
 15 16  1  6  0  0  0
 15 18  1  0  0  0  0
 16 17  2  0  0  0  0
 18 19  1  0  0  0  0
 20 19  1  6  0  0  0
M  CHG  1  22  -1
M  END
>  <CHROM.1>
62.92725187,-45.31952698,-171.25325549,-107.40113068,22.93116850,0.81250260
30.66302678,-2.08339349,-0.93730552,2.10117462

>  <Name>
ligand

>  <RI>
416

>  <Rbt.Current_Directory>
/home/itssahil/PROJECTS/Mol_Feturizer/Test_systems_manuscript/rnas/3slm

>  <Rbt.Executable>
rbdock ($Id: //depot/dev/client3/rdock/2013.1/src/exe/rbdock.cxx#4 $)

>  <Rbt.Library>
libRbt.so (2013.1, Build901 2013/11/27)

>  <Rbt.Parameter_File>
/export/apps/rDock/src/rDock_2013.1_src/data/scripts/dock_solv.prm

>  <Rbt.Receptor>
prm/pocket_docking_5.prm

>  <SCORE>
-17.7635

>  <SCORE.INTER>
-12.3186

>  <SCORE.INTER.CONST>
1

>  <SCORE.INTER.POLAR>
0

>  <SCORE.INTER.ROT>
4

>  <SCORE.INTER.SOLV>
16.08

>  <SCORE.INTER.VDW>
-19.839

>  <SCORE.INTER.norm>
-0.535591

>  <SCORE.INTRA>
-5.44494

>  <SCORE.INTRA.DIHEDRAL>
-6.32358

>  <SCORE.INTRA.DIHEDRAL.0>
8.62657

>  <SCORE.INTRA.POLAR>
0

>  <SCORE.INTRA.POLAR.0>
0

>  <SCORE.INTRA.REPUL>
0

>  <SCORE.INTRA.REPUL.0>
0

>  <SCORE.INTRA.SOLV>
0.250394

>  <SCORE.INTRA.SOLV.lig_0>
-66.3641

>  <SCORE.INTRA.VDW>
-2.40835

>  <SCORE.INTRA.VDW.0>
0.452231

>  <SCORE.INTRA.norm>
-0.236737

>  <SCORE.RESTR>
0

>  <SCORE.RESTR.CAVITY>
0

>  <SCORE.RESTR.norm>
0

>  <SCORE.SYSTEM>
0

>  <SCORE.SYSTEM.CONST>
0

>  <SCORE.SYSTEM.DIHEDRAL>
0

>  <SCORE.SYSTEM.SOLV>
0

>  <SCORE.SYSTEM.norm>
0

>  <SCORE.heavy>
23

>  <SCORE.norm>
-0.772328

>  <RMSD>
7.555

$$$$
ligand
 OpenBabel02271912143D
libRbt.so/2013.1/901 2013/11/27
 23 25  0  0  0  0  0  0  0  0999 V2000
   20.0163    5.9714   32.4778 P   0  0  1  0  0  0  0  0  0  0  0  0
   20.8732    4.3859   30.5786 C   0  0  0  0  0  0  0  0  0  0  0  0
   21.1908    5.3566   31.5663 O   0  0  0  0  0  0  0  0  0  0  0  0
   22.1613    4.0194   29.8765 C   0  0  1  0  0  0  0  0  0  0  0  0
   23.0268    3.2493   30.7100 O   0  0  0  0  0  0  0  0  0  0  0  0
   21.8393    3.1887   28.6457 C   0  0  1  0  0  0  0  0  0  0  0  0
   22.5885    3.7196   27.5389 O   0  0  0  0  0  0  0  0  0  0  0  0
   22.2636    1.7684   28.9979 C   0  0  0  0  0  0  0  0  0  0  0  0
   23.2421    1.9447   30.1560 C   0  0  2  0  0  0  0  0  0  0  0  0
   24.5533   -2.4831   32.4380 N   0  0  0  0  0  0  0  0  0  0  0  0
   25.1197   -1.9058   31.3658 C   0  0  2  0  0  0  0  0  0  0  0  0
   26.1746   -2.5323   30.7945 N   0  0  0  0  0  0  0  0  0  0  0  0
   24.6556   -0.7297   30.8788 N   0  0  0  0  0  0  0  0  0  0  0  0
   23.6071   -0.1274   31.4766 C   0  0  2  0  0  0  0  0  0  0  0  0
   23.0134   -0.7078   32.5766 C   0  0  1  0  0  0  0  0  0  0  0  0
   23.5101   -1.9036   33.0592 C   0  0  0  0  0  0  0  0  0  0  0  0
   22.9900   -2.4431   34.0596 O   0  0  0  0  0  0  0  0  0  0  0  0
   21.9970    0.0848   32.9702 N   0  0  0  0  0  0  0  0  0  0  0  0
   21.9653    1.1391   32.1361 C   0  0  0  0  0  0  0  0  0  0  0  0
   22.9383    0.9934   31.2301 N   0  0  1  0  0  0  0  0  0  0  0  0
   18.9756    6.5306   31.5384 O   0  0  0  0  0  0  0  0  0  0  0  0
   19.5440    4.7974   33.3040 O   0  5  0  0  0  0  0  0  0  0  0  0
   20.7343    7.0265   33.2751 O   0  0  0  0  0  0  0  0  0  0  0  0
  1  3  1  6  0  0  0
  1 21  1  0  0  0  0
  1 22  1  0  0  0  0
  1 23  2  0  0  0  0
  2  3  1  0  0  0  0
  4  2  1  1  0  0  0
  4  5  1  0  0  0  0
  4  6  1  0  0  0  0
  6  7  1  6  0  0  0
  6  8  1  0  0  0  0
  8  9  1  0  0  0  0
  9  5  1  1  0  0  0
  9 20  1  0  0  0  0
 10 11  1  0  0  0  0
 10 16  1  0  0  0  0
 11 12  1  1  0  0  0
 11 13  1  0  0  0  0
 14 13  1  6  0  0  0
 14 15  1  0  0  0  0
 14 20  1  0  0  0  0
 15 16  1  1  0  0  0
 15 18  1  0  0  0  0
 16 17  2  0  0  0  0
 18 19  1  0  0  0  0
 20 19  1  1  0  0  0
M  CHG  1  22  -1
M  END
>  <CHROM.1>
-55.01645850,71.20486985,179.02253761,-141.33618537,22.27817774,2.15995167
31.43861422,2.56331368,0.98094445,-0.93441622

>  <Name>
ligand

>  <RI>
0

>  <Rbt.Current_Directory>
/home/itssahil/PROJECTS/Mol_Feturizer/Test_systems_manuscript/rnas/3slm

>  <Rbt.Executable>
rbdock ($Id: //depot/dev/client3/rdock/2013.1/src/exe/rbdock.cxx#4 $)

>  <Rbt.Library>
libRbt.so (2013.1, Build901 2013/11/27)

>  <Rbt.Parameter_File>
/export/apps/rDock/src/rDock_2013.1_src/data/scripts/dock_solv.prm

>  <Rbt.Receptor>
prm/pocket_docking_8.prm

>  <SCORE>
-20.0626

>  <SCORE.INTER>
-14.2583

>  <SCORE.INTER.CONST>
1

>  <SCORE.INTER.POLAR>
0

>  <SCORE.INTER.ROT>
4

>  <SCORE.INTER.SOLV>
19.327

>  <SCORE.INTER.VDW>
-22.2145

>  <SCORE.INTER.norm>
-0.619927

>  <SCORE.INTRA>
-5.80434

>  <SCORE.INTRA.DIHEDRAL>
-6.87369

>  <SCORE.INTRA.DIHEDRAL.0>
8.62657

>  <SCORE.INTRA.POLAR>
0

>  <SCORE.INTRA.POLAR.0>
0

>  <SCORE.INTRA.REPUL>
0

>  <SCORE.INTRA.REPUL.0>
0

>  <SCORE.INTRA.SOLV>
-0.768413

>  <SCORE.INTRA.SOLV.lig_0>
-66.3641

>  <SCORE.INTRA.VDW>
-1.98329

>  <SCORE.INTRA.VDW.0>
0.452231

>  <SCORE.INTRA.norm>
-0.252362

>  <SCORE.RESTR>
0

>  <SCORE.RESTR.CAVITY>
0

>  <SCORE.RESTR.norm>
0

>  <SCORE.SYSTEM>
0

>  <SCORE.SYSTEM.CONST>
0

>  <SCORE.SYSTEM.DIHEDRAL>
0

>  <SCORE.SYSTEM.SOLV>
0

>  <SCORE.SYSTEM.norm>
0

>  <SCORE.heavy>
23

>  <SCORE.norm>
-0.872289

>  <RMSD>
7.565

$$$$
ligand
 OpenBabel02271912143D
libRbt.so/2013.1/901 2013/11/27
 23 25  0  0  0  0  0  0  0  0999 V2000
   20.0261    5.9774   32.6982 P   0  0  1  0  0  0  0  0  0  0  0  0
   20.8078    4.3796   30.7770 C   0  0  0  0  0  0  0  0  0  0  0  0
   21.1635    5.3582   31.7437 O   0  0  0  0  0  0  0  0  0  0  0  0
   22.0615    4.0300   30.0073 C   0  0  1  0  0  0  0  0  0  0  0  0
   22.9646    3.2414   30.7816 O   0  0  0  0  0  0  0  0  0  0  0  0
   21.6820    3.2277   28.7741 C   0  0  1  0  0  0  0  0  0  0  0  0
   22.3790    3.7842   27.6461 O   0  0  0  0  0  0  0  0  0  0  0  0
   22.1215    1.7999   29.0734 C   0  0  0  0  0  0  0  0  0  0  0  0
   23.1531    1.9500   30.1883 C   0  0  2  0  0  0  0  0  0  0  0  0
   24.6945   -2.4235   32.4307 N   0  0  0  0  0  0  0  0  0  0  0  0
   25.2303   -1.8072   31.3645 C   0  0  2  0  0  0  0  0  0  0  0  0
   26.3170   -2.3720   30.7885 N   0  0  0  0  0  0  0  0  0  0  0  0
   24.7051   -0.6528   30.8878 N   0  0  0  0  0  0  0  0  0  0  0  0
   23.6259   -0.1121   31.4902 C   0  0  2  0  0  0  0  0  0  0  0  0
   23.0631   -0.7332   32.5841 C   0  0  1  0  0  0  0  0  0  0  0  0
   23.6219   -1.9056   33.0562 C   0  0  0  0  0  0  0  0  0  0  0  0
   23.1303   -2.4810   34.0510 O   0  0  0  0  0  0  0  0  0  0  0  0
   22.0061    0.0011   32.9840 N   0  0  0  0  0  0  0  0  0  0  0  0
   21.9194    1.0599   32.1596 C   0  0  0  0  0  0  0  0  0  0  0  0
   22.8992    0.9742   31.2533 N   0  0  1  0  0  0  0  0  0  0  0  0
   19.4255    4.8287   33.4715 O   0  0  0  0  0  0  0  0  0  0  0  0
   20.7709    6.9802   33.5491 O   0  5  0  0  0  0  0  0  0  0  0  0
   19.0736    6.6025   31.7152 O   0  0  0  0  0  0  0  0  0  0  0  0
  1  3  1  6  0  0  0
  1 21  1  0  0  0  0
  1 22  1  0  0  0  0
  1 23  2  0  0  0  0
  2  3  1  0  0  0  0
  4  2  1  1  0  0  0
  4  5  1  0  0  0  0
  4  6  1  0  0  0  0
  6  7  1  6  0  0  0
  6  8  1  0  0  0  0
  8  9  1  0  0  0  0
  9  5  1  1  0  0  0
  9 20  1  0  0  0  0
 10 11  1  0  0  0  0
 10 16  1  0  0  0  0
 11 12  1  1  0  0  0
 11 13  1  0  0  0  0
 14 13  1  6  0  0  0
 14 15  1  0  0  0  0
 14 20  1  0  0  0  0
 15 16  1  1  0  0  0
 15 18  1  0  0  0  0
 16 17  2  0  0  0  0
 18 19  1  0  0  0  0
 20 19  1  1  0  0  0
M  CHG  1  22  -1
M  END
>  <CHROM.1>
59.78855910,72.97128475,177.95179986,-137.19663208,22.27168092,2.17552446
31.52933858,2.63123811,0.99154510,-0.98460362

>  <Name>
ligand

>  <RI>
0

>  <Rbt.Current_Directory>
/home/itssahil/PROJECTS/Mol_Feturizer/Test_systems_manuscript/rnas/3slm

>  <Rbt.Executable>
rbdock ($Id: //depot/dev/client3/rdock/2013.1/src/exe/rbdock.cxx#4 $)

>  <Rbt.Library>
libRbt.so (2013.1, Build901 2013/11/27)

>  <Rbt.Parameter_File>
/export/apps/rDock/src/rDock_2013.1_src/data/scripts/dock_solv.prm

>  <Rbt.Receptor>
prm/pocket_docking_7.prm

>  <SCORE>
-21.3962

>  <SCORE.INTER>
-15.7361

>  <SCORE.INTER.CONST>
1

>  <SCORE.INTER.POLAR>
0

>  <SCORE.INTER.ROT>
4

>  <SCORE.INTER.SOLV>
17.104

>  <SCORE.INTER.VDW>
-22.4588

>  <SCORE.INTER.norm>
-0.684179

>  <SCORE.INTRA>
-5.66004

>  <SCORE.INTRA.DIHEDRAL>
-6.76879

>  <SCORE.INTRA.DIHEDRAL.0>
8.62657

>  <SCORE.INTRA.POLAR>
0

>  <SCORE.INTRA.POLAR.0>
0

>  <SCORE.INTRA.REPUL>
0

>  <SCORE.INTRA.REPUL.0>
0

>  <SCORE.INTRA.SOLV>
-0.705254

>  <SCORE.INTRA.SOLV.lig_0>
-66.3641

>  <SCORE.INTRA.VDW>
-1.92302

>  <SCORE.INTRA.VDW.0>
0.452231

>  <SCORE.INTRA.norm>
-0.246089

>  <SCORE.RESTR>
0

>  <SCORE.RESTR.CAVITY>
0

>  <SCORE.RESTR.norm>
0

>  <SCORE.SYSTEM>
0

>  <SCORE.SYSTEM.CONST>
0

>  <SCORE.SYSTEM.DIHEDRAL>
0

>  <SCORE.SYSTEM.SOLV>
0

>  <SCORE.SYSTEM.norm>
0

>  <SCORE.heavy>
23

>  <SCORE.norm>
-0.930268

>  <RMSD>
7.578

$$$$
ligand
 OpenBabel02271912143D
libRbt.so/2013.1/901 2013/11/27
 23 25  0  0  0  0  0  0  0  0999 V2000
   19.4031    1.9437   27.1415 P   0  0  1  0  0  0  0  0  0  0  0  0
   20.4418    2.9247   29.3357 C   0  0  0  0  0  0  0  0  0  0  0  0
   19.6524    1.9100   28.7306 O   0  0  0  0  0  0  0  0  0  0  0  0
   20.3906    2.7039   30.8307 C   0  0  1  0  0  0  0  0  0  0  0  0
   20.8130    1.3899   31.1941 O   0  0  0  0  0  0  0  0  0  0  0  0
   21.3168    3.6963   31.5132 C   0  0  1  0  0  0  0  0  0  0  0  0
   20.6044    4.2909   32.6118 O   0  0  0  0  0  0  0  0  0  0  0  0
   22.5113    2.8743   31.9810 C   0  0  0  0  0  0  0  0  0  0  0  0
   21.9927    1.4389   32.0072 C   0  0  2  0  0  0  0  0  0  0  0  0
   24.6231   -2.9706   32.4184 N   0  0  0  0  0  0  0  0  0  0  0  0
   23.7734   -2.4285   33.3060 C   0  0  2  0  0  0  0  0  0  0  0  0
   23.5489   -3.1021   34.4582 N   0  0  0  0  0  0  0  0  0  0  0  0
   23.1542   -1.2506   33.0511 N   0  0  0  0  0  0  0  0  0  0  0  0
   23.3941   -0.6086   31.8891 C   0  0  2  0  0  0  0  0  0  0  0  0
   24.2649   -1.1506   30.9687 C   0  0  1  0  0  0  0  0  0  0  0  0
   24.8780   -2.3570   31.2485 C   0  0  0  0  0  0  0  0  0  0  0  0
   25.6661   -2.8686   30.4241 O   0  0  0  0  0  0  0  0  0  0  0  0
   24.3305   -0.3155   29.9129 N   0  0  0  0  0  0  0  0  0  0  0  0
   23.5115    0.7197   30.1699 C   0  0  0  0  0  0  0  0  0  0  0  0
   22.9589    0.5355   31.3738 N   0  0  1  0  0  0  0  0  0  0  0  0
   18.4920    3.1143   26.8626 O   0  0  0  0  0  0  0  0  0  0  0  0
   20.7906    2.0805   26.5580 O   0  5  0  0  0  0  0  0  0  0  0  0
   18.7620    0.6079   26.8789 O   0  0  0  0  0  0  0  0  0  0  0  0
  1  3  1  1  0  0  0
  1 21  1  0  0  0  0
  1 22  1  0  0  0  0
  1 23  2  0  0  0  0
  2  3  1  0  0  0  0
  4  2  1  6  0  0  0
  4  5  1  0  0  0  0
  4  6  1  0  0  0  0
  6  7  1  1  0  0  0
  6  8  1  0  0  0  0
  8  9  1  0  0  0  0
  9  5  1  6  0  0  0
  9 20  1  0  0  0  0
 10 11  1  0  0  0  0
 10 16  1  0  0  0  0
 11 12  1  6  0  0  0
 11 13  1  0  0  0  0
 14 13  1  1  0  0  0
 14 15  1  0  0  0  0
 14 20  1  0  0  0  0
 15 16  1  6  0  0  0
 15 18  1  0  0  0  0
 16 17  2  0  0  0  0
 18 19  1  0  0  0  0
 20 19  1  6  0  0  0
M  CHG  1  22  -1
M  END
>  <CHROM.1>
-70.09378691,55.83423178,174.85079250,-112.54066050,21.90027177,0.71299539
30.37301166,-2.94880954,-0.90749989,1.05050629

>  <Name>
ligand

>  <RI>
0

>  <Rbt.Current_Directory>
/home/itssahil/PROJECTS/Mol_Feturizer/Test_systems_manuscript/rnas/3slm

>  <Rbt.Executable>
rbdock ($Id: //depot/dev/client3/rdock/2013.1/src/exe/rbdock.cxx#4 $)

>  <Rbt.Library>
libRbt.so (2013.1, Build901 2013/11/27)

>  <Rbt.Parameter_File>
/export/apps/rDock/src/rDock_2013.1_src/data/scripts/dock_solv.prm

>  <Rbt.Receptor>
prm/pocket_docking_8.prm

>  <SCORE>
-21.0668

>  <SCORE.INTER>
-15.4777

>  <SCORE.INTER.CONST>
1

>  <SCORE.INTER.POLAR>
0

>  <SCORE.INTER.ROT>
4

>  <SCORE.INTER.SOLV>
20.0875

>  <SCORE.INTER.VDW>
-23.281

>  <SCORE.INTER.norm>
-0.672946

>  <SCORE.INTRA>
-5.58903

>  <SCORE.INTRA.DIHEDRAL>
-7.10568

>  <SCORE.INTRA.DIHEDRAL.0>
8.62657

>  <SCORE.INTRA.POLAR>
0

>  <SCORE.INTRA.POLAR.0>
0

>  <SCORE.INTRA.REPUL>
0

>  <SCORE.INTRA.REPUL.0>
0

>  <SCORE.INTRA.SOLV>
-0.615234

>  <SCORE.INTRA.SOLV.lig_0>
-66.3641

>  <SCORE.INTRA.VDW>
-1.72857

>  <SCORE.INTRA.VDW.0>
0.452231

>  <SCORE.INTRA.norm>
-0.243001

>  <SCORE.RESTR>
0

>  <SCORE.RESTR.CAVITY>
0

>  <SCORE.RESTR.norm>
0

>  <SCORE.SYSTEM>
0

>  <SCORE.SYSTEM.CONST>
0

>  <SCORE.SYSTEM.DIHEDRAL>
0

>  <SCORE.SYSTEM.SOLV>
0

>  <SCORE.SYSTEM.norm>
0

>  <SCORE.heavy>
23

>  <SCORE.norm>
-0.915947

>  <RMSD>
7.582

$$$$
ligand
 OpenBabel02271912143D
libRbt.so/2013.1/901 2013/11/27
 23 25  0  0  0  0  0  0  0  0999 V2000
   19.6961    5.4037   31.4959 P   0  0  1  0  0  0  0  0  0  0  0  0
   20.9083    3.8618   29.7615 C   0  0  0  0  0  0  0  0  0  0  0  0
   21.0248    4.7633   30.8535 O   0  0  0  0  0  0  0  0  0  0  0  0
   22.3083    3.4480   29.3675 C   0  0  1  0  0  0  0  0  0  0  0  0
   23.0031    2.8143   30.4411 O   0  0  0  0  0  0  0  0  0  0  0  0
   22.2307    2.4603   28.2156 C   0  0  1  0  0  0  0  0  0  0  0  0
   23.1743    2.8698   27.2106 O   0  0  0  0  0  0  0  0  0  0  0  0
   22.5871    1.1085   28.8213 C   0  0  0  0  0  0  0  0  0  0  0  0
   23.3263    1.4573   30.1103 C   0  0  2  0  0  0  0  0  0  0  0  0
   24.1965   -2.6139   33.1435 N   0  0  0  0  0  0  0  0  0  0  0  0
   24.9532   -2.1600   32.1310 C   0  0  2  0  0  0  0  0  0  0  0  0
   26.0985   -2.8245   31.8513 N   0  0  0  0  0  0  0  0  0  0  0  0
   24.5858   -1.0669   31.4197 N   0  0  0  0  0  0  0  0  0  0  0  0
   23.4417   -0.4229   31.7296 C   0  0  2  0  0  0  0  0  0  0  0  0
   22.6530   -0.8770   32.7645 C   0  0  1  0  0  0  0  0  0  0  0  0
   23.0533   -1.9895   33.4800 C   0  0  0  0  0  0  0  0  0  0  0  0
   22.3554   -2.4135   34.4264 O   0  0  0  0  0  0  0  0  0  0  0  0
   21.5784   -0.0690   32.8571 N   0  0  0  0  0  0  0  0  0  0  0  0
   21.7015    0.8715   31.9039 C   0  0  0  0  0  0  0  0  0  0  0  0
   22.8282    0.6400   31.2215 N   0  0  1  0  0  0  0  0  0  0  0  0
   18.8421    4.2565   31.9784 O   0  0  0  0  0  0  0  0  0  0  0  0
   20.2184    6.2982   32.5965 O   0  5  0  0  0  0  0  0  0  0  0  0
   19.0962    6.1527   30.3368 O   0  0  0  0  0  0  0  0  0  0  0  0
  1  3  1  6  0  0  0
  1 21  1  0  0  0  0
  1 22  1  0  0  0  0
  1 23  2  0  0  0  0
  2  3  1  0  0  0  0
  4  2  1  1  0  0  0
  4  5  1  0  0  0  0
  4  6  1  0  0  0  0
  6  7  1  6  0  0  0
  6  8  1  0  0  0  0
  8  9  1  0  0  0  0
  9  5  1  1  0  0  0
  9 20  1  0  0  0  0
 10 11  1  0  0  0  0
 10 16  1  0  0  0  0
 11 12  1  1  0  0  0
 11 13  1  0  0  0  0
 14 13  1  6  0  0  0
 14 15  1  0  0  0  0
 14 20  1  0  0  0  0
 15 16  1  1  0  0  0
 15 18  1  0  0  0  0
 16 17  2  0  0  0  0
 18 19  1  0  0  0  0
 20 19  1  1  0  0  0
M  CHG  1  22  -1
M  END
>  <CHROM.1>
59.16959443,59.53494725,179.23688696,-141.51590228,22.13246058,1.73657338
31.21447764,2.35725591,0.84827740,-0.88515465

>  <Name>
ligand

>  <RI>
416

>  <Rbt.Current_Directory>
/home/itssahil/PROJECTS/Mol_Feturizer/Test_systems_manuscript/rnas/3slm

>  <Rbt.Executable>
rbdock ($Id: //depot/dev/client3/rdock/2013.1/src/exe/rbdock.cxx#4 $)

>  <Rbt.Library>
libRbt.so (2013.1, Build901 2013/11/27)

>  <Rbt.Parameter_File>
/export/apps/rDock/src/rDock_2013.1_src/data/scripts/dock_solv.prm

>  <Rbt.Receptor>
prm/pocket_docking_5.prm

>  <SCORE>
-20.0845

>  <SCORE.INTER>
-14.1169

>  <SCORE.INTER.CONST>
1

>  <SCORE.INTER.POLAR>
0

>  <SCORE.INTER.ROT>
4

>  <SCORE.INTER.SOLV>
13.9864

>  <SCORE.INTER.VDW>
-20.3401

>  <SCORE.INTER.norm>
-0.613778

>  <SCORE.INTRA>
-5.96764

>  <SCORE.INTRA.DIHEDRAL>
-7.36742

>  <SCORE.INTRA.DIHEDRAL.0>
8.62657

>  <SCORE.INTRA.POLAR>
0

>  <SCORE.INTRA.POLAR.0>
0

>  <SCORE.INTRA.REPUL>
0

>  <SCORE.INTRA.REPUL.0>
0

>  <SCORE.INTRA.SOLV>
-0.656468

>  <SCORE.INTRA.SOLV.lig_0>
-66.3641

>  <SCORE.INTRA.VDW>
-1.95569

>  <SCORE.INTRA.VDW.0>
0.452231

>  <SCORE.INTRA.norm>
-0.259462

>  <SCORE.RESTR>
0

>  <SCORE.RESTR.CAVITY>
0

>  <SCORE.RESTR.norm>
0

>  <SCORE.SYSTEM>
0

>  <SCORE.SYSTEM.CONST>
0

>  <SCORE.SYSTEM.DIHEDRAL>
0

>  <SCORE.SYSTEM.SOLV>
0

>  <SCORE.SYSTEM.norm>
0

>  <SCORE.heavy>
23

>  <SCORE.norm>
-0.87324

>  <RMSD>
7.587

$$$$
ligand
 OpenBabel02271912143D
libRbt.so/2013.1/901 2013/11/27
 23 25  0  0  0  0  0  0  0  0999 V2000
   19.9296    5.5168   32.7489 P   0  0  1  0  0  0  0  0  0  0  0  0
   20.9202    4.2084   30.7088 C   0  0  0  0  0  0  0  0  0  0  0  0
   21.1678    4.9160   31.9158 O   0  0  0  0  0  0  0  0  0  0  0  0
   22.2624    3.8943   30.0872 C   0  0  1  0  0  0  0  0  0  0  0  0
   23.0846    3.1115   30.9520 O   0  0  0  0  0  0  0  0  0  0  0  0
   22.0464    3.1034   28.8080 C   0  0  1  0  0  0  0  0  0  0  0  0
   22.8590    3.6899   27.7766 O   0  0  0  0  0  0  0  0  0  0  0  0
   22.4772    1.6799   29.1387 C   0  0  0  0  0  0  0  0  0  0  0  0
   23.3679    1.8329   30.3687 C   0  0  2  0  0  0  0  0  0  0  0  0
   24.5433   -2.7094   32.4942 N   0  0  0  0  0  0  0  0  0  0  0  0
   25.1588   -2.0896   31.4741 C   0  0  2  0  0  0  0  0  0  0  0  0
   26.2306   -2.7007   30.9179 N   0  0  0  0  0  0  0  0  0  0  0  0
   24.7259   -0.8873   31.0237 N   0  0  0  0  0  0  0  0  0  0  0  0
   23.6590   -0.3016   31.6055 C   0  0  2  0  0  0  0  0  0  0  0  0
   23.0152   -0.9255   32.6521 C   0  0  1  0  0  0  0  0  0  0  0  0
   23.4806   -2.1477   33.0986 C   0  0  0  0  0  0  0  0  0  0  0  0
   22.9146   -2.7269   34.0507 O   0  0  0  0  0  0  0  0  0  0  0  0
   21.9906   -0.1407   33.0403 N   0  0  0  0  0  0  0  0  0  0  0  0
   22.0030    0.9511   32.2554 C   0  0  0  0  0  0  0  0  0  0  0  0
   23.0113    0.8366   31.3842 N   0  0  1  0  0  0  0  0  0  0  0  0
   18.9209    4.4048   32.9036 O   0  0  0  0  0  0  0  0  0  0  0  0
   20.5532    5.9781   34.0461 O   0  5  0  0  0  0  0  0  0  0  0  0
   19.4537    6.6412   31.8694 O   0  0  0  0  0  0  0  0  0  0  0  0
  1  3  1  6  0  0  0
  1 21  1  0  0  0  0
  1 22  1  0  0  0  0
  1 23  2  0  0  0  0
  2  3  1  0  0  0  0
  4  2  1  1  0  0  0
  4  5  1  0  0  0  0
  4  6  1  0  0  0  0
  6  7  1  6  0  0  0
  6  8  1  0  0  0  0
  8  9  1  0  0  0  0
  9  5  1  1  0  0  0
  9 20  1  0  0  0  0
 10 11  1  0  0  0  0
 10 16  1  0  0  0  0
 11 12  1  1  0  0  0
 11 13  1  0  0  0  0
 14 13  1  6  0  0  0
 14 15  1  0  0  0  0
 14 20  1  0  0  0  0
 15 16  1  1  0  0  0
 15 18  1  0  0  0  0
 16 17  2  0  0  0  0
 18 19  1  0  0  0  0
 20 19  1  1  0  0  0
M  CHG  1  22  -1
M  END
>  <CHROM.1>
49.56485932,59.10345191,174.30846611,-143.87553202,22.30421103,1.91665916
31.60772780,2.50561091,0.92977254,-0.83332049

>  <Name>
ligand

>  <RI>
0

>  <Rbt.Current_Directory>
/home/itssahil/PROJECTS/Mol_Feturizer/Test_systems_manuscript/rnas/3slm

>  <Rbt.Executable>
rbdock ($Id: //depot/dev/client3/rdock/2013.1/src/exe/rbdock.cxx#4 $)

>  <Rbt.Library>
libRbt.so (2013.1, Build901 2013/11/27)

>  <Rbt.Parameter_File>
/export/apps/rDock/src/rDock_2013.1_src/data/scripts/dock_solv.prm

>  <Rbt.Receptor>
prm/pocket_docking_8.prm

>  <SCORE>
-22.0756

>  <SCORE.INTER>
-16.2528

>  <SCORE.INTER.CONST>
1

>  <SCORE.INTER.POLAR>
0

>  <SCORE.INTER.ROT>
4

>  <SCORE.INTER.SOLV>
19.2316

>  <SCORE.INTER.VDW>
-23.5124

>  <SCORE.INTER.norm>
-0.706644

>  <SCORE.INTRA>
-5.82281

>  <SCORE.INTRA.DIHEDRAL>
-7.04964

>  <SCORE.INTRA.DIHEDRAL.0>
8.62657

>  <SCORE.INTRA.POLAR>
0

>  <SCORE.INTRA.POLAR.0>
0

>  <SCORE.INTRA.REPUL>
0

>  <SCORE.INTRA.REPUL.0>
0

>  <SCORE.INTRA.SOLV>
-0.721622

>  <SCORE.INTRA.SOLV.lig_0>
-66.3641

>  <SCORE.INTRA.VDW>
-1.93718

>  <SCORE.INTRA.VDW.0>
0.452231

>  <SCORE.INTRA.norm>
-0.253166

>  <SCORE.RESTR>
0

>  <SCORE.RESTR.CAVITY>
0

>  <SCORE.RESTR.norm>
0

>  <SCORE.SYSTEM>
0

>  <SCORE.SYSTEM.CONST>
0

>  <SCORE.SYSTEM.DIHEDRAL>
0

>  <SCORE.SYSTEM.SOLV>
0

>  <SCORE.SYSTEM.norm>
0

>  <SCORE.heavy>
23

>  <SCORE.norm>
-0.95981

>  <RMSD>
7.589

$$$$
ligand
 OpenBabel02271912143D
libRbt.so/2013.1/901 2013/11/27
 23 25  0  0  0  0  0  0  0  0999 V2000
   19.4861    1.7166   27.2883 P   0  0  1  0  0  0  0  0  0  0  0  0
   20.4490    2.8819   29.4261 C   0  0  0  0  0  0  0  0  0  0  0  0
   19.6827    1.8163   28.8819 O   0  0  0  0  0  0  0  0  0  0  0  0
   20.4606    2.7072   30.9281 C   0  0  1  0  0  0  0  0  0  0  0  0
   20.8942    1.4033   31.3136 O   0  0  0  0  0  0  0  0  0  0  0  0
   21.4176    3.7162   31.5399 C   0  0  1  0  0  0  0  0  0  0  0  0
   20.7540    4.3472   32.6488 O   0  0  0  0  0  0  0  0  0  0  0  0
   22.6285    2.9041   31.9819 C   0  0  0  0  0  0  0  0  0  0  0  0
   22.1074    1.4724   32.0742 C   0  0  2  0  0  0  0  0  0  0  0  0
   24.6493   -2.9910   32.4603 N   0  0  0  0  0  0  0  0  0  0  0  0
   23.8263   -2.4274   33.3596 C   0  0  2  0  0  0  0  0  0  0  0  0
   23.6067   -3.0916   34.5181 N   0  0  0  0  0  0  0  0  0  0  0  0
   23.2284   -1.2375   33.1100 N   0  0  0  0  0  0  0  0  0  0  0  0
   23.4626   -0.6053   31.9415 C   0  0  2  0  0  0  0  0  0  0  0  0
   24.3061   -1.1693   31.0091 C   0  0  1  0  0  0  0  0  0  0  0  0
   24.8977   -2.3876   31.2837 C   0  0  0  0  0  0  0  0  0  0  0  0
   25.6608   -2.9191   30.4485 O   0  0  0  0  0  0  0  0  0  0  0  0
   24.3719   -0.3400   29.9488 N   0  0  0  0  0  0  0  0  0  0  0  0
   23.5797    0.7136   30.2150 C   0  0  0  0  0  0  0  0  0  0  0  0
   23.0434    0.5460   31.4287 N   0  0  1  0  0  0  0  0  0  0  0  0
   18.8350    0.3844   27.0064 O   0  0  0  0  0  0  0  0  0  0  0  0
   18.6275    2.9140   26.9517 O   0  5  0  0  0  0  0  0  0  0  0  0
   20.8969    1.8162   26.7741 O   0  0  0  0  0  0  0  0  0  0  0  0
  1  3  1  1  0  0  0
  1 21  1  0  0  0  0
  1 22  1  0  0  0  0
  1 23  2  0  0  0  0
  2  3  1  0  0  0  0
  4  2  1  6  0  0  0
  4  5  1  0  0  0  0
  4  6  1  0  0  0  0
  6  7  1  1  0  0  0
  6  8  1  0  0  0  0
  8  9  1  0  0  0  0
  9  5  1  6  0  0  0
  9 20  1  0  0  0  0
 10 11  1  0  0  0  0
 10 16  1  0  0  0  0
 11 12  1  6  0  0  0
 11 13  1  0  0  0  0
 14 13  1  1  0  0  0
 14 15  1  0  0  0  0
 14 20  1  0  0  0  0
 15 16  1  6  0  0  0
 15 18  1  0  0  0  0
 16 17  2  0  0  0  0
 18 19  1  0  0  0  0
 20 19  1  6  0  0  0
M  CHG  1  22  -1
M  END
>  <CHROM.1>
170.96131740,53.18858055,-179.72693195,-110.17874230,21.97126305,0.65582717
30.45179104,-3.00825454,-0.90626155,0.97798825

>  <Name>
ligand

>  <RI>
0

>  <Rbt.Current_Directory>
/home/itssahil/PROJECTS/Mol_Feturizer/Test_systems_manuscript/rnas/3slm

>  <Rbt.Executable>
rbdock ($Id: //depot/dev/client3/rdock/2013.1/src/exe/rbdock.cxx#4 $)

>  <Rbt.Library>
libRbt.so (2013.1, Build901 2013/11/27)

>  <Rbt.Parameter_File>
/export/apps/rDock/src/rDock_2013.1_src/data/scripts/dock_solv.prm

>  <Rbt.Receptor>
prm/pocket_docking_7.prm

>  <SCORE>
-21.1526

>  <SCORE.INTER>
-15.9643

>  <SCORE.INTER.CONST>
1

>  <SCORE.INTER.POLAR>
0

>  <SCORE.INTER.ROT>
4

>  <SCORE.INTER.SOLV>
19.627

>  <SCORE.INTER.VDW>
-23.4519

>  <SCORE.INTER.norm>
-0.694099

>  <SCORE.INTRA>
-5.18827

>  <SCORE.INTRA.DIHEDRAL>
-7.16914

>  <SCORE.INTRA.DIHEDRAL.0>
8.62657

>  <SCORE.INTRA.POLAR>
0

>  <SCORE.INTRA.POLAR.0>
0

>  <SCORE.INTRA.REPUL>
0

>  <SCORE.INTRA.REPUL.0>
0

>  <SCORE.INTRA.SOLV>
-0.00321112

>  <SCORE.INTRA.SOLV.lig_0>
-66.3641

>  <SCORE.INTRA.VDW>
-1.6021

>  <SCORE.INTRA.VDW.0>
0.452231

>  <SCORE.INTRA.norm>
-0.225577

>  <SCORE.RESTR>
0

>  <SCORE.RESTR.CAVITY>
0

>  <SCORE.RESTR.norm>
0

>  <SCORE.SYSTEM>
0

>  <SCORE.SYSTEM.CONST>
0

>  <SCORE.SYSTEM.DIHEDRAL>
0

>  <SCORE.SYSTEM.SOLV>
0

>  <SCORE.SYSTEM.norm>
0

>  <SCORE.heavy>
23

>  <SCORE.norm>
-0.919676

>  <RMSD>
7.591

$$$$
ligand
 OpenBabel02271912143D
libRbt.so/2013.1/901 2013/11/27
 23 25  0  0  0  0  0  0  0  0999 V2000
   19.4650    1.6979   27.3060 P   0  0  1  0  0  0  0  0  0  0  0  0
   20.4693    2.8625   29.4250 C   0  0  0  0  0  0  0  0  0  0  0  0
   19.6662    1.8157   28.8978 O   0  0  0  0  0  0  0  0  0  0  0  0
   20.4894    2.7015   30.9284 C   0  0  1  0  0  0  0  0  0  0  0  0
   20.9284    1.4022   31.3234 O   0  0  0  0  0  0  0  0  0  0  0  0
   21.4472    3.7184   31.5260 C   0  0  1  0  0  0  0  0  0  0  0  0
   20.7880    4.3577   32.6327 O   0  0  0  0  0  0  0  0  0  0  0  0
   22.6625    2.9132   31.9687 C   0  0  0  0  0  0  0  0  0  0  0  0
   22.1455    1.4811   32.0768 C   0  0  2  0  0  0  0  0  0  0  0  0
   24.6626   -2.9958   32.4681 N   0  0  0  0  0  0  0  0  0  0  0  0
   23.8376   -2.4298   33.3640 C   0  0  2  0  0  0  0  0  0  0  0  0
   23.6082   -3.0950   34.5201 N   0  0  0  0  0  0  0  0  0  0  0  0
   23.2470   -1.2364   33.1134 N   0  0  0  0  0  0  0  0  0  0  0  0
   23.4908   -0.6031   31.9475 C   0  0  2  0  0  0  0  0  0  0  0  0
   24.3366   -1.1697   31.0186 C   0  0  1  0  0  0  0  0  0  0  0  0
   24.9206   -2.3914   31.2942 C   0  0  0  0  0  0  0  0  0  0  0  0
   25.6856   -2.9252   30.4621 O   0  0  0  0  0  0  0  0  0  0  0  0
   24.4124   -0.3386   29.9603 N   0  0  0  0  0  0  0  0  0  0  0  0
   23.6241    0.7184   30.2242 C   0  0  0  0  0  0  0  0  0  0  0  0
   23.0803    0.5512   31.4346 N   0  0  1  0  0  0  0  0  0  0  0  0
   18.8004    0.3686   27.0424 O   0  0  0  0  0  0  0  0  0  0  0  0
   18.6172    2.8992   26.9563 O   0  5  0  0  0  0  0  0  0  0  0  0
   20.8754    1.7774   26.7875 O   0  0  0  0  0  0  0  0  0  0  0  0
  1  3  1  1  0  0  0
  1 21  1  0  0  0  0
  1 22  1  0  0  0  0
  1 23  2  0  0  0  0
  2  3  1  0  0  0  0
  4  2  1  6  0  0  0
  4  5  1  0  0  0  0
  4  6  1  0  0  0  0
  6  7  1  1  0  0  0
  6  8  1  0  0  0  0
  8  9  1  0  0  0  0
  9  5  1  6  0  0  0
  9 20  1  0  0  0  0
 10 11  1  0  0  0  0
 10 16  1  0  0  0  0
 11 12  1  6  0  0  0
 11 13  1  0  0  0  0
 14 13  1  1  0  0  0
 14 15  1  0  0  0  0
 14 20  1  0  0  0  0
 15 16  1  6  0  0  0
 15 18  1  0  0  0  0
 16 17  2  0  0  0  0
 18 19  1  0  0  0  0
 20 19  1  6  0  0  0
M  CHG  1  22  -1
M  END
>  <CHROM.1>
169.51719313,55.07830637,-179.07310543,-109.19400292,21.98516403,0.65076254
30.45869464,-3.02497711,-0.90299380,0.95631680

>  <Name>
ligand

>  <RI>
0

>  <Rbt.Current_Directory>
/home/itssahil/PROJECTS/Mol_Feturizer/Test_systems_manuscript/rnas/3slm

>  <Rbt.Executable>
rbdock ($Id: //depot/dev/client3/rdock/2013.1/src/exe/rbdock.cxx#4 $)

>  <Rbt.Library>
libRbt.so (2013.1, Build901 2013/11/27)

>  <Rbt.Parameter_File>
/export/apps/rDock/src/rDock_2013.1_src/data/scripts/dock_solv.prm

>  <Rbt.Receptor>
prm/pocket_docking_7.prm

>  <SCORE>
-21.1064

>  <SCORE.INTER>
-15.9286

>  <SCORE.INTER.CONST>
1

>  <SCORE.INTER.POLAR>
0

>  <SCORE.INTER.ROT>
4

>  <SCORE.INTER.SOLV>
19.6786

>  <SCORE.INTER.VDW>
-23.4453

>  <SCORE.INTER.norm>
-0.69255

>  <SCORE.INTRA>
-5.17771

>  <SCORE.INTRA.DIHEDRAL>
-7.20438

>  <SCORE.INTRA.DIHEDRAL.0>
8.62657

>  <SCORE.INTRA.POLAR>
0

>  <SCORE.INTRA.POLAR.0>
0

>  <SCORE.INTRA.REPUL>
0

>  <SCORE.INTRA.REPUL.0>
0

>  <SCORE.INTRA.SOLV>
-0.00921867

>  <SCORE.INTRA.SOLV.lig_0>
-66.3641

>  <SCORE.INTRA.VDW>
-1.57091

>  <SCORE.INTRA.VDW.0>
0.452231

>  <SCORE.INTRA.norm>
-0.225118

>  <SCORE.RESTR>
0

>  <SCORE.RESTR.CAVITY>
0

>  <SCORE.RESTR.norm>
0

>  <SCORE.SYSTEM>
0

>  <SCORE.SYSTEM.CONST>
0

>  <SCORE.SYSTEM.DIHEDRAL>
0

>  <SCORE.SYSTEM.SOLV>
0

>  <SCORE.SYSTEM.norm>
0

>  <SCORE.heavy>
23

>  <SCORE.norm>
-0.917667

>  <RMSD>
7.602

$$$$
ligand
 OpenBabel02271912143D
libRbt.so/2013.1/901 2013/11/27
 23 25  0  0  0  0  0  0  0  0999 V2000
   19.9497    5.5243   32.7405 P   0  0  1  0  0  0  0  0  0  0  0  0
   20.9703    4.2197   30.7128 C   0  0  0  0  0  0  0  0  0  0  0  0
   21.1997    4.9210   31.9270 O   0  0  0  0  0  0  0  0  0  0  0  0
   22.3220    3.8841   30.1240 C   0  0  1  0  0  0  0  0  0  0  0  0
   23.1071    3.0815   31.0051 O   0  0  0  0  0  0  0  0  0  0  0  0
   22.1246    3.1043   28.8350 C   0  0  1  0  0  0  0  0  0  0  0  0
   22.9742    3.6811   27.8283 O   0  0  0  0  0  0  0  0  0  0  0  0
   22.5204    1.6713   29.1683 C   0  0  0  0  0  0  0  0  0  0  0  0
   23.3817    1.8010   30.4217 C   0  0  2  0  0  0  0  0  0  0  0  0
   24.4593   -2.7409   32.5992 N   0  0  0  0  0  0  0  0  0  0  0  0
   25.1186   -2.1228   31.6058 C   0  0  2  0  0  0  0  0  0  0  0  0
   26.2125   -2.7357   31.0965 N   0  0  0  0  0  0  0  0  0  0  0  0
   24.7069   -0.9203   31.1363 N   0  0  0  0  0  0  0  0  0  0  0  0
   23.6169   -0.3328   31.6716 C   0  0  2  0  0  0  0  0  0  0  0  0
   22.9281   -0.9550   32.6902 C   0  0  1  0  0  0  0  0  0  0  0  0
   23.3724   -2.1774   33.1571 C   0  0  0  0  0  0  0  0  0  0  0  0
   22.7655   -2.7551   34.0847 O   0  0  0  0  0  0  0  0  0  0  0  0
   21.8889   -0.1686   33.0336 N   0  0  0  0  0  0  0  0  0  0  0  0
   21.9363    0.9226   32.2490 C   0  0  0  0  0  0  0  0  0  0  0  0
   22.9807    0.8061   31.4218 N   0  0  1  0  0  0  0  0  0  0  0  0
   18.9491    4.4063   32.9047 O   0  0  0  0  0  0  0  0  0  0  0  0
   20.5587    6.0114   34.0352 O   0  5  0  0  0  0  0  0  0  0  0  0
   19.4716    6.6306   31.8394 O   0  0  0  0  0  0  0  0  0  0  0  0
  1  3  1  6  0  0  0
  1 21  1  0  0  0  0
  1 22  1  0  0  0  0
  1 23  2  0  0  0  0
  2  3  1  0  0  0  0
  4  2  1  1  0  0  0
  4  5  1  0  0  0  0
  4  6  1  0  0  0  0
  6  7  1  6  0  0  0
  6  8  1  0  0  0  0
  8  9  1  0  0  0  0
  9  5  1  1  0  0  0
  9 20  1  0  0  0  0
 10 11  1  0  0  0  0
 10 16  1  0  0  0  0
 11 12  1  1  0  0  0
 11 13  1  0  0  0  0
 14 13  1  6  0  0  0
 14 15  1  0  0  0  0
 14 20  1  0  0  0  0
 15 16  1  1  0  0  0
 15 18  1  0  0  0  0
 16 17  2  0  0  0  0
 18 19  1  0  0  0  0
 20 19  1  1  0  0  0
M  CHG  1  22  -1
M  END
>  <CHROM.1>
51.05614787,59.34455508,175.11424240,-142.43707976,22.29649866,1.90224647
31.64574485,2.45694805,0.92003263,-0.79305664

>  <Name>
ligand

>  <RI>
0

>  <Rbt.Current_Directory>
/home/itssahil/PROJECTS/Mol_Feturizer/Test_systems_manuscript/rnas/3slm

>  <Rbt.Executable>
rbdock ($Id: //depot/dev/client3/rdock/2013.1/src/exe/rbdock.cxx#4 $)

>  <Rbt.Library>
libRbt.so (2013.1, Build901 2013/11/27)

>  <Rbt.Parameter_File>
/export/apps/rDock/src/rDock_2013.1_src/data/scripts/dock_solv.prm

>  <Rbt.Receptor>
prm/pocket_docking_7.prm

>  <SCORE>
-21.9664

>  <SCORE.INTER>
-16.0899

>  <SCORE.INTER.CONST>
1

>  <SCORE.INTER.POLAR>
0

>  <SCORE.INTER.ROT>
4

>  <SCORE.INTER.SOLV>
19.1681

>  <SCORE.INTER.VDW>
-23.3826

>  <SCORE.INTER.norm>
-0.699561

>  <SCORE.INTRA>
-5.87648

>  <SCORE.INTRA.DIHEDRAL>
-7.13701

>  <SCORE.INTRA.DIHEDRAL.0>
8.62657

>  <SCORE.INTRA.POLAR>
0

>  <SCORE.INTRA.POLAR.0>
0

>  <SCORE.INTRA.REPUL>
0

>  <SCORE.INTRA.REPUL.0>
0

>  <SCORE.INTRA.SOLV>
-0.712938

>  <SCORE.INTRA.SOLV.lig_0>
-66.3641

>  <SCORE.INTRA.VDW>
-1.95151

>  <SCORE.INTRA.VDW.0>
0.452231

>  <SCORE.INTRA.norm>
-0.255499

>  <SCORE.RESTR>
0

>  <SCORE.RESTR.CAVITY>
0

>  <SCORE.RESTR.norm>
0

>  <SCORE.SYSTEM>
0

>  <SCORE.SYSTEM.CONST>
0

>  <SCORE.SYSTEM.DIHEDRAL>
0

>  <SCORE.SYSTEM.SOLV>
0

>  <SCORE.SYSTEM.norm>
0

>  <SCORE.heavy>
23

>  <SCORE.norm>
-0.95506

>  <RMSD>
7.608

$$$$
ligand
 OpenBabel02271912143D
libRbt.so/2013.1/901 2013/11/27
 23 25  0  0  0  0  0  0  0  0999 V2000
   19.8338    5.9358   32.6031 P   0  0  1  0  0  0  0  0  0  0  0  0
   20.2606    3.7562   31.2165 C   0  0  0  0  0  0  0  0  0  0  0  0
   20.0574    4.3464   32.4929 O   0  0  0  0  0  0  0  0  0  0  0  0
   21.7113    3.9696   30.8473 C   0  0  1  0  0  0  0  0  0  0  0  0
   22.5972    3.2893   31.7358 O   0  0  0  0  0  0  0  0  0  0  0  0
   21.9535    3.4328   29.4467 C   0  0  1  0  0  0  0  0  0  0  0  0
   22.6861    4.4253   28.7074 O   0  0  0  0  0  0  0  0  0  0  0  0
   22.7563    2.1526   29.6407 C   0  0  0  0  0  0  0  0  0  0  0  0
   23.3550    2.2925   31.0378 C   0  0  2  0  0  0  0  0  0  0  0  0
   24.9112   -2.5773   31.6665 N   0  0  0  0  0  0  0  0  0  0  0  0
   25.3432   -1.6809   30.7645 C   0  0  2  0  0  0  0  0  0  0  0  0
   26.3143   -2.0675   29.9048 N   0  0  0  0  0  0  0  0  0  0  0  0
   24.8297   -0.4277   30.7239 N   0  0  0  0  0  0  0  0  0  0  0  0
   23.8681   -0.0720   31.6005 C   0  0  2  0  0  0  0  0  0  0  0  0
   23.4126   -0.9808   32.5310 C   0  0  1  0  0  0  0  0  0  0  0  0
   23.9577   -2.2504   32.5574 C   0  0  0  0  0  0  0  0  0  0  0  0
   23.5629   -3.0873   33.3977 O   0  0  0  0  0  0  0  0  0  0  0  0
   22.4586   -0.3804   33.2697 N   0  0  0  0  0  0  0  0  0  0  0  0
   22.3300    0.8774   32.8117 C   0  0  0  0  0  0  0  0  0  0  0  0
   23.1813    1.0483   31.7945 N   0  0  1  0  0  0  0  0  0  0  0  0
   19.5146    6.2374   34.0471 O   0  0  0  0  0  0  0  0  0  0  0  0
   21.1396    6.5217   32.1175 O   0  5  0  0  0  0  0  0  0  0  0  0
   18.6770    6.1725   31.6703 O   0  0  0  0  0  0  0  0  0  0  0  0
  1  3  1  6  0  0  0
  1 21  1  0  0  0  0
  1 22  1  0  0  0  0
  1 23  2  0  0  0  0
  2  3  1  0  0  0  0
  4  2  1  1  0  0  0
  4  5  1  0  0  0  0
  4  6  1  0  0  0  0
  6  7  1  6  0  0  0
  6  8  1  0  0  0  0
  8  9  1  0  0  0  0
  9  5  1  1  0  0  0
  9 20  1  0  0  0  0
 10 11  1  0  0  0  0
 10 16  1  0  0  0  0
 11 12  1  1  0  0  0
 11 13  1  0  0  0  0
 14 13  1  6  0  0  0
 14 15  1  0  0  0  0
 14 20  1  0  0  0  0
 15 16  1  1  0  0  0
 15 18  1  0  0  0  0
 16 17  2  0  0  0  0
 18 19  1  0  0  0  0
 20 19  1  1  0  0  0
M  CHG  1  22  -1
M  END
>  <CHROM.1>
174.57733019,64.22856190,80.58587975,-169.69425780,22.32629803,2.14132062
31.65522492,2.49151094,0.87176042,-0.73065339

>  <Name>
ligand

>  <RI>
0

>  <Rbt.Current_Directory>
/home/itssahil/PROJECTS/Mol_Feturizer/Test_systems_manuscript/rnas/3slm

>  <Rbt.Executable>
rbdock ($Id: //depot/dev/client3/rdock/2013.1/src/exe/rbdock.cxx#4 $)

>  <Rbt.Library>
libRbt.so (2013.1, Build901 2013/11/27)

>  <Rbt.Parameter_File>
/export/apps/rDock/src/rDock_2013.1_src/data/scripts/dock_solv.prm

>  <Rbt.Receptor>
prm/pocket_docking_8.prm

>  <SCORE>
-19.967

>  <SCORE.INTER>
-16.6973

>  <SCORE.INTER.CONST>
1

>  <SCORE.INTER.POLAR>
0

>  <SCORE.INTER.ROT>
4

>  <SCORE.INTER.SOLV>
17.0955

>  <SCORE.INTER.VDW>
-23.0967

>  <SCORE.INTER.norm>
-0.725969

>  <SCORE.INTRA>
-3.26975

>  <SCORE.INTRA.DIHEDRAL>
-5.39678

>  <SCORE.INTRA.DIHEDRAL.0>
8.62657

>  <SCORE.INTRA.POLAR>
0

>  <SCORE.INTRA.POLAR.0>
0

>  <SCORE.INTRA.REPUL>
0

>  <SCORE.INTRA.REPUL.0>
0

>  <SCORE.INTRA.SOLV>
2.13422

>  <SCORE.INTRA.SOLV.lig_0>
-66.3641

>  <SCORE.INTRA.VDW>
-1.63847

>  <SCORE.INTRA.VDW.0>
0.452231

>  <SCORE.INTRA.norm>
-0.142163

>  <SCORE.RESTR>
0

>  <SCORE.RESTR.CAVITY>
0

>  <SCORE.RESTR.norm>
0

>  <SCORE.SYSTEM>
0

>  <SCORE.SYSTEM.CONST>
0

>  <SCORE.SYSTEM.DIHEDRAL>
0

>  <SCORE.SYSTEM.SOLV>
0

>  <SCORE.SYSTEM.norm>
0

>  <SCORE.heavy>
23

>  <SCORE.norm>
-0.868132

>  <RMSD>
7.611

$$$$
ligand
 OpenBabel02271912143D
libRbt.so/2013.1/901 2013/11/27
 23 25  0  0  0  0  0  0  0  0999 V2000
   19.4834    1.7020   27.3946 P   0  0  1  0  0  0  0  0  0  0  0  0
   20.5142    2.8581   29.5056 C   0  0  0  0  0  0  0  0  0  0  0  0
   19.7337    1.7929   28.9813 O   0  0  0  0  0  0  0  0  0  0  0  0
   20.5473    2.6951   31.0085 C   0  0  1  0  0  0  0  0  0  0  0  0
   20.9831    1.3930   31.3979 O   0  0  0  0  0  0  0  0  0  0  0  0
   21.5159    3.7062   31.5985 C   0  0  1  0  0  0  0  0  0  0  0  0
   20.8702    4.3476   32.7119 O   0  0  0  0  0  0  0  0  0  0  0  0
   22.7309    2.8941   32.0291 C   0  0  0  0  0  0  0  0  0  0  0  0
   22.2075    1.4647   32.1401 C   0  0  2  0  0  0  0  0  0  0  0  0
   24.6363   -3.0661   32.4638 N   0  0  0  0  0  0  0  0  0  0  0  0
   23.8126   -2.5032   33.3628 C   0  0  2  0  0  0  0  0  0  0  0  0
   23.5587   -3.1876   34.5024 N   0  0  0  0  0  0  0  0  0  0  0  0
   23.2471   -1.2939   33.1311 N   0  0  0  0  0  0  0  0  0  0  0  0
   23.5149   -0.6415   31.9812 C   0  0  2  0  0  0  0  0  0  0  0  0
   24.3597   -1.2047   31.0493 C   0  0  1  0  0  0  0  0  0  0  0  0
   24.9179   -2.4427   31.3053 C   0  0  0  0  0  0  0  0  0  0  0  0
   25.6815   -2.9735   30.4702 O   0  0  0  0  0  0  0  0  0  0  0  0
   24.4622   -0.3536   30.0094 N   0  0  0  0  0  0  0  0  0  0  0  0
   23.6910    0.7125   30.2872 C   0  0  0  0  0  0  0  0  0  0  0  0
   23.1314    0.5307   31.4883 N   0  0  1  0  0  0  0  0  0  0  0  0
   18.8251    0.3703   27.1274 O   0  0  0  0  0  0  0  0  0  0  0  0
   18.6122    2.8998   27.0942 O   0  5  0  0  0  0  0  0  0  0  0  0
   20.8758    1.8067   26.8336 O   0  0  0  0  0  0  0  0  0  0  0  0
  1  3  1  1  0  0  0
  1 21  1  0  0  0  0
  1 22  1  0  0  0  0
  1 23  2  0  0  0  0
  2  3  1  0  0  0  0
  4  2  1  6  0  0  0
  4  5  1  0  0  0  0
  4  6  1  0  0  0  0
  6  7  1  1  0  0  0
  6  8  1  0  0  0  0
  8  9  1  0  0  0  0
  9  5  1  6  0  0  0
  9 20  1  0  0  0  0
 10 11  1  0  0  0  0
 10 16  1  0  0  0  0
 11 12  1  6  0  0  0
 11 13  1  0  0  0  0
 14 13  1  1  0  0  0
 14 15  1  0  0  0  0
 14 20  1  0  0  0  0
 15 16  1  6  0  0  0
 15 18  1  0  0  0  0
 16 17  2  0  0  0  0
 18 19  1  0  0  0  0
 20 19  1  6  0  0  0
M  CHG  1  22  -1
M  END
>  <CHROM.1>
171.08220755,53.37357203,178.81920875,-107.43391552,22.01318775,0.62832151
30.51392261,-3.05671233,-0.90800427,0.93441805

>  <Name>
ligand

>  <RI>
416

>  <Rbt.Current_Directory>
/home/itssahil/PROJECTS/Mol_Feturizer/Test_systems_manuscript/rnas/3slm

>  <Rbt.Executable>
rbdock ($Id: //depot/dev/client3/rdock/2013.1/src/exe/rbdock.cxx#4 $)

>  <Rbt.Library>
libRbt.so (2013.1, Build901 2013/11/27)

>  <Rbt.Parameter_File>
/export/apps/rDock/src/rDock_2013.1_src/data/scripts/dock_solv.prm

>  <Rbt.Receptor>
prm/pocket_docking_5.prm

>  <SCORE>
-21.2751

>  <SCORE.INTER>
-16.1529

>  <SCORE.INTER.CONST>
1

>  <SCORE.INTER.POLAR>
0

>  <SCORE.INTER.ROT>
4

>  <SCORE.INTER.SOLV>
19.9225

>  <SCORE.INTER.VDW>
-23.6761

>  <SCORE.INTER.norm>
-0.702301

>  <SCORE.INTRA>
-5.12221

>  <SCORE.INTRA.DIHEDRAL>
-7.18188

>  <SCORE.INTRA.DIHEDRAL.0>
8.62657

>  <SCORE.INTRA.POLAR>
0

>  <SCORE.INTRA.POLAR.0>
0

>  <SCORE.INTRA.REPUL>
0

>  <SCORE.INTRA.REPUL.0>
0

>  <SCORE.INTRA.SOLV>
-0.0078789

>  <SCORE.INTRA.SOLV.lig_0>
-66.3641

>  <SCORE.INTRA.VDW>
-1.52733

>  <SCORE.INTRA.VDW.0>
0.452231

>  <SCORE.INTRA.norm>
-0.222705

>  <SCORE.RESTR>
0

>  <SCORE.RESTR.CAVITY>
0

>  <SCORE.RESTR.norm>
0

>  <SCORE.SYSTEM>
0

>  <SCORE.SYSTEM.CONST>
0

>  <SCORE.SYSTEM.DIHEDRAL>
0

>  <SCORE.SYSTEM.SOLV>
0

>  <SCORE.SYSTEM.norm>
0

>  <SCORE.heavy>
23

>  <SCORE.norm>
-0.925006

>  <RMSD>
7.619

$$$$
ligand
 OpenBabel02271912143D
libRbt.so/2013.1/901 2013/11/27
 23 25  0  0  0  0  0  0  0  0999 V2000
   19.4645    1.8422   27.1582 P   0  0  1  0  0  0  0  0  0  0  0  0
   20.4562    2.8706   29.3523 C   0  0  0  0  0  0  0  0  0  0  0  0
   19.6648    1.8533   28.7544 O   0  0  0  0  0  0  0  0  0  0  0  0
   20.4093    2.6570   30.8485 C   0  0  1  0  0  0  0  0  0  0  0  0
   20.8436    1.3486   31.2180 O   0  0  0  0  0  0  0  0  0  0  0  0
   21.3281    3.6608   31.5244 C   0  0  1  0  0  0  0  0  0  0  0  0
   20.6123    4.2550   32.6211 O   0  0  0  0  0  0  0  0  0  0  0  0
   22.5303    2.8515   31.9944 C   0  0  0  0  0  0  0  0  0  0  0  0
   22.0241    1.4120   32.0288 C   0  0  2  0  0  0  0  0  0  0  0  0
   24.6878   -2.9761   32.4550 N   0  0  0  0  0  0  0  0  0  0  0  0
   23.8341   -2.4374   33.3409 C   0  0  2  0  0  0  0  0  0  0  0  0
   23.6149   -3.1086   34.4955 N   0  0  0  0  0  0  0  0  0  0  0  0
   23.2061   -1.2651   33.0819 N   0  0  0  0  0  0  0  0  0  0  0  0
   23.4410   -0.6254   31.9177 C   0  0  2  0  0  0  0  0  0  0  0  0
   24.3157   -1.1640   30.9990 C   0  0  1  0  0  0  0  0  0  0  0  0
   24.9379   -2.3648   31.2830 C   0  0  0  0  0  0  0  0  0  0  0  0
   25.7297   -2.8732   30.4602 O   0  0  0  0  0  0  0  0  0  0  0  0
   24.3748   -0.3321   29.9403 N   0  0  0  0  0  0  0  0  0  0  0  0
   23.5481    0.6978   30.1938 C   0  0  0  0  0  0  0  0  0  0  0  0
   22.9970    0.5137   31.3984 N   0  0  1  0  0  0  0  0  0  0  0  0
   20.8351    1.9776   26.5406 O   0  0  0  0  0  0  0  0  0  0  0  0
   18.7855    0.5198   26.8855 O   0  5  0  0  0  0  0  0  0  0  0  0
   18.5811    3.0383   26.9273 O   0  0  0  0  0  0  0  0  0  0  0  0
  1  3  1  1  0  0  0
  1 21  1  0  0  0  0
  1 22  1  0  0  0  0
  1 23  2  0  0  0  0
  2  3  1  0  0  0  0
  4  2  1  6  0  0  0
  4  5  1  0  0  0  0
  4  6  1  0  0  0  0
  6  7  1  1  0  0  0
  6  8  1  0  0  0  0
  8  9  1  0  0  0  0
  9  5  1  6  0  0  0
  9 20  1  0  0  0  0
 10 11  1  0  0  0  0
 10 16  1  0  0  0  0
 11 12  1  6  0  0  0
 11 13  1  0  0  0  0
 14 13  1  1  0  0  0
 14 15  1  0  0  0  0
 14 20  1  0  0  0  0
 15 16  1  6  0  0  0
 15 18  1  0  0  0  0
 16 17  2  0  0  0  0
 18 19  1  0  0  0  0
 20 19  1  6  0  0  0
M  CHG  1  22  -1
M  END
>  <CHROM.1>
49.42341028,56.34940161,177.54265259,-112.39986771,21.94226935,0.67222952
30.39644617,-2.93995269,-0.90133994,1.05389059

>  <Name>
ligand

>  <RI>
0

>  <Rbt.Current_Directory>
/home/itssahil/PROJECTS/Mol_Feturizer/Test_systems_manuscript/rnas/3slm

>  <Rbt.Executable>
rbdock ($Id: //depot/dev/client3/rdock/2013.1/src/exe/rbdock.cxx#4 $)

>  <Rbt.Library>
libRbt.so (2013.1, Build901 2013/11/27)

>  <Rbt.Parameter_File>
/export/apps/rDock/src/rDock_2013.1_src/data/scripts/dock_solv.prm

>  <Rbt.Receptor>
prm/pocket_docking_8.prm

>  <SCORE>
-19.7167

>  <SCORE.INTER>
-13.9962

>  <SCORE.INTER.CONST>
1

>  <SCORE.INTER.POLAR>
0

>  <SCORE.INTER.ROT>
4

>  <SCORE.INTER.SOLV>
23.0903

>  <SCORE.INTER.VDW>
-23.2943

>  <SCORE.INTER.norm>
-0.608532

>  <SCORE.INTRA>
-5.72044

>  <SCORE.INTRA.DIHEDRAL>
-7.20586

>  <SCORE.INTRA.DIHEDRAL.0>
8.62657

>  <SCORE.INTRA.POLAR>
0

>  <SCORE.INTRA.POLAR.0>
0

>  <SCORE.INTRA.REPUL>
0

>  <SCORE.INTRA.REPUL.0>
0

>  <SCORE.INTRA.SOLV>
-0.717665

>  <SCORE.INTRA.SOLV.lig_0>
-66.3641

>  <SCORE.INTRA.VDW>
-1.75868

>  <SCORE.INTRA.VDW.0>
0.452231

>  <SCORE.INTRA.norm>
-0.248715

>  <SCORE.RESTR>
0

>  <SCORE.RESTR.CAVITY>
0

>  <SCORE.RESTR.norm>
0

>  <SCORE.SYSTEM>
0

>  <SCORE.SYSTEM.CONST>
0

>  <SCORE.SYSTEM.DIHEDRAL>
0

>  <SCORE.SYSTEM.SOLV>
0

>  <SCORE.SYSTEM.norm>
0

>  <SCORE.heavy>
23

>  <SCORE.norm>
-0.857247

>  <RMSD>
7.619

$$$$
ligand
 OpenBabel02271912143D
libRbt.so/2013.1/901 2013/11/27
 23 25  0  0  0  0  0  0  0  0999 V2000
   22.7974    2.5688   27.5829 P   0  0  1  0  0  0  0  0  0  0  0  0
   20.9101    2.8650   29.3733 C   0  0  0  0  0  0  0  0  0  0  0  0
   22.2160    2.3927   29.0726 O   0  0  0  0  0  0  0  0  0  0  0  0
   20.7088    2.7143   30.8643 C   0  0  1  0  0  0  0  0  0  0  0  0
   21.0263    1.3992   31.3189 O   0  0  0  0  0  0  0  0  0  0  0  0
   21.6180    3.6907   31.5913 C   0  0  1  0  0  0  0  0  0  0  0  0
   20.8386    4.3678   32.5924 O   0  0  0  0  0  0  0  0  0  0  0  0
   22.7193    2.8340   32.2032 C   0  0  0  0  0  0  0  0  0  0  0  0
   22.1263    1.4279   32.2378 C   0  0  2  0  0  0  0  0  0  0  0  0
   24.4060   -3.1231   33.0272 N   0  0  0  0  0  0  0  0  0  0  0  0
   23.4971   -2.5080   33.8013 C   0  0  2  0  0  0  0  0  0  0  0  0
   23.1004   -3.1376   34.9317 N   0  0  0  0  0  0  0  0  0  0  0  0
   22.9875   -1.3010   33.4559 N   0  0  0  0  0  0  0  0  0  0  0  0
   23.3986   -0.7041   32.3182 C   0  0  2  0  0  0  0  0  0  0  0  0
   24.3321   -1.3212   31.5139 C   0  0  1  0  0  0  0  0  0  0  0  0
   24.8311   -2.5557   31.8838 C   0  0  0  0  0  0  0  0  0  0  0  0
   25.6737   -3.1350   31.1648 O   0  0  0  0  0  0  0  0  0  0  0  0
   24.5706   -0.5183   30.4581 N   0  0  0  0  0  0  0  0  0  0  0  0
   23.7955    0.5713   30.6007 C   0  0  0  0  0  0  0  0  0  0  0  0
   23.0987    0.4514   31.7360 N   0  0  1  0  0  0  0  0  0  0  0  0
   24.0890    1.7904   27.5185 O   0  0  0  0  0  0  0  0  0  0  0  0
   21.6987    2.0283   26.6969 O   0  5  0  0  0  0  0  0  0  0  0  0
   22.9876    4.0577   27.4759 O   0  0  0  0  0  0  0  0  0  0  0  0
  1  3  1  1  0  0  0
  1 21  1  0  0  0  0
  1 22  1  0  0  0  0
  1 23  2  0  0  0  0
  2  3  1  0  0  0  0
  4  2  1  6  0  0  0
  4  5  1  0  0  0  0
  4  6  1  0  0  0  0
  6  7  1  1  0  0  0
  6  8  1  0  0  0  0
  8  9  1  0  0  0  0
  9  5  1  6  0  0  0
  9 20  1  0  0  0  0
 10 11  1  0  0  0  0
 10 16  1  0  0  0  0
 11 12  1  6  0  0  0
 11 13  1  0  0  0  0
 14 13  1  1  0  0  0
 14 15  1  0  0  0  0
 14 20  1  0  0  0  0
 15 16  1  6  0  0  0
 15 18  1  0  0  0  0
 16 17  2  0  0  0  0
 18 19  1  0  0  0  0
 20 19  1  6  0  0  0
M  CHG  1  22  -1
M  END
>  <CHROM.1>
-171.32272738,-51.09281993,-173.33745219,-110.69456375,22.89525694,0.83121968
30.74646709,-2.04572471,-0.94471662,2.07287739

>  <Name>
ligand

>  <RI>
0

>  <Rbt.Current_Directory>
/home/itssahil/PROJECTS/Mol_Feturizer/Test_systems_manuscript/rnas/3slm

>  <Rbt.Executable>
rbdock ($Id: //depot/dev/client3/rdock/2013.1/src/exe/rbdock.cxx#4 $)

>  <Rbt.Library>
libRbt.so (2013.1, Build901 2013/11/27)

>  <Rbt.Parameter_File>
/export/apps/rDock/src/rDock_2013.1_src/data/scripts/dock_solv.prm

>  <Rbt.Receptor>
prm/pocket_docking_7.prm

>  <SCORE>
-17.4779

>  <SCORE.INTER>
-11.9792

>  <SCORE.INTER.CONST>
1

>  <SCORE.INTER.POLAR>
0

>  <SCORE.INTER.ROT>
4

>  <SCORE.INTER.SOLV>
16.4732

>  <SCORE.INTER.VDW>
-19.7439

>  <SCORE.INTER.norm>
-0.520836

>  <SCORE.INTRA>
-5.49864

>  <SCORE.INTRA.DIHEDRAL>
-6.81296

>  <SCORE.INTRA.DIHEDRAL.0>
8.62657

>  <SCORE.INTRA.POLAR>
0

>  <SCORE.INTRA.POLAR.0>
0

>  <SCORE.INTRA.REPUL>
0

>  <SCORE.INTRA.REPUL.0>
0

>  <SCORE.INTRA.SOLV>
0.494248

>  <SCORE.INTRA.SOLV.lig_0>
-66.3641

>  <SCORE.INTRA.VDW>
-2.33929

>  <SCORE.INTRA.VDW.0>
0.452231

>  <SCORE.INTRA.norm>
-0.239071

>  <SCORE.RESTR>
0

>  <SCORE.RESTR.CAVITY>
0

>  <SCORE.RESTR.norm>
0

>  <SCORE.SYSTEM>
0

>  <SCORE.SYSTEM.CONST>
0

>  <SCORE.SYSTEM.DIHEDRAL>
0

>  <SCORE.SYSTEM.SOLV>
0

>  <SCORE.SYSTEM.norm>
0

>  <SCORE.heavy>
23

>  <SCORE.norm>
-0.759907

>  <RMSD>
7.622

$$$$
ligand
 OpenBabel02271912143D
libRbt.so/2013.1/901 2013/11/27
 23 25  0  0  0  0  0  0  0  0999 V2000
   19.4804    1.7678   27.3546 P   0  0  1  0  0  0  0  0  0  0  0  0
   20.5214    2.8821   29.4830 C   0  0  0  0  0  0  0  0  0  0  0  0
   19.7252    1.8364   28.9432 O   0  0  0  0  0  0  0  0  0  0  0  0
   20.5306    2.7118   30.9855 C   0  0  1  0  0  0  0  0  0  0  0  0
   20.9578    1.4071   31.3753 O   0  0  0  0  0  0  0  0  0  0  0  0
   21.4916    3.7183   31.5954 C   0  0  1  0  0  0  0  0  0  0  0  0
   20.8297    4.3555   32.7017 O   0  0  0  0  0  0  0  0  0  0  0  0
   22.6983    2.9018   32.0410 C   0  0  0  0  0  0  0  0  0  0  0  0
   22.1706    1.4728   32.1370 C   0  0  2  0  0  0  0  0  0  0  0  0
   24.6196   -3.0444   32.4971 N   0  0  0  0  0  0  0  0  0  0  0  0
   23.7877   -2.4811   33.3885 C   0  0  2  0  0  0  0  0  0  0  0  0
   23.5305   -3.1613   34.5298 N   0  0  0  0  0  0  0  0  0  0  0  0
   23.2177   -1.2758   33.1475 N   0  0  0  0  0  0  0  0  0  0  0  0
   23.4892   -0.6276   31.9960 C   0  0  2  0  0  0  0  0  0  0  0  0
   24.3423   -1.1911   31.0719 C   0  0  1  0  0  0  0  0  0  0  0  0
   24.9049   -2.4251   31.3373 C   0  0  0  0  0  0  0  0  0  0  0  0
   25.6761   -2.9563   30.5092 O   0  0  0  0  0  0  0  0  0  0  0  0
   24.4468   -0.3446   30.0285 N   0  0  0  0  0  0  0  0  0  0  0  0
   23.6688    0.7190   30.2965 C   0  0  0  0  0  0  0  0  0  0  0  0
   23.1030    0.5403   31.4951 N   0  0  1  0  0  0  0  0  0  0  0  0
   18.7693    0.4664   27.0736 O   0  0  0  0  0  0  0  0  0  0  0  0
   18.6610    3.0028   27.0587 O   0  5  0  0  0  0  0  0  0  0  0  0
   20.8791    1.8192   26.8019 O   0  0  0  0  0  0  0  0  0  0  0  0
  1  3  1  1  0  0  0
  1 21  1  0  0  0  0
  1 22  1  0  0  0  0
  1 23  2  0  0  0  0
  2  3  1  0  0  0  0
  4  2  1  6  0  0  0
  4  5  1  0  0  0  0
  4  6  1  0  0  0  0
  6  7  1  1  0  0  0
  6  8  1  0  0  0  0
  8  9  1  0  0  0  0
  9  5  1  6  0  0  0
  9 20  1  0  0  0  0
 10 11  1  0  0  0  0
 10 16  1  0  0  0  0
 11 12  1  6  0  0  0
 11 13  1  0  0  0  0
 14 13  1  1  0  0  0
 14 15  1  0  0  0  0
 14 20  1  0  0  0  0
 15 16  1  6  0  0  0
 15 18  1  0  0  0  0
 16 17  2  0  0  0  0
 18 19  1  0  0  0  0
 20 19  1  6  0  0  0
M  CHG  1  22  -1
M  END
>  <CHROM.1>
172.48871725,54.51373679,178.11219252,-108.31066815,21.99644589,0.65696291
30.50946341,-3.03506919,-0.91342607,0.95481589

>  <Name>
ligand

>  <RI>
416

>  <Rbt.Current_Directory>
/home/itssahil/PROJECTS/Mol_Feturizer/Test_systems_manuscript/rnas/3slm

>  <Rbt.Executable>
rbdock ($Id: //depot/dev/client3/rdock/2013.1/src/exe/rbdock.cxx#4 $)

>  <Rbt.Library>
libRbt.so (2013.1, Build901 2013/11/27)

>  <Rbt.Parameter_File>
/export/apps/rDock/src/rDock_2013.1_src/data/scripts/dock_solv.prm

>  <Rbt.Receptor>
prm/pocket_docking_6.prm

>  <SCORE>
-21.2043

>  <SCORE.INTER>
-16.0109

>  <SCORE.INTER.CONST>
1

>  <SCORE.INTER.POLAR>
0

>  <SCORE.INTER.ROT>
4

>  <SCORE.INTER.SOLV>
19.6828

>  <SCORE.INTER.VDW>
-23.5016

>  <SCORE.INTER.norm>
-0.696127

>  <SCORE.INTRA>
-5.19336

>  <SCORE.INTRA.DIHEDRAL>
-7.25245

>  <SCORE.INTRA.DIHEDRAL.0>
8.62657

>  <SCORE.INTRA.POLAR>
0

>  <SCORE.INTRA.POLAR.0>
0

>  <SCORE.INTRA.REPUL>
0

>  <SCORE.INTRA.REPUL.0>
0

>  <SCORE.INTRA.SOLV>
-0.0124359

>  <SCORE.INTRA.SOLV.lig_0>
-66.3641

>  <SCORE.INTRA.VDW>
-1.56091

>  <SCORE.INTRA.VDW.0>
0.452231

>  <SCORE.INTRA.norm>
-0.225798

>  <SCORE.RESTR>
0

>  <SCORE.RESTR.CAVITY>
0

>  <SCORE.RESTR.norm>
0

>  <SCORE.SYSTEM>
0

>  <SCORE.SYSTEM.CONST>
0

>  <SCORE.SYSTEM.DIHEDRAL>
0

>  <SCORE.SYSTEM.SOLV>
0

>  <SCORE.SYSTEM.norm>
0

>  <SCORE.heavy>
23

>  <SCORE.norm>
-0.921925

>  <RMSD>
7.623

$$$$
ligand
 OpenBabel02271912143D
libRbt.so/2013.1/901 2013/11/27
 23 25  0  0  0  0  0  0  0  0999 V2000
   19.5026    5.2432   31.6851 P   0  0  1  0  0  0  0  0  0  0  0  0
   20.8215    3.7599   29.9777 C   0  0  0  0  0  0  0  0  0  0  0  0
   20.8729    4.6660   31.0710 O   0  0  0  0  0  0  0  0  0  0  0  0
   22.2451    3.3723   29.6465 C   0  0  1  0  0  0  0  0  0  0  0  0
   22.8815    2.6914   30.7274 O   0  0  0  0  0  0  0  0  0  0  0  0
   22.2417    2.4404   28.4464 C   0  0  1  0  0  0  0  0  0  0  0  0
   23.2386    2.9021   27.5185 O   0  0  0  0  0  0  0  0  0  0  0  0
   22.5729    1.0630   29.0070 C   0  0  0  0  0  0  0  0  0  0  0  0
   23.2337    1.3534   30.3519 C   0  0  2  0  0  0  0  0  0  0  0  0
   23.9725   -2.8356   33.2567 N   0  0  0  0  0  0  0  0  0  0  0  0
   24.7852   -2.3278   32.3158 C   0  0  2  0  0  0  0  0  0  0  0  0
   25.9565   -2.9642   32.0824 N   0  0  0  0  0  0  0  0  0  0  0  0
   24.4467   -1.2093   31.6300 N   0  0  0  0  0  0  0  0  0  0  0  0
   23.2750   -0.5946   31.8927 C   0  0  2  0  0  0  0  0  0  0  0  0
   22.4290   -1.1043   32.8538 C   0  0  1  0  0  0  0  0  0  0  0  0
   22.8002   -2.2418   33.5451 C   0  0  0  0  0  0  0  0  0  0  0  0
   22.0500   -2.7162   34.4252 O   0  0  0  0  0  0  0  0  0  0  0  0
   21.3379   -0.3153   32.9114 N   0  0  0  0  0  0  0  0  0  0  0  0
   21.5068    0.6679   32.0096 C   0  0  0  0  0  0  0  0  0  0  0  0
   22.6785    0.4814   31.3922 N   0  0  1  0  0  0  0  0  0  0  0  0
   18.6625    4.0544   32.0840 O   0  0  0  0  0  0  0  0  0  0  0  0
   19.9559    6.1030   32.8425 O   0  5  0  0  0  0  0  0  0  0  0  0
   18.9283    6.0255   30.5350 O   0  0  0  0  0  0  0  0  0  0  0  0
  1  3  1  6  0  0  0
  1 21  1  0  0  0  0
  1 22  1  0  0  0  0
  1 23  2  0  0  0  0
  2  3  1  0  0  0  0
  4  2  1  1  0  0  0
  4  5  1  0  0  0  0
  4  6  1  0  0  0  0
  6  7  1  6  0  0  0
  6  8  1  0  0  0  0
  8  9  1  0  0  0  0
  9  5  1  1  0  0  0
  9 20  1  0  0  0  0
 10 11  1  0  0  0  0
 10 16  1  0  0  0  0
 11 12  1  1  0  0  0
 11 13  1  0  0  0  0
 14 13  1  6  0  0  0
 14 15  1  0  0  0  0
 14 20  1  0  0  0  0
 15 16  1  1  0  0  0
 15 18  1  0  0  0  0
 16 17  2  0  0  0  0
 18 19  1  0  0  0  0
 20 19  1  1  0  0  0
M  CHG  1  22  -1
M  END
>  <CHROM.1>
56.23376951,62.62366371,-178.69129332,-140.86871404,21.97983767,1.58697941
31.39458721,2.29805760,0.80384251,-0.79789449

>  <Name>
ligand

>  <RI>
416

>  <Rbt.Current_Directory>
/home/itssahil/PROJECTS/Mol_Feturizer/Test_systems_manuscript/rnas/3slm

>  <Rbt.Executable>
rbdock ($Id: //depot/dev/client3/rdock/2013.1/src/exe/rbdock.cxx#4 $)

>  <Rbt.Library>
libRbt.so (2013.1, Build901 2013/11/27)

>  <Rbt.Parameter_File>
/export/apps/rDock/src/rDock_2013.1_src/data/scripts/dock_solv.prm

>  <Rbt.Receptor>
prm/pocket_docking_5.prm

>  <SCORE>
-20.2205

>  <SCORE.INTER>
-14.2418

>  <SCORE.INTER.CONST>
1

>  <SCORE.INTER.POLAR>
0

>  <SCORE.INTER.ROT>
4

>  <SCORE.INTER.SOLV>
15.5696

>  <SCORE.INTER.VDW>
-20.9511

>  <SCORE.INTER.norm>
-0.61921

>  <SCORE.INTRA>
-5.97866

>  <SCORE.INTRA.DIHEDRAL>
-7.32095

>  <SCORE.INTRA.DIHEDRAL.0>
8.62657

>  <SCORE.INTRA.POLAR>
0

>  <SCORE.INTRA.POLAR.0>
0

>  <SCORE.INTRA.REPUL>
0

>  <SCORE.INTRA.REPUL.0>
0

>  <SCORE.INTRA.SOLV>
-0.691293

>  <SCORE.INTRA.SOLV.lig_0>
-66.3641

>  <SCORE.INTRA.VDW>
-1.97254

>  <SCORE.INTRA.VDW.0>
0.452231

>  <SCORE.INTRA.norm>
-0.259942

>  <SCORE.RESTR>
0

>  <SCORE.RESTR.CAVITY>
0

>  <SCORE.RESTR.norm>
0

>  <SCORE.SYSTEM>
0

>  <SCORE.SYSTEM.CONST>
0

>  <SCORE.SYSTEM.DIHEDRAL>
0

>  <SCORE.SYSTEM.SOLV>
0

>  <SCORE.SYSTEM.norm>
0

>  <SCORE.heavy>
23

>  <SCORE.norm>
-0.879152

>  <RMSD>
7.628

$$$$
ligand
 OpenBabel02271912143D
libRbt.so/2013.1/901 2013/11/27
 23 25  0  0  0  0  0  0  0  0999 V2000
   19.4702    1.6739   27.2504 P   0  0  1  0  0  0  0  0  0  0  0  0
   20.4697    2.7933   29.3959 C   0  0  0  0  0  0  0  0  0  0  0  0
   19.6728    1.7543   28.8444 O   0  0  0  0  0  0  0  0  0  0  0  0
   20.4587    2.6204   30.8981 C   0  0  1  0  0  0  0  0  0  0  0  0
   20.9093    1.3250   31.2928 O   0  0  0  0  0  0  0  0  0  0  0  0
   21.3867    3.6473   31.5248 C   0  0  1  0  0  0  0  0  0  0  0  0
   20.6929    4.2673   32.6214 O   0  0  0  0  0  0  0  0  0  0  0  0
   22.6044    2.8577   31.9886 C   0  0  0  0  0  0  0  0  0  0  0  0
   22.1079    1.4169   32.0739 C   0  0  2  0  0  0  0  0  0  0  0  0
   24.7163   -3.0037   32.5054 N   0  0  0  0  0  0  0  0  0  0  0  0
   23.8670   -2.4549   33.3892 C   0  0  2  0  0  0  0  0  0  0  0  0
   23.6364   -3.1238   34.5429 N   0  0  0  0  0  0  0  0  0  0  0  0
   23.2540   -1.2749   33.1290 N   0  0  0  0  0  0  0  0  0  0  0  0
   23.4999   -0.6377   31.9657 C   0  0  2  0  0  0  0  0  0  0  0  0
   24.3704   -1.1865   31.0491 C   0  0  1  0  0  0  0  0  0  0  0  0
   24.9771   -2.3950   31.3342 C   0  0  0  0  0  0  0  0  0  0  0  0
   25.7648   -2.9128   30.5134 O   0  0  0  0  0  0  0  0  0  0  0  0
   24.4425   -0.3551   29.9909 N   0  0  0  0  0  0  0  0  0  0  0  0
   23.6279    0.6847   30.2427 C   0  0  0  0  0  0  0  0  0  0  0  0
   23.0713    0.5070   31.4458 N   0  0  1  0  0  0  0  0  0  0  0  0
   18.8557    0.3282   26.9511 O   0  0  0  0  0  0  0  0  0  0  0  0
   18.5761    2.8514   26.9370 O   0  5  0  0  0  0  0  0  0  0  0  0
   20.8747    1.8215   26.7307 O   0  0  0  0  0  0  0  0  0  0  0  0
  1  3  1  1  0  0  0
  1 21  1  0  0  0  0
  1 22  1  0  0  0  0
  1 23  2  0  0  0  0
  2  3  1  0  0  0  0
  4  2  1  6  0  0  0
  4  5  1  0  0  0  0
  4  6  1  0  0  0  0
  6  7  1  1  0  0  0
  6  8  1  0  0  0  0
  8  9  1  0  0  0  0
  9  5  1  6  0  0  0
  9 20  1  0  0  0  0
 10 11  1  0  0  0  0
 10 16  1  0  0  0  0
 11 12  1  6  0  0  0
 11 13  1  0  0  0  0
 14 13  1  1  0  0  0
 14 15  1  0  0  0  0
 14 20  1  0  0  0  0
 15 16  1  6  0  0  0
 15 18  1  0  0  0  0
 16 17  2  0  0  0  0
 18 19  1  0  0  0  0
 20 19  1  6  0  0  0
M  CHG  1  22  -1
M  END
>  <CHROM.1>
167.69348326,56.24721493,179.25740799,-109.99678848,21.98683504,0.61328477
30.45149014,-2.98115391,-0.89655273,0.99711388

>  <Name>
ligand

>  <RI>
0

>  <Rbt.Current_Directory>
/home/itssahil/PROJECTS/Mol_Feturizer/Test_systems_manuscript/rnas/3slm

>  <Rbt.Executable>
rbdock ($Id: //depot/dev/client3/rdock/2013.1/src/exe/rbdock.cxx#4 $)

>  <Rbt.Library>
libRbt.so (2013.1, Build901 2013/11/27)

>  <Rbt.Parameter_File>
/export/apps/rDock/src/rDock_2013.1_src/data/scripts/dock_solv.prm

>  <Rbt.Receptor>
prm/blind_docking_80.prm

>  <SCORE>
-21.0242

>  <SCORE.INTER>
-15.8867

>  <SCORE.INTER.CONST>
1

>  <SCORE.INTER.POLAR>
0

>  <SCORE.INTER.ROT>
4

>  <SCORE.INTER.SOLV>
19.5956

>  <SCORE.INTER.VDW>
-23.3897

>  <SCORE.INTER.norm>
-0.690725

>  <SCORE.INTRA>
-5.13752

>  <SCORE.INTRA.DIHEDRAL>
-7.17821

>  <SCORE.INTRA.DIHEDRAL.0>
8.62657

>  <SCORE.INTRA.POLAR>
0

>  <SCORE.INTRA.POLAR.0>
0

>  <SCORE.INTRA.REPUL>
0

>  <SCORE.INTRA.REPUL.0>
0

>  <SCORE.INTRA.SOLV>
-0.0200075

>  <SCORE.INTRA.SOLV.lig_0>
-66.3641

>  <SCORE.INTRA.VDW>
-1.53841

>  <SCORE.INTRA.VDW.0>
0.452231

>  <SCORE.INTRA.norm>
-0.22337

>  <SCORE.RESTR>
0

>  <SCORE.RESTR.CAVITY>
0

>  <SCORE.RESTR.norm>
0

>  <SCORE.SYSTEM>
0

>  <SCORE.SYSTEM.CONST>
0

>  <SCORE.SYSTEM.DIHEDRAL>
0

>  <SCORE.SYSTEM.SOLV>
0

>  <SCORE.SYSTEM.norm>
0

>  <SCORE.heavy>
23

>  <SCORE.norm>
-0.914095

>  <RMSD>
7.634

$$$$
ligand
 OpenBabel02271912143D
libRbt.so/2013.1/901 2013/11/27
 23 25  0  0  0  0  0  0  0  0999 V2000
   19.4681    1.8750   27.1671 P   0  0  1  0  0  0  0  0  0  0  0  0
   20.4786    2.8723   29.3670 C   0  0  0  0  0  0  0  0  0  0  0  0
   19.6669    1.8744   28.7636 O   0  0  0  0  0  0  0  0  0  0  0  0
   20.4246    2.6537   30.8622 C   0  0  1  0  0  0  0  0  0  0  0  0
   20.8558    1.3436   31.2291 O   0  0  0  0  0  0  0  0  0  0  0  0
   21.3412    3.6543   31.5458 C   0  0  1  0  0  0  0  0  0  0  0  0
   20.6209    4.2453   32.6412 O   0  0  0  0  0  0  0  0  0  0  0  0
   22.5404    2.8422   32.0185 C   0  0  0  0  0  0  0  0  0  0  0  0
   22.0327    1.4030   32.0457 C   0  0  2  0  0  0  0  0  0  0  0  0
   24.7028   -2.9807   32.4768 N   0  0  0  0  0  0  0  0  0  0  0  0
   23.8474   -2.4429   33.3615 C   0  0  2  0  0  0  0  0  0  0  0  0
   23.6280   -3.1138   34.5162 N   0  0  0  0  0  0  0  0  0  0  0  0
   23.2178   -1.2717   33.1013 N   0  0  0  0  0  0  0  0  0  0  0  0
   23.4528   -0.6322   31.9370 C   0  0  2  0  0  0  0  0  0  0  0  0
   24.3293   -1.1698   31.0195 C   0  0  1  0  0  0  0  0  0  0  0  0
   24.9531   -2.3695   31.3047 C   0  0  0  0  0  0  0  0  0  0  0  0
   25.7466   -2.8772   30.4830 O   0  0  0  0  0  0  0  0  0  0  0  0
   24.3882   -0.3385   29.9604 N   0  0  0  0  0  0  0  0  0  0  0  0
   23.5597    0.6903   30.2126 C   0  0  0  0  0  0  0  0  0  0  0  0
   23.0076    0.5059   31.4167 N   0  0  1  0  0  0  0  0  0  0  0  0
   20.8422    1.9785   26.5513 O   0  0  0  0  0  0  0  0  0  0  0  0
   18.7563    0.5712   26.8883 O   0  5  0  0  0  0  0  0  0  0  0  0
   18.6152    3.0939   26.9405 O   0  0  0  0  0  0  0  0  0  0  0  0
  1  3  1  1  0  0  0
  1 21  1  0  0  0  0
  1 22  1  0  0  0  0
  1 23  2  0  0  0  0
  2  3  1  0  0  0  0
  4  2  1  6  0  0  0
  4  5  1  0  0  0  0
  4  6  1  0  0  0  0
  6  7  1  1  0  0  0
  6  8  1  0  0  0  0
  8  9  1  0  0  0  0
  9  5  1  6  0  0  0
  9 20  1  0  0  0  0
 10 11  1  0  0  0  0
 10 16  1  0  0  0  0
 11 12  1  6  0  0  0
 11 13  1  0  0  0  0
 14 13  1  1  0  0  0
 14 15  1  0  0  0  0
 14 20  1  0  0  0  0
 15 16  1  6  0  0  0
 15 18  1  0  0  0  0
 16 17  2  0  0  0  0
 18 19  1  0  0  0  0
 20 19  1  6  0  0  0
M  CHG  1  22  -1
M  END
>  <CHROM.1>
49.68488416,57.51484975,177.47847702,-112.73863781,21.95273739,0.67703413
30.41276684,-2.93473591,-0.90193977,1.06121019

>  <Name>
ligand

>  <RI>
416

>  <Rbt.Current_Directory>
/home/itssahil/PROJECTS/Mol_Feturizer/Test_systems_manuscript/rnas/3slm

>  <Rbt.Executable>
rbdock ($Id: //depot/dev/client3/rdock/2013.1/src/exe/rbdock.cxx#4 $)

>  <Rbt.Library>
libRbt.so (2013.1, Build901 2013/11/27)

>  <Rbt.Parameter_File>
/export/apps/rDock/src/rDock_2013.1_src/data/scripts/dock_solv.prm

>  <Rbt.Receptor>
prm/pocket_docking_5.prm

>  <SCORE>
-19.719

>  <SCORE.INTER>
-13.974

>  <SCORE.INTER.CONST>
1

>  <SCORE.INTER.POLAR>
0

>  <SCORE.INTER.ROT>
4

>  <SCORE.INTER.SOLV>
22.957

>  <SCORE.INTER.VDW>
-23.235

>  <SCORE.INTER.norm>
-0.607565

>  <SCORE.INTRA>
-5.74502

>  <SCORE.INTRA.DIHEDRAL>
-7.23699

>  <SCORE.INTRA.DIHEDRAL.0>
8.62657

>  <SCORE.INTRA.POLAR>
0

>  <SCORE.INTRA.POLAR.0>
0

>  <SCORE.INTRA.REPUL>
0

>  <SCORE.INTRA.REPUL.0>
0

>  <SCORE.INTRA.SOLV>
-0.719887

>  <SCORE.INTRA.SOLV.lig_0>
-66.3641

>  <SCORE.INTRA.VDW>
-1.76659

>  <SCORE.INTRA.VDW.0>
0.452231

>  <SCORE.INTRA.norm>
-0.249784

>  <SCORE.RESTR>
0

>  <SCORE.RESTR.CAVITY>
0

>  <SCORE.RESTR.norm>
0

>  <SCORE.SYSTEM>
0

>  <SCORE.SYSTEM.CONST>
0

>  <SCORE.SYSTEM.DIHEDRAL>
0

>  <SCORE.SYSTEM.SOLV>
0

>  <SCORE.SYSTEM.norm>
0

>  <SCORE.heavy>
23

>  <SCORE.norm>
-0.857348

>  <RMSD>
7.636

$$$$
ligand
 OpenBabel02271912143D
libRbt.so/2013.1/901 2013/11/27
 23 25  0  0  0  0  0  0  0  0999 V2000
   23.1012    0.3509   31.6120 P   0  0  1  0  0  0  0  0  0  0  0  0
   21.4525    2.3849   31.5952 C   0  0  0  0  0  0  0  0  0  0  0  0
   21.8796    1.1808   30.9736 O   0  0  0  0  0  0  0  0  0  0  0  0
   20.1579    2.7993   30.9328 C   0  0  1  0  0  0  0  0  0  0  0  0
   19.4304    3.7424   31.7190 O   0  0  0  0  0  0  0  0  0  0  0  0
   20.4681    3.4490   29.5949 C   0  0  1  0  0  0  0  0  0  0  0  0
   19.5953    2.8761   28.6059 O   0  0  0  0  0  0  0  0  0  0  0  0
   20.2057    4.9357   29.8003 C   0  0  0  0  0  0  0  0  0  0  0  0
   19.3000    4.9915   31.0276 C   0  0  2  0  0  0  0  0  0  0  0  0
   19.2797   10.0026   32.2190 N   0  0  0  0  0  0  0  0  0  0  0  0
   18.6927    9.3989   31.1728 C   0  0  2  0  0  0  0  0  0  0  0  0
   17.9922   10.1707   30.3096 N   0  0  0  0  0  0  0  0  0  0  0  0
   18.7911    8.0594   30.9938 N   0  0  0  0  0  0  0  0  0  0  0  0
   19.4904    7.3179   31.8774 C   0  0  2  0  0  0  0  0  0  0  0  0
   20.1004    7.9225   32.9552 C   0  0  1  0  0  0  0  0  0  0  0  0
   19.9789    9.2891   33.1202 C   0  0  0  0  0  0  0  0  0  0  0  0
   20.5191    9.8558   34.0946 O   0  0  0  0  0  0  0  0  0  0  0  0
   20.7315    6.9686   33.6679 N   0  0  0  0  0  0  0  0  0  0  0  0
   20.5115    5.7952   33.0490 C   0  0  0  0  0  0  0  0  0  0  0  0
   19.7678    6.0216   31.9608 N   0  0  1  0  0  0  0  0  0  0  0  0
   23.4206   -0.7710   30.6542 O   0  0  0  0  0  0  0  0  0  0  0  0
   24.2009    1.3772   31.7594 O   0  5  0  0  0  0  0  0  0  0  0  0
   22.5310   -0.1218   32.9219 O   0  0  0  0  0  0  0  0  0  0  0  0
  1  3  1  6  0  0  0
  1 21  1  0  0  0  0
  1 22  1  0  0  0  0
  1 23  2  0  0  0  0
  2  3  1  0  0  0  0
  4  2  1  1  0  0  0
  4  5  1  0  0  0  0
  4  6  1  0  0  0  0
  6  7  1  6  0  0  0
  6  8  1  0  0  0  0
  8  9  1  0  0  0  0
  9  5  1  1  0  0  0
  9 20  1  0  0  0  0
 10 11  1  0  0  0  0
 10 16  1  0  0  0  0
 11 12  1  1  0  0  0
 11 13  1  0  0  0  0
 14 13  1  6  0  0  0
 14 15  1  0  0  0  0
 14 20  1  0  0  0  0
 15 16  1  1  0  0  0
 15 18  1  0  0  0  0
 16 17  2  0  0  0  0
 18 19  1  0  0  0  0
 20 19  1  1  0  0  0
M  CHG  1  22  -1
M  END
>  <CHROM.1>
-173.56897177,162.21637640,-170.06089327,-160.72154044,20.70758840,4.71711319
31.57512271,-0.97855694,-0.86416825,0.57163564

>  <Name>
ligand

>  <RI>
0

>  <Rbt.Current_Directory>
/home/itssahil/PROJECTS/Mol_Feturizer/Test_systems_manuscript/rnas/3slm

>  <Rbt.Executable>
rbdock ($Id: //depot/dev/client3/rdock/2013.1/src/exe/rbdock.cxx#4 $)

>  <Rbt.Library>
libRbt.so (2013.1, Build901 2013/11/27)

>  <Rbt.Parameter_File>
/export/apps/rDock/src/rDock_2013.1_src/data/scripts/dock_solv.prm

>  <Rbt.Receptor>
prm/blind_docking_80.prm

>  <SCORE>
-18.5731

>  <SCORE.INTER>
-14.1856

>  <SCORE.INTER.CONST>
1

>  <SCORE.INTER.POLAR>
0

>  <SCORE.INTER.ROT>
4

>  <SCORE.INTER.SOLV>
14.9426

>  <SCORE.INTER.VDW>
-20.7046

>  <SCORE.INTER.norm>
-0.616767

>  <SCORE.INTRA>
-4.39572

>  <SCORE.INTRA.DIHEDRAL>
-5.76092

>  <SCORE.INTRA.DIHEDRAL.0>
8.62657

>  <SCORE.INTRA.POLAR>
0

>  <SCORE.INTRA.POLAR.0>
0

>  <SCORE.INTRA.REPUL>
0

>  <SCORE.INTRA.REPUL.0>
0

>  <SCORE.INTRA.SOLV>
0.0314068

>  <SCORE.INTRA.SOLV.lig_0>
-66.3641

>  <SCORE.INTRA.VDW>
-1.53096

>  <SCORE.INTRA.VDW.0>
0.452231

>  <SCORE.INTRA.norm>
-0.191118

>  <SCORE.RESTR>
0.00823639

>  <SCORE.RESTR.CAVITY>
0.00823639

>  <SCORE.RESTR.norm>
0.000358104

>  <SCORE.SYSTEM>
0

>  <SCORE.SYSTEM.CONST>
0

>  <SCORE.SYSTEM.DIHEDRAL>
0

>  <SCORE.SYSTEM.SOLV>
0

>  <SCORE.SYSTEM.norm>
0

>  <SCORE.heavy>
23

>  <SCORE.norm>
-0.807527

>  <RMSD>
7.640

$$$$
ligand
 OpenBabel02271912143D
libRbt.so/2013.1/901 2013/11/27
 23 25  0  0  0  0  0  0  0  0999 V2000
   19.8944    5.4966   32.7785 P   0  0  1  0  0  0  0  0  0  0  0  0
   20.9675    4.1919   30.7782 C   0  0  0  0  0  0  0  0  0  0  0  0
   21.1619    4.8681   32.0126 O   0  0  0  0  0  0  0  0  0  0  0  0
   22.3347    3.8345   30.2401 C   0  0  1  0  0  0  0  0  0  0  0  0
   23.0590    2.9892   31.1332 O   0  0  0  0  0  0  0  0  0  0  0  0
   22.1741    3.0926   28.9239 C   0  0  1  0  0  0  0  0  0  0  0  0
   23.0820    3.6710   27.9704 O   0  0  0  0  0  0  0  0  0  0  0  0
   22.5173    1.6415   29.2366 C   0  0  0  0  0  0  0  0  0  0  0  0
   23.3256    1.7166   30.5292 C   0  0  2  0  0  0  0  0  0  0  0  0
   24.3083   -2.7987   32.8048 N   0  0  0  0  0  0  0  0  0  0  0  0
   25.0457   -2.1598   31.8818 C   0  0  2  0  0  0  0  0  0  0  0  0
   26.2016   -2.7406   31.4842 N   0  0  0  0  0  0  0  0  0  0  0  0
   24.6491   -0.9682   31.3732 N   0  0  0  0  0  0  0  0  0  0  0  0
   23.4952   -0.4128   31.7970 C   0  0  2  0  0  0  0  0  0  0  0  0
   22.7260   -1.0566   32.7421 C   0  0  1  0  0  0  0  0  0  0  0  0
   23.1559   -2.2672   33.2514 C   0  0  0  0  0  0  0  0  0  0  0  0
   22.4761   -2.8640   34.1140 O   0  0  0  0  0  0  0  0  0  0  0  0
   21.6361   -0.3005   32.9800 N   0  0  0  0  0  0  0  0  0  0  0  0
   21.7307    0.7935   32.2037 C   0  0  0  0  0  0  0  0  0  0  0  0
   22.8552    0.7084   31.4847 N   0  0  1  0  0  0  0  0  0  0  0  0
   18.8674    4.3981   32.9073 O   0  0  0  0  0  0  0  0  0  0  0  0
   20.4642    5.9749   34.0941 O   0  5  0  0  0  0  0  0  0  0  0  0
   19.4708    6.6098   31.8588 O   0  0  0  0  0  0  0  0  0  0  0  0
  1  3  1  6  0  0  0
  1 21  1  0  0  0  0
  1 22  1  0  0  0  0
  1 23  2  0  0  0  0
  2  3  1  0  0  0  0
  4  2  1  1  0  0  0
  4  5  1  0  0  0  0
  4  6  1  0  0  0  0
  6  7  1  6  0  0  0
  6  8  1  0  0  0  0
  8  9  1  0  0  0  0
  9  5  1  1  0  0  0
  9 20  1  0  0  0  0
 10 11  1  0  0  0  0
 10 16  1  0  0  0  0
 11 12  1  1  0  0  0
 11 13  1  0  0  0  0
 14 13  1  6  0  0  0
 14 15  1  0  0  0  0
 14 20  1  0  0  0  0
 15 16  1  1  0  0  0
 15 18  1  0  0  0  0
 16 17  2  0  0  0  0
 18 19  1  0  0  0  0
 20 19  1  1  0  0  0
M  CHG  1  22  -1
M  END
>  <CHROM.1>
52.31119876,59.91376232,174.66374459,-137.73818037,22.21699522,1.84679274
31.74089794,2.38459455,0.89256783,-0.72898964

>  <Name>
ligand

>  <RI>
416

>  <Rbt.Current_Directory>
/home/itssahil/PROJECTS/Mol_Feturizer/Test_systems_manuscript/rnas/3slm

>  <Rbt.Executable>
rbdock ($Id: //depot/dev/client3/rdock/2013.1/src/exe/rbdock.cxx#4 $)

>  <Rbt.Library>
libRbt.so (2013.1, Build901 2013/11/27)

>  <Rbt.Parameter_File>
/export/apps/rDock/src/rDock_2013.1_src/data/scripts/dock_solv.prm

>  <Rbt.Receptor>
prm/pocket_docking_6.prm

>  <SCORE>
-22.1365

>  <SCORE.INTER>
-16.2354

>  <SCORE.INTER.CONST>
1

>  <SCORE.INTER.POLAR>
0

>  <SCORE.INTER.ROT>
4

>  <SCORE.INTER.SOLV>
19.6946

>  <SCORE.INTER.VDW>
-23.6551

>  <SCORE.INTER.norm>
-0.705887

>  <SCORE.INTRA>
-5.90115

>  <SCORE.INTRA.DIHEDRAL>
-7.15372

>  <SCORE.INTRA.DIHEDRAL.0>
8.62657

>  <SCORE.INTRA.POLAR>
0

>  <SCORE.INTRA.POLAR.0>
0

>  <SCORE.INTRA.REPUL>
0

>  <SCORE.INTRA.REPUL.0>
0

>  <SCORE.INTRA.SOLV>
-0.70459

>  <SCORE.INTRA.SOLV.lig_0>
-66.3641

>  <SCORE.INTRA.VDW>
-1.97199

>  <SCORE.INTRA.VDW.0>
0.452231

>  <SCORE.INTRA.norm>
-0.256572

>  <SCORE.RESTR>
0

>  <SCORE.RESTR.CAVITY>
0

>  <SCORE.RESTR.norm>
0

>  <SCORE.SYSTEM>
0

>  <SCORE.SYSTEM.CONST>
0

>  <SCORE.SYSTEM.DIHEDRAL>
0

>  <SCORE.SYSTEM.SOLV>
0

>  <SCORE.SYSTEM.norm>
0

>  <SCORE.heavy>
23

>  <SCORE.norm>
-0.962459

>  <RMSD>
7.645

$$$$
ligand
 OpenBabel02271912143D
libRbt.so/2013.1/901 2013/11/27
 23 25  0  0  0  0  0  0  0  0999 V2000
   19.9042    5.4683   32.7418 P   0  0  1  0  0  0  0  0  0  0  0  0
   21.0012    4.1706   30.7499 C   0  0  0  0  0  0  0  0  0  0  0  0
   21.1816    4.8480   31.9858 O   0  0  0  0  0  0  0  0  0  0  0  0
   22.3757    3.8618   30.2005 C   0  0  1  0  0  0  0  0  0  0  0  0
   23.1498    3.0725   31.1031 O   0  0  0  0  0  0  0  0  0  0  0  0
   22.2310    3.0809   28.9052 C   0  0  1  0  0  0  0  0  0  0  0  0
   23.0986    3.6757   27.9247 O   0  0  0  0  0  0  0  0  0  0  0  0
   22.6440    1.6550   29.2479 C   0  0  0  0  0  0  0  0  0  0  0  0
   23.4656    1.7986   30.5262 C   0  0  2  0  0  0  0  0  0  0  0  0
   24.4749   -2.8003   32.6151 N   0  0  0  0  0  0  0  0  0  0  0  0
   25.1371   -2.1777   31.6264 C   0  0  2  0  0  0  0  0  0  0  0  0
   26.2143   -2.8025   31.0964 N   0  0  0  0  0  0  0  0  0  0  0  0
   24.7445   -0.9596   31.1815 N   0  0  0  0  0  0  0  0  0  0  0  0
   23.6709   -0.3607   31.7369 C   0  0  2  0  0  0  0  0  0  0  0  0
   22.9793   -0.9873   32.7510 C   0  0  1  0  0  0  0  0  0  0  0  0
   23.4042   -2.2259   33.1927 C   0  0  0  0  0  0  0  0  0  0  0  0
   22.7946   -2.8079   34.1158 O   0  0  0  0  0  0  0  0  0  0  0  0
   21.9586   -0.1872   33.1176 N   0  0  0  0  0  0  0  0  0  0  0  0
   22.0200    0.9163   32.3515 C   0  0  0  0  0  0  0  0  0  0  0  0
   23.0545    0.7942   31.5127 N   0  0  1  0  0  0  0  0  0  0  0  0
   20.3611    5.8702   34.1230 O   0  0  0  0  0  0  0  0  0  0  0  0
   19.4862    6.6241   31.8623 O   0  5  0  0  0  0  0  0  0  0  0  0
   18.9304    4.3210   32.7417 O   0  0  0  0  0  0  0  0  0  0  0  0
  1  3  1  6  0  0  0
  1 21  1  0  0  0  0
  1 22  1  0  0  0  0
  1 23  2  0  0  0  0
  2  3  1  0  0  0  0
  4  2  1  1  0  0  0
  4  5  1  0  0  0  0
  4  6  1  0  0  0  0
  6  7  1  6  0  0  0
  6  8  1  0  0  0  0
  8  9  1  0  0  0  0
  9  5  1  1  0  0  0
  9 20  1  0  0  0  0
 10 11  1  0  0  0  0
 10 16  1  0  0  0  0
 11 12  1  1  0  0  0
 11 13  1  0  0  0  0
 14 13  1  6  0  0  0
 14 15  1  0  0  0  0
 14 20  1  0  0  0  0
 15 16  1  1  0  0  0
 15 18  1  0  0  0  0
 16 17  2  0  0  0  0
 18 19  1  0  0  0  0
 20 19  1  1  0  0  0
M  CHG  1  22  -1
M  END
>  <CHROM.1>
169.08221860,58.10004814,172.85950710,-145.66875045,22.32356195,1.86097102
31.69097601,2.43978371,0.89798279,-0.76837663

>  <Name>
ligand

>  <RI>
416

>  <Rbt.Current_Directory>
/home/itssahil/PROJECTS/Mol_Feturizer/Test_systems_manuscript/rnas/3slm

>  <Rbt.Executable>
rbdock ($Id: //depot/dev/client3/rdock/2013.1/src/exe/rbdock.cxx#4 $)

>  <Rbt.Library>
libRbt.so (2013.1, Build901 2013/11/27)

>  <Rbt.Parameter_File>
/export/apps/rDock/src/rDock_2013.1_src/data/scripts/dock_solv.prm

>  <Rbt.Receptor>
prm/pocket_docking_6.prm

>  <SCORE>
-21.5677

>  <SCORE.INTER>
-16.3241

>  <SCORE.INTER.CONST>
1

>  <SCORE.INTER.POLAR>
0

>  <SCORE.INTER.ROT>
4

>  <SCORE.INTER.SOLV>
19.3111

>  <SCORE.INTER.VDW>
-23.5865

>  <SCORE.INTER.norm>
-0.709745

>  <SCORE.INTRA>
-5.24359

>  <SCORE.INTRA.DIHEDRAL>
-6.93309

>  <SCORE.INTRA.DIHEDRAL.0>
8.62657

>  <SCORE.INTRA.POLAR>
0

>  <SCORE.INTRA.POLAR.0>
0

>  <SCORE.INTRA.REPUL>
0

>  <SCORE.INTRA.REPUL.0>
0

>  <SCORE.INTRA.SOLV>
-0.0332833

>  <SCORE.INTRA.SOLV.lig_0>
-66.3641

>  <SCORE.INTRA.VDW>
-1.7604

>  <SCORE.INTRA.VDW.0>
0.452231

>  <SCORE.INTRA.norm>
-0.227982

>  <SCORE.RESTR>
0

>  <SCORE.RESTR.CAVITY>
0

>  <SCORE.RESTR.norm>
0

>  <SCORE.SYSTEM>
0

>  <SCORE.SYSTEM.CONST>
0

>  <SCORE.SYSTEM.DIHEDRAL>
0

>  <SCORE.SYSTEM.SOLV>
0

>  <SCORE.SYSTEM.norm>
0

>  <SCORE.heavy>
23

>  <SCORE.norm>
-0.937728

>  <RMSD>
7.659

$$$$
ligand
 OpenBabel02271912143D
libRbt.so/2013.1/901 2013/11/27
 23 25  0  0  0  0  0  0  0  0999 V2000
   24.0074    1.5882   30.3452 P   0  0  1  0  0  0  0  0  0  0  0  0
   21.8302    2.7350   31.2395 C   0  0  0  0  0  0  0  0  0  0  0  0
   22.4287    1.8883   30.2681 O   0  0  0  0  0  0  0  0  0  0  0  0
   20.3982    2.9677   30.8133 C   0  0  1  0  0  0  0  0  0  0  0  0
   19.6749    3.7479   31.7646 O   0  0  0  0  0  0  0  0  0  0  0  0
   20.3870    3.7170   29.4915 C   0  0  1  0  0  0  0  0  0  0  0  0
   19.4611    3.0572   28.6109 O   0  0  0  0  0  0  0  0  0  0  0  0
   19.9419    5.1327   29.8365 C   0  0  0  0  0  0  0  0  0  0  0  0
   19.2489    4.9898   31.1889 C   0  0  2  0  0  0  0  0  0  0  0  0
   19.2613   10.0314   32.2446 N   0  0  0  0  0  0  0  0  0  0  0  0
   18.6980    9.4070   31.1974 C   0  0  2  0  0  0  0  0  0  0  0  0
   18.0346   10.1640   30.2927 N   0  0  0  0  0  0  0  0  0  0  0  0
   18.7834    8.0620   31.0574 N   0  0  0  0  0  0  0  0  0  0  0  0
   19.4454    7.3358   31.9816 C   0  0  2  0  0  0  0  0  0  0  0  0
   20.0307    7.9616   33.0609 C   0  0  1  0  0  0  0  0  0  0  0  0
   19.9229    9.3337   33.1856 C   0  0  0  0  0  0  0  0  0  0  0  0
   20.4411    9.9196   34.1606 O   0  0  0  0  0  0  0  0  0  0  0  0
   20.6268    7.0194   33.8180 N   0  0  0  0  0  0  0  0  0  0  0  0
   20.4096    5.8325   33.2243 C   0  0  0  0  0  0  0  0  0  0  0  0
   19.7023    6.0388   32.1081 N   0  0  1  0  0  0  0  0  0  0  0  0
   24.7181    2.8920   30.0746 O   0  0  0  0  0  0  0  0  0  0  0  0
   24.2075    1.0472   31.7421 O   0  5  0  0  0  0  0  0  0  0  0  0
   24.2024    0.5621   29.2620 O   0  0  0  0  0  0  0  0  0  0  0  0
  1  3  1  6  0  0  0
  1 21  1  0  0  0  0
  1 22  1  0  0  0  0
  1 23  2  0  0  0  0
  2  3  1  0  0  0  0
  4  2  1  1  0  0  0
  4  5  1  0  0  0  0
  4  6  1  0  0  0  0
  6  7  1  6  0  0  0
  6  8  1  0  0  0  0
  8  9  1  0  0  0  0
  9  5  1  1  0  0  0
  9 20  1  0  0  0  0
 10 11  1  0  0  0  0
 10 16  1  0  0  0  0
 11 12  1  1  0  0  0
 11 13  1  0  0  0  0
 14 13  1  6  0  0  0
 14 15  1  0  0  0  0
 14 20  1  0  0  0  0
 15 16  1  1  0  0  0
 15 18  1  0  0  0  0
 16 17  2  0  0  0  0
 18 19  1  0  0  0  0
 20 19  1  1  0  0  0
M  CHG  1  22  -1
M  END
>  <CHROM.1>
-66.08286828,176.59233930,173.00450265,-176.02911016,20.95046470,5.11197873
31.24833902,-0.96731823,-0.59897346,0.64433418

>  <Name>
ligand

>  <RI>
0

>  <Rbt.Current_Directory>
/home/itssahil/PROJECTS/Mol_Feturizer/Test_systems_manuscript/rnas/3slm

>  <Rbt.Executable>
rbdock ($Id: //depot/dev/client3/rdock/2013.1/src/exe/rbdock.cxx#4 $)

>  <Rbt.Library>
libRbt.so (2013.1, Build901 2013/11/27)

>  <Rbt.Parameter_File>
/export/apps/rDock/src/rDock_2013.1_src/data/scripts/dock_solv.prm

>  <Rbt.Receptor>
prm/blind_docking_80.prm

>  <SCORE>
-20.2523

>  <SCORE.INTER>
-15.0621

>  <SCORE.INTER.CONST>
1

>  <SCORE.INTER.POLAR>
0

>  <SCORE.INTER.ROT>
4

>  <SCORE.INTER.SOLV>
11.8472

>  <SCORE.INTER.VDW>
-20.2572

>  <SCORE.INTER.norm>
-0.654875

>  <SCORE.INTRA>
-5.1907

>  <SCORE.INTRA.DIHEDRAL>
-7.08553

>  <SCORE.INTRA.DIHEDRAL.0>
8.62657

>  <SCORE.INTRA.POLAR>
0

>  <SCORE.INTRA.POLAR.0>
0

>  <SCORE.INTRA.REPUL>
0

>  <SCORE.INTRA.REPUL.0>
0

>  <SCORE.INTRA.SOLV>
-0.489278

>  <SCORE.INTRA.SOLV.lig_0>
-66.3641

>  <SCORE.INTRA.VDW>
-1.4033

>  <SCORE.INTRA.VDW.0>
0.452231

>  <SCORE.INTRA.norm>
-0.225683

>  <SCORE.RESTR>
0.000487405

>  <SCORE.RESTR.CAVITY>
0.000487405

>  <SCORE.RESTR.norm>
2.11915e-05

>  <SCORE.SYSTEM>
0

>  <SCORE.SYSTEM.CONST>
0

>  <SCORE.SYSTEM.DIHEDRAL>
0

>  <SCORE.SYSTEM.SOLV>
0

>  <SCORE.SYSTEM.norm>
0

>  <SCORE.heavy>
23

>  <SCORE.norm>
-0.880537

>  <RMSD>
7.660

$$$$
ligand
 OpenBabel02271912143D
libRbt.so/2013.1/901 2013/11/27
 23 25  0  0  0  0  0  0  0  0999 V2000
   20.8474    2.9757   28.7420 P   0  0  1  0  0  0  0  0  0  0  0  0
   23.4113    3.1506   29.2429 C   0  0  0  0  0  0  0  0  0  0  0  0
   22.2445    2.3401   29.2241 O   0  0  0  0  0  0  0  0  0  0  0  0
   24.5669    2.2671   29.6558 C   0  0  1  0  0  0  0  0  0  0  0  0
   24.3976    1.7419   30.9720 O   0  0  0  0  0  0  0  0  0  0  0  0
   24.6656    1.0940   28.6952 C   0  0  1  0  0  0  0  0  0  0  0  0
   26.0408    0.9554   28.2979 O   0  0  0  0  0  0  0  0  0  0  0  0
   24.1710   -0.1125   29.4832 C   0  0  0  0  0  0  0  0  0  0  0  0
   24.3047    0.3116   30.9433 C   0  0  2  0  0  0  0  0  0  0  0  0
   22.1114   -2.9390   34.2833 N   0  0  0  0  0  0  0  0  0  0  0  0
   23.3583   -2.9806   33.7861 C   0  0  2  0  0  0  0  0  0  0  0  0
   24.1702   -3.9813   34.1996 N   0  0  0  0  0  0  0  0  0  0  0  0
   23.7913   -2.0451   32.9067 N   0  0  0  0  0  0  0  0  0  0  0  0
   22.9590   -1.0561   32.5211 C   0  0  2  0  0  0  0  0  0  0  0  0
   21.6758   -1.0005   33.0205 C   0  0  1  0  0  0  0  0  0  0  0  0
   21.2602   -1.9617   33.9222 C   0  0  0  0  0  0  0  0  0  0  0  0
   20.1024   -1.9253   34.3919 O   0  0  0  0  0  0  0  0  0  0  0  0
   21.0604    0.0669   32.4744 N   0  0  0  0  0  0  0  0  0  0  0  0
   21.9460    0.6654   31.6584 C   0  0  0  0  0  0  0  0  0  0  0  0
   23.0880   -0.0301   31.6874 N   0  0  1  0  0  0  0  0  0  0  0  0
   21.0413    3.4389   27.3186 O   0  0  0  0  0  0  0  0  0  0  0  0
   19.8584    1.8438   28.9002 O   0  5  0  0  0  0  0  0  0  0  0  0
   20.6426    4.1029   29.7176 O   0  0  0  0  0  0  0  0  0  0  0  0
  1  3  1  1  0  0  0
  1 21  1  0  0  0  0
  1 22  1  0  0  0  0
  1 23  2  0  0  0  0
  2  3  1  0  0  0  0
  4  2  1  6  0  0  0
  4  5  1  0  0  0  0
  4  6  1  0  0  0  0
  6  7  1  1  0  0  0
  6  8  1  0  0  0  0
  8  9  1  0  0  0  0
  9  5  1  6  0  0  0
  9 20  1  0  0  0  0
 10 11  1  0  0  0  0
 10 16  1  0  0  0  0
 11 12  1  1  0  0  0
 11 13  1  0  0  0  0
 14 13  1  6  0  0  0
 14 15  1  0  0  0  0
 14 20  1  0  0  0  0
 15 16  1  1  0  0  0
 15 18  1  0  0  0  0
 16 17  2  0  0  0  0
 18 19  1  0  0  0  0
 20 19  1  1  0  0  0
M  CHG  1  22  -1
M  END
>  <CHROM.1>
60.35361928,-62.58044720,-176.69753955,-140.48553323,22.56279288,0.53334870
30.91724920,1.63379119,0.26484404,-0.78709592

>  <Name>
ligand

>  <RI>
416

>  <Rbt.Current_Directory>
/home/itssahil/PROJECTS/Mol_Feturizer/Test_systems_manuscript/rnas/3slm

>  <Rbt.Executable>
rbdock ($Id: //depot/dev/client3/rdock/2013.1/src/exe/rbdock.cxx#4 $)

>  <Rbt.Library>
libRbt.so (2013.1, Build901 2013/11/27)

>  <Rbt.Parameter_File>
/export/apps/rDock/src/rDock_2013.1_src/data/scripts/dock_solv.prm

>  <Rbt.Receptor>
prm/pocket_docking_6.prm

>  <SCORE>
-18.5622

>  <SCORE.INTER>
-12.4773

>  <SCORE.INTER.CONST>
1

>  <SCORE.INTER.POLAR>
0

>  <SCORE.INTER.ROT>
4

>  <SCORE.INTER.SOLV>
13.8778

>  <SCORE.INTER.VDW>
-19.2108

>  <SCORE.INTER.norm>
-0.54249

>  <SCORE.INTRA>
-6.08498

>  <SCORE.INTRA.DIHEDRAL>
-7.2939

>  <SCORE.INTRA.DIHEDRAL.0>
8.62657

>  <SCORE.INTRA.POLAR>
0

>  <SCORE.INTRA.POLAR.0>
0

>  <SCORE.INTRA.REPUL>
0

>  <SCORE.INTRA.REPUL.0>
0

>  <SCORE.INTRA.SOLV>
-0.087945

>  <SCORE.INTRA.SOLV.lig_0>
-66.3641

>  <SCORE.INTRA.VDW>
-2.39406

>  <SCORE.INTRA.VDW.0>
0.452231

>  <SCORE.INTRA.norm>
-0.264564

>  <SCORE.RESTR>
0

>  <SCORE.RESTR.CAVITY>
0

>  <SCORE.RESTR.norm>
0

>  <SCORE.SYSTEM>
0

>  <SCORE.SYSTEM.CONST>
0

>  <SCORE.SYSTEM.DIHEDRAL>
0

>  <SCORE.SYSTEM.SOLV>
0

>  <SCORE.SYSTEM.norm>
0

>  <SCORE.heavy>
23

>  <SCORE.norm>
-0.807054

>  <RMSD>
7.666

$$$$
ligand
 OpenBabel02271912143D
libRbt.so/2013.1/901 2013/11/27
 23 25  0  0  0  0  0  0  0  0999 V2000
   23.9871    1.6327   30.3662 P   0  0  1  0  0  0  0  0  0  0  0  0
   21.8195    2.8182   31.2329 C   0  0  0  0  0  0  0  0  0  0  0  0
   22.4121    1.9485   30.2783 O   0  0  0  0  0  0  0  0  0  0  0  0
   20.3940    3.0655   30.7934 C   0  0  1  0  0  0  0  0  0  0  0  0
   19.6738    3.8645   31.7314 O   0  0  0  0  0  0  0  0  0  0  0  0
   20.4027    3.8017   29.4643 C   0  0  1  0  0  0  0  0  0  0  0  0
   19.4750    3.1454   28.5830 O   0  0  0  0  0  0  0  0  0  0  0  0
   19.9738    5.2265   29.7919 C   0  0  0  0  0  0  0  0  0  0  0  0
   19.2687    5.1061   31.1403 C   0  0  2  0  0  0  0  0  0  0  0  0
   19.2945   10.1519   32.1756 N   0  0  0  0  0  0  0  0  0  0  0  0
   18.7243    9.5241   31.1343 C   0  0  2  0  0  0  0  0  0  0  0  0
   18.0568   10.2785   30.2304 N   0  0  0  0  0  0  0  0  0  0  0  0
   18.8069    8.1785   30.9992 N   0  0  0  0  0  0  0  0  0  0  0  0
   19.4732    7.4550   31.9224 C   0  0  2  0  0  0  0  0  0  0  0  0
   20.0656    8.0843   32.9959 C   0  0  1  0  0  0  0  0  0  0  0  0
   19.9606    9.4570   33.1156 C   0  0  0  0  0  0  0  0  0  0  0  0
   20.4852   10.0460   34.0852 O   0  0  0  0  0  0  0  0  0  0  0  0
   20.6647    7.1442   33.7532 N   0  0  0  0  0  0  0  0  0  0  0  0
   20.4424    5.9552   33.1656 C   0  0  0  0  0  0  0  0  0  0  0  0
   19.7290    6.1582   32.0526 N   0  0  1  0  0  0  0  0  0  0  0  0
   24.7130    2.9203   30.0608 O   0  0  0  0  0  0  0  0  0  0  0  0
   24.1792    1.1282   31.7778 O   0  5  0  0  0  0  0  0  0  0  0  0
   24.1716    0.5748   29.3120 O   0  0  0  0  0  0  0  0  0  0  0  0
  1  3  1  6  0  0  0
  1 21  1  0  0  0  0
  1 22  1  0  0  0  0
  1 23  2  0  0  0  0
  2  3  1  0  0  0  0
  4  2  1  1  0  0  0
  4  5  1  0  0  0  0
  4  6  1  0  0  0  0
  6  7  1  6  0  0  0
  6  8  1  0  0  0  0
  8  9  1  0  0  0  0
  9  5  1  1  0  0  0
  9 20  1  0  0  0  0
 10 11  1  0  0  0  0
 10 16  1  0  0  0  0
 11 12  1  1  0  0  0
 11 13  1  0  0  0  0
 14 13  1  6  0  0  0
 14 15  1  0  0  0  0
 14 20  1  0  0  0  0
 15 16  1  1  0  0  0
 15 18  1  0  0  0  0
 16 17  2  0  0  0  0
 18 19  1  0  0  0  0
 20 19  1  1  0  0  0
M  CHG  1  22  -1
M  END
>  <CHROM.1>
-66.69623259,176.29136856,172.68497027,-174.95505367,20.96109501,5.20479263
31.21800703,-0.97222373,-0.60905494,0.63247771

>  <Name>
ligand

>  <RI>
0

>  <Rbt.Current_Directory>
/home/itssahil/PROJECTS/Mol_Feturizer/Test_systems_manuscript/rnas/3slm

>  <Rbt.Executable>
rbdock ($Id: //depot/dev/client3/rdock/2013.1/src/exe/rbdock.cxx#4 $)

>  <Rbt.Library>
libRbt.so (2013.1, Build901 2013/11/27)

>  <Rbt.Parameter_File>
/export/apps/rDock/src/rDock_2013.1_src/data/scripts/dock_solv.prm

>  <Rbt.Receptor>
prm/pocket_docking_8.prm

>  <SCORE>
-20.2139

>  <SCORE.INTER>
-15.034

>  <SCORE.INTER.CONST>
1

>  <SCORE.INTER.POLAR>
0

>  <SCORE.INTER.ROT>
4

>  <SCORE.INTER.SOLV>
11.5622

>  <SCORE.INTER.VDW>
-20.1434

>  <SCORE.INTER.norm>
-0.653654

>  <SCORE.INTRA>
-5.17991

>  <SCORE.INTRA.DIHEDRAL>
-7.04097

>  <SCORE.INTRA.DIHEDRAL.0>
8.62657

>  <SCORE.INTRA.POLAR>
0

>  <SCORE.INTRA.POLAR.0>
0

>  <SCORE.INTRA.REPUL>
0

>  <SCORE.INTRA.REPUL.0>
0

>  <SCORE.INTRA.SOLV>
-0.485177

>  <SCORE.INTRA.SOLV.lig_0>
-66.3641

>  <SCORE.INTRA.VDW>
-1.41684

>  <SCORE.INTRA.VDW.0>
0.452231

>  <SCORE.INTRA.norm>
-0.225214

>  <SCORE.RESTR>
0

>  <SCORE.RESTR.CAVITY>
0

>  <SCORE.RESTR.norm>
0

>  <SCORE.SYSTEM>
0

>  <SCORE.SYSTEM.CONST>
0

>  <SCORE.SYSTEM.DIHEDRAL>
0

>  <SCORE.SYSTEM.SOLV>
0

>  <SCORE.SYSTEM.norm>
0

>  <SCORE.heavy>
23

>  <SCORE.norm>
-0.878867

>  <RMSD>
7.688

$$$$
ligand
 OpenBabel02271912143D
libRbt.so/2013.1/901 2013/11/27
 23 25  0  0  0  0  0  0  0  0999 V2000
   19.8593    5.4199   32.7536 P   0  0  1  0  0  0  0  0  0  0  0  0
   20.9901    3.9699   30.8898 C   0  0  0  0  0  0  0  0  0  0  0  0
   21.1392    4.6940   32.1031 O   0  0  0  0  0  0  0  0  0  0  0  0
   22.3749    3.5771   30.4264 C   0  0  1  0  0  0  0  0  0  0  0  0
   23.0285    2.7157   31.3579 O   0  0  0  0  0  0  0  0  0  0  0  0
   22.2668    2.8368   29.1040 C   0  0  1  0  0  0  0  0  0  0  0  0
   23.2390    3.3904   28.2004 O   0  0  0  0  0  0  0  0  0  0  0  0
   22.5560    1.3783   29.4357 C   0  0  0  0  0  0  0  0  0  0  0  0
   23.2951    1.4357   30.7700 C   0  0  2  0  0  0  0  0  0  0  0  0
   24.0762   -3.0589   33.1619 N   0  0  0  0  0  0  0  0  0  0  0  0
   24.8839   -2.4353   32.2886 C   0  0  2  0  0  0  0  0  0  0  0  0
   26.0619   -3.0277   31.9837 N   0  0  0  0  0  0  0  0  0  0  0  0
   24.5342   -1.2473   31.7390 N   0  0  0  0  0  0  0  0  0  0  0  0
   23.3561   -0.6799   32.0704 C   0  0  2  0  0  0  0  0  0  0  0  0
   22.5150   -1.3079   32.9634 C   0  0  1  0  0  0  0  0  0  0  0  0
   22.8978   -2.5152   33.5164 C   0  0  0  0  0  0  0  0  0  0  0  0
   22.1522   -3.0977   34.3333 O   0  0  0  0  0  0  0  0  0  0  0  0
   21.4158   -0.5424   33.1119 N   0  0  0  0  0  0  0  0  0  0  0  0
   21.5749    0.5418   32.3326 C   0  0  0  0  0  0  0  0  0  0  0  0
   22.7486    0.4415   31.6994 N   0  0  1  0  0  0  0  0  0  0  0  0
   20.2528    5.8418   34.1484 O   0  0  0  0  0  0  0  0  0  0  0  0
   19.5738    6.5673   31.8122 O   0  5  0  0  0  0  0  0  0  0  0  0
   18.8152    4.3366   32.7261 O   0  0  0  0  0  0  0  0  0  0  0  0
  1  3  1  6  0  0  0
  1 21  1  0  0  0  0
  1 22  1  0  0  0  0
  1 23  2  0  0  0  0
  2  3  1  0  0  0  0
  4  2  1  1  0  0  0
  4  5  1  0  0  0  0
  4  6  1  0  0  0  0
  6  7  1  6  0  0  0
  6  8  1  0  0  0  0
  8  9  1  0  0  0  0
  9  5  1  1  0  0  0
  9 20  1  0  0  0  0
 10 11  1  0  0  0  0
 10 16  1  0  0  0  0
 11 12  1  1  0  0  0
 11 13  1  0  0  0  0
 14 13  1  6  0  0  0
 14 15  1  0  0  0  0
 14 20  1  0  0  0  0
 15 16  1  1  0  0  0
 15 18  1  0  0  0  0
 16 17  2  0  0  0  0
 18 19  1  0  0  0  0
 20 19  1  1  0  0  0
M  CHG  1  22  -1
M  END
>  <CHROM.1>
168.22346238,62.39077623,172.01938750,-136.07972385,22.13615118,1.63237280
31.91282087,2.29523336,0.86519844,-0.67389492

>  <Name>
ligand

>  <RI>
0

>  <Rbt.Current_Directory>
/home/itssahil/PROJECTS/Mol_Feturizer/Test_systems_manuscript/rnas/3slm

>  <Rbt.Executable>
rbdock ($Id: //depot/dev/client3/rdock/2013.1/src/exe/rbdock.cxx#4 $)

>  <Rbt.Library>
libRbt.so (2013.1, Build901 2013/11/27)

>  <Rbt.Parameter_File>
/export/apps/rDock/src/rDock_2013.1_src/data/scripts/dock_solv.prm

>  <Rbt.Receptor>
prm/blind_docking_80.prm

>  <SCORE>
-22.1475

>  <SCORE.INTER>
-16.9089

>  <SCORE.INTER.CONST>
1

>  <SCORE.INTER.POLAR>
0

>  <SCORE.INTER.ROT>
4

>  <SCORE.INTER.SOLV>
19.669

>  <SCORE.INTER.VDW>
-24.0956

>  <SCORE.INTER.norm>
-0.735168

>  <SCORE.INTRA>
-5.23858

>  <SCORE.INTRA.DIHEDRAL>
-6.84676

>  <SCORE.INTRA.DIHEDRAL.0>
8.62657

>  <SCORE.INTRA.POLAR>
0

>  <SCORE.INTRA.POLAR.0>
0

>  <SCORE.INTRA.REPUL>
0

>  <SCORE.INTRA.REPUL.0>
0

>  <SCORE.INTRA.SOLV>
-0.0500726

>  <SCORE.INTRA.SOLV.lig_0>
-66.3641

>  <SCORE.INTRA.VDW>
-1.79016

>  <SCORE.INTRA.VDW.0>
0.452231

>  <SCORE.INTRA.norm>
-0.227764

>  <SCORE.RESTR>
0

>  <SCORE.RESTR.CAVITY>
0

>  <SCORE.RESTR.norm>
0

>  <SCORE.SYSTEM>
0

>  <SCORE.SYSTEM.CONST>
0

>  <SCORE.SYSTEM.DIHEDRAL>
0

>  <SCORE.SYSTEM.SOLV>
0

>  <SCORE.SYSTEM.norm>
0

>  <SCORE.heavy>
23

>  <SCORE.norm>
-0.962933

>  <RMSD>
7.786

$$$$
ligand
 OpenBabel02271912143D
libRbt.so/2013.1/901 2013/11/27
 23 25  0  0  0  0  0  0  0  0999 V2000
   21.4921    5.0006   29.6098 P   0  0  1  0  0  0  0  0  0  0  0  0
   23.0132    2.9408   29.0631 C   0  0  0  0  0  0  0  0  0  0  0  0
   22.6946    3.9922   29.9641 O   0  0  0  0  0  0  0  0  0  0  0  0
   24.2607    2.2634   29.5842 C   0  0  1  0  0  0  0  0  0  0  0  0
   24.1141    1.8366   30.9382 O   0  0  0  0  0  0  0  0  0  0  0  0
   24.5518    1.0356   28.7378 C   0  0  1  0  0  0  0  0  0  0  0  0
   25.9470    1.0526   28.3897 O   0  0  0  0  0  0  0  0  0  0  0  0
   24.1944   -0.1540   29.6200 C   0  0  0  0  0  0  0  0  0  0  0  0
   24.2151    0.4101   31.0382 C   0  0  2  0  0  0  0  0  0  0  0  0
   22.2304   -3.1203   34.2208 N   0  0  0  0  0  0  0  0  0  0  0  0
   23.4692   -3.0759   33.7040 C   0  0  2  0  0  0  0  0  0  0  0  0
   24.3330   -4.0591   34.0485 N   0  0  0  0  0  0  0  0  0  0  0  0
   23.8438   -2.0737   32.8727 N   0  0  0  0  0  0  0  0  0  0  0  0
   22.9606   -1.1047   32.5556 C   0  0  2  0  0  0  0  0  0  0  0  0
   21.6850   -1.1369   33.0759 C   0  0  1  0  0  0  0  0  0  0  0  0
   21.3293   -2.1652   33.9279 C   0  0  0  0  0  0  0  0  0  0  0  0
   20.1793   -2.2091   34.4156 O   0  0  0  0  0  0  0  0  0  0  0  0
   21.0121   -0.0706   32.5999 N   0  0  0  0  0  0  0  0  0  0  0  0
   21.8553    0.6131   31.8063 C   0  0  0  0  0  0  0  0  0  0  0  0
   23.0282   -0.0289   31.7794 N   0  0  1  0  0  0  0  0  0  0  0  0
   21.9788    5.8929   28.4940 O   0  0  0  0  0  0  0  0  0  0  0  0
   20.3518    4.0864   29.2250 O   0  5  0  0  0  0  0  0  0  0  0  0
   21.2765    5.7278   30.9095 O   0  0  0  0  0  0  0  0  0  0  0  0
  1  3  1  1  0  0  0
  1 21  1  0  0  0  0
  1 22  1  0  0  0  0
  1 23  2  0  0  0  0
  2  3  1  0  0  0  0
  4  2  1  6  0  0  0
  4  5  1  0  0  0  0
  4  6  1  0  0  0  0
  6  7  1  1  0  0  0
  6  8  1  0  0  0  0
  8  9  1  0  0  0  0
  9  5  1  6  0  0  0
  9 20  1  0  0  0  0
 10 11  1  0  0  0  0
 10 16  1  0  0  0  0
 11 12  1  1  0  0  0
 11 13  1  0  0  0  0
 14 13  1  6  0  0  0
 14 15  1  0  0  0  0
 14 20  1  0  0  0  0
 15 16  1  1  0  0  0
 15 18  1  0  0  0  0
 16 17  2  0  0  0  0
 18 19  1  0  0  0  0
 20 19  1  1  0  0  0
M  CHG  1  22  -1
M  END
>  <CHROM.1>
-72.71831183,54.35348587,174.08277036,-150.67113187,22.70356220,1.04306717
31.16676486,1.63575354,0.55341935,-0.57510534

>  <Name>
ligand

>  <RI>
0

>  <Rbt.Current_Directory>
/home/itssahil/PROJECTS/Mol_Feturizer/Test_systems_manuscript/rnas/3slm

>  <Rbt.Executable>
rbdock ($Id: //depot/dev/client3/rdock/2013.1/src/exe/rbdock.cxx#4 $)

>  <Rbt.Library>
libRbt.so (2013.1, Build901 2013/11/27)

>  <Rbt.Parameter_File>
/export/apps/rDock/src/rDock_2013.1_src/data/scripts/dock_solv.prm

>  <Rbt.Receptor>
prm/pocket_docking_8.prm

>  <SCORE>
-20.6291

>  <SCORE.INTER>
-15.0904

>  <SCORE.INTER.CONST>
1

>  <SCORE.INTER.POLAR>
0

>  <SCORE.INTER.ROT>
4

>  <SCORE.INTER.SOLV>
14.6506

>  <SCORE.INTER.VDW>
-21.2104

>  <SCORE.INTER.norm>
-0.656102

>  <SCORE.INTRA>
-5.53874

>  <SCORE.INTRA.DIHEDRAL>
-6.84592

>  <SCORE.INTRA.DIHEDRAL.0>
8.62657

>  <SCORE.INTRA.POLAR>
0

>  <SCORE.INTRA.POLAR.0>
0

>  <SCORE.INTRA.REPUL>
0

>  <SCORE.INTRA.REPUL.0>
0

>  <SCORE.INTRA.SOLV>
-0.593165

>  <SCORE.INTRA.SOLV.lig_0>
-66.3641

>  <SCORE.INTRA.VDW>
-1.8192

>  <SCORE.INTRA.VDW.0>
0.452231

>  <SCORE.INTRA.norm>
-0.240815

>  <SCORE.RESTR>
0

>  <SCORE.RESTR.CAVITY>
0

>  <SCORE.RESTR.norm>
0

>  <SCORE.SYSTEM>
0

>  <SCORE.SYSTEM.CONST>
0

>  <SCORE.SYSTEM.DIHEDRAL>
0

>  <SCORE.SYSTEM.SOLV>
0

>  <SCORE.SYSTEM.norm>
0

>  <SCORE.heavy>
23

>  <SCORE.norm>
-0.896917

>  <RMSD>
7.811

$$$$
ligand
 OpenBabel02271912143D
libRbt.so/2013.1/901 2013/11/27
 23 25  0  0  0  0  0  0  0  0999 V2000
   22.7574    0.9676   30.4812 P   0  0  1  0  0  0  0  0  0  0  0  0
   22.3223    3.2401   31.7066 C   0  0  0  0  0  0  0  0  0  0  0  0
   23.0420    2.5352   30.7047 O   0  0  0  0  0  0  0  0  0  0  0  0
   20.8750    3.2889   31.2715 C   0  0  1  0  0  0  0  0  0  0  0  0
   20.0734    4.0675   32.1592 O   0  0  0  0  0  0  0  0  0  0  0  0
   20.7901    3.9203   29.8921 C   0  0  1  0  0  0  0  0  0  0  0  0
   19.9387    3.0982   29.0752 O   0  0  0  0  0  0  0  0  0  0  0  0
   20.2016    5.3069   30.1210 C   0  0  0  0  0  0  0  0  0  0  0  0
   19.5238    5.2071   31.4850 C   0  0  2  0  0  0  0  0  0  0  0  0
   19.1439   10.3143   32.0368 N   0  0  0  0  0  0  0  0  0  0  0  0
   18.6688    9.5527   31.0379 C   0  0  2  0  0  0  0  0  0  0  0  0
   17.9925   10.1688   30.0406 N   0  0  0  0  0  0  0  0  0  0  0  0
   18.8527    8.2103   31.0345 N   0  0  0  0  0  0  0  0  0  0  0  0
   19.5247    7.6265   32.0481 C   0  0  2  0  0  0  0  0  0  0  0  0
   20.0203    8.3942   33.0797 C   0  0  1  0  0  0  0  0  0  0  0  0
   19.8129    9.7604   33.0643 C   0  0  0  0  0  0  0  0  0  0  0  0
   20.2487   10.4735   33.9938 O   0  0  0  0  0  0  0  0  0  0  0  0
   20.6485    7.5750   33.9462 N   0  0  0  0  0  0  0  0  0  0  0  0
   20.5385    6.3239   33.4657 C   0  0  0  0  0  0  0  0  0  0  0  0
   19.8653    6.3699   32.3109 N   0  0  1  0  0  0  0  0  0  0  0  0
   22.1676    0.4387   31.7660 O   0  0  0  0  0  0  0  0  0  0  0  0
   21.8136    0.9334   29.3012 O   0  5  0  0  0  0  0  0  0  0  0  0
   24.1273    0.4223   30.1802 O   0  0  0  0  0  0  0  0  0  0  0  0
  1  3  1  1  0  0  0
  1 21  1  0  0  0  0
  1 22  1  0  0  0  0
  1 23  2  0  0  0  0
  2  3  1  0  0  0  0
  4  2  1  1  0  0  0
  4  5  1  0  0  0  0
  4  6  1  0  0  0  0
  6  7  1  6  0  0  0
  6  8  1  0  0  0  0
  8  9  1  0  0  0  0
  9  5  1  1  0  0  0
  9 20  1  0  0  0  0
 10 11  1  0  0  0  0
 10 16  1  0  0  0  0
 11 12  1  1  0  0  0
 11 13  1  0  0  0  0
 14 13  1  6  0  0  0
 14 15  1  0  0  0  0
 14 20  1  0  0  0  0
 15 16  1  1  0  0  0
 15 18  1  0  0  0  0
 16 17  2  0  0  0  0
 18 19  1  0  0  0  0
 20 19  1  1  0  0  0
M  CHG  1  22  -1
M  END
>  <CHROM.1>
-22.72393067,-175.48872619,-67.02763691,-179.04939204,20.74272394,5.17554626
31.39229781,-0.95342650,-0.91573672,0.73905350

>  <Name>
ligand

>  <RI>
0

>  <Rbt.Current_Directory>
/home/itssahil/PROJECTS/Mol_Feturizer/Test_systems_manuscript/rnas/3slm

>  <Rbt.Executable>
rbdock ($Id: //depot/dev/client3/rdock/2013.1/src/exe/rbdock.cxx#4 $)

>  <Rbt.Library>
libRbt.so (2013.1, Build901 2013/11/27)

>  <Rbt.Parameter_File>
/export/apps/rDock/src/rDock_2013.1_src/data/scripts/dock_solv.prm

>  <Rbt.Receptor>
prm/pocket_docking_8.prm

>  <SCORE>
-16.4653

>  <SCORE.INTER>
-13.8783

>  <SCORE.INTER.CONST>
1

>  <SCORE.INTER.POLAR>
0

>  <SCORE.INTER.ROT>
4

>  <SCORE.INTER.SOLV>
10.4285

>  <SCORE.INTER.VDW>
-18.995

>  <SCORE.INTER.norm>
-0.603405

>  <SCORE.INTRA>
-2.7507

>  <SCORE.INTRA.DIHEDRAL>
-5.43393

>  <SCORE.INTRA.DIHEDRAL.0>
8.62657

>  <SCORE.INTRA.POLAR>
0

>  <SCORE.INTRA.POLAR.0>
0

>  <SCORE.INTRA.REPUL>
0

>  <SCORE.INTRA.REPUL.0>
0

>  <SCORE.INTRA.SOLV>
2.41592

>  <SCORE.INTRA.SOLV.lig_0>
-66.3641

>  <SCORE.INTRA.VDW>
-1.24169

>  <SCORE.INTRA.VDW.0>
0.452231

>  <SCORE.INTRA.norm>
-0.119596

>  <SCORE.RESTR>
0.163752

>  <SCORE.RESTR.CAVITY>
0.163752

>  <SCORE.RESTR.norm>
0.00711965

>  <SCORE.SYSTEM>
0

>  <SCORE.SYSTEM.CONST>
0

>  <SCORE.SYSTEM.DIHEDRAL>
0

>  <SCORE.SYSTEM.SOLV>
0

>  <SCORE.SYSTEM.norm>
0

>  <SCORE.heavy>
23

>  <SCORE.norm>
-0.715881

>  <RMSD>
7.814

$$$$
ligand
 OpenBabel02271912143D
libRbt.so/2013.1/901 2013/11/27
 23 25  0  0  0  0  0  0  0  0999 V2000
   21.4800    4.9515   29.6593 P   0  0  1  0  0  0  0  0  0  0  0  0
   23.0304    2.9188   29.0939 C   0  0  0  0  0  0  0  0  0  0  0  0
   22.7024    3.9627   30.0003 O   0  0  0  0  0  0  0  0  0  0  0  0
   24.2749    2.2398   29.6200 C   0  0  1  0  0  0  0  0  0  0  0  0
   24.1205    1.8087   30.9718 O   0  0  0  0  0  0  0  0  0  0  0  0
   24.5711    1.0149   28.7713 C   0  0  1  0  0  0  0  0  0  0  0  0
   25.9683    1.0331   28.4314 O   0  0  0  0  0  0  0  0  0  0  0  0
   24.2087   -0.1776   29.6476 C   0  0  0  0  0  0  0  0  0  0  0  0
   24.2211    0.3818   31.0676 C   0  0  2  0  0  0  0  0  0  0  0  0
   22.2220   -3.1520   34.2375 N   0  0  0  0  0  0  0  0  0  0  0  0
   23.4643   -3.1049   33.7295 C   0  0  2  0  0  0  0  0  0  0  0  0
   24.3280   -4.0859   34.0806 N   0  0  0  0  0  0  0  0  0  0  0  0
   23.8425   -2.1021   32.9005 N   0  0  0  0  0  0  0  0  0  0  0  0
   22.9594   -1.1353   32.5767 C   0  0  2  0  0  0  0  0  0  0  0  0
   21.6801   -1.1703   33.0879 C   0  0  1  0  0  0  0  0  0  0  0  0
   21.3208   -2.1991   33.9377 C   0  0  0  0  0  0  0  0  0  0  0  0
   20.1674   -2.2455   34.4172 O   0  0  0  0  0  0  0  0  0  0  0  0
   21.0081   -0.1058   32.6067 N   0  0  0  0  0  0  0  0  0  0  0  0
   21.8553    0.5796   31.8188 C   0  0  0  0  0  0  0  0  0  0  0  0
   23.0300   -0.0597   31.8006 N   0  0  1  0  0  0  0  0  0  0  0  0
   21.9186    5.8115   28.4991 O   0  0  0  0  0  0  0  0  0  0  0  0
   20.3334    4.0183   29.3453 O   0  5  0  0  0  0  0  0  0  0  0  0
   21.3064    5.7177   30.9427 O   0  0  0  0  0  0  0  0  0  0  0  0
  1  3  1  1  0  0  0
  1 21  1  0  0  0  0
  1 22  1  0  0  0  0
  1 23  2  0  0  0  0
  2  3  1  0  0  0  0
  4  2  1  6  0  0  0
  4  5  1  0  0  0  0
  4  6  1  0  0  0  0
  6  7  1  1  0  0  0
  6  8  1  0  0  0  0
  8  9  1  0  0  0  0
  9  5  1  6  0  0  0
  9 20  1  0  0  0  0
 10 11  1  0  0  0  0
 10 16  1  0  0  0  0
 11 12  1  1  0  0  0
 11 13  1  0  0  0  0
 14 13  1  6  0  0  0
 14 15  1  0  0  0  0
 14 20  1  0  0  0  0
 15 16  1  1  0  0  0
 15 18  1  0  0  0  0
 16 17  2  0  0  0  0
 18 19  1  0  0  0  0
 20 19  1  1  0  0  0
M  CHG  1  22  -1
M  END
>  <CHROM.1>
-70.16128045,54.04574648,175.41941087,-150.41341395,22.70268404,1.00914550
31.19737915,1.63535999,0.54741322,-0.57258151

>  <Name>
ligand

>  <RI>
416

>  <Rbt.Current_Directory>
/home/itssahil/PROJECTS/Mol_Feturizer/Test_systems_manuscript/rnas/3slm

>  <Rbt.Executable>
rbdock ($Id: //depot/dev/client3/rdock/2013.1/src/exe/rbdock.cxx#4 $)

>  <Rbt.Library>
libRbt.so (2013.1, Build901 2013/11/27)

>  <Rbt.Parameter_File>
/export/apps/rDock/src/rDock_2013.1_src/data/scripts/dock_solv.prm

>  <Rbt.Receptor>
prm/pocket_docking_6.prm

>  <SCORE>
-20.6301

>  <SCORE.INTER>
-14.976

>  <SCORE.INTER.CONST>
1

>  <SCORE.INTER.POLAR>
0

>  <SCORE.INTER.ROT>
4

>  <SCORE.INTER.SOLV>
14.5067

>  <SCORE.INTER.VDW>
-21.0863

>  <SCORE.INTER.norm>
-0.651133

>  <SCORE.INTRA>
-5.65406

>  <SCORE.INTRA.DIHEDRAL>
-6.98831

>  <SCORE.INTRA.DIHEDRAL.0>
8.62657

>  <SCORE.INTRA.POLAR>
0

>  <SCORE.INTRA.POLAR.0>
0

>  <SCORE.INTRA.REPUL>
0

>  <SCORE.INTRA.REPUL.0>
0

>  <SCORE.INTRA.SOLV>
-0.605857

>  <SCORE.INTRA.SOLV.lig_0>
-66.3641

>  <SCORE.INTRA.VDW>
-1.85698

>  <SCORE.INTRA.VDW.0>
0.452231

>  <SCORE.INTRA.norm>
-0.245829

>  <SCORE.RESTR>
0

>  <SCORE.RESTR.CAVITY>
0

>  <SCORE.RESTR.norm>
0

>  <SCORE.SYSTEM>
0

>  <SCORE.SYSTEM.CONST>
0

>  <SCORE.SYSTEM.DIHEDRAL>
0

>  <SCORE.SYSTEM.SOLV>
0

>  <SCORE.SYSTEM.norm>
0

>  <SCORE.heavy>
23

>  <SCORE.norm>
-0.896961

>  <RMSD>
7.822

$$$$
ligand
 OpenBabel02271912143D
libRbt.so/2013.1/901 2013/11/27
 23 25  0  0  0  0  0  0  0  0999 V2000
   23.0049    1.8752   32.2210 P   0  0  1  0  0  0  0  0  0  0  0  0
   21.6621    3.2827   30.4685 C   0  0  0  0  0  0  0  0  0  0  0  0
   21.6258    2.3668   31.5541 O   0  0  0  0  0  0  0  0  0  0  0  0
   20.2306    3.5974   30.0964 C   0  0  1  0  0  0  0  0  0  0  0  0
   19.5514    4.3094   31.1301 O   0  0  0  0  0  0  0  0  0  0  0  0
   20.2189    4.4642   28.8486 C   0  0  1  0  0  0  0  0  0  0  0  0
   19.2556    3.9164   27.9321 O   0  0  0  0  0  0  0  0  0  0  0  0
   19.8270    5.8555   29.3300 C   0  0  0  0  0  0  0  0  0  0  0  0
   19.1554    5.6113   30.6787 C   0  0  2  0  0  0  0  0  0  0  0  0
   19.2144   10.5063   32.2811 N   0  0  0  0  0  0  0  0  0  0  0  0
   18.5907    9.9950   31.2072 C   0  0  2  0  0  0  0  0  0  0  0  0
   17.8710   10.8400   30.4329 N   0  0  0  0  0  0  0  0  0  0  0  0
   18.6721    8.6745   30.9149 N   0  0  0  0  0  0  0  0  0  0  0  0
   19.3915    7.8579   31.7120 C   0  0  2  0  0  0  0  0  0  0  0  0
   20.0391    8.3673   32.8167 C   0  0  1  0  0  0  0  0  0  0  0  0
   19.9344    9.7162   33.0981 C   0  0  0  0  0  0  0  0  0  0  0  0
   20.5088   10.1967   34.0988 O   0  0  0  0  0  0  0  0  0  0  0  0
   20.6834    7.3536   33.4281 N   0  0  0  0  0  0  0  0  0  0  0  0
   20.4346    6.2370   32.7213 C   0  0  0  0  0  0  0  0  0  0  0  0
   19.6602    6.5575   31.6791 N   0  0  1  0  0  0  0  0  0  0  0  0
   23.5372    3.0292   33.0352 O   0  0  0  0  0  0  0  0  0  0  0  0
   22.6045    0.6681   33.0376 O   0  5  0  0  0  0  0  0  0  0  0  0
   23.8525    1.5446   31.0223 O   0  0  0  0  0  0  0  0  0  0  0  0
  1  3  1  6  0  0  0
  1 21  1  0  0  0  0
  1 22  1  0  0  0  0
  1 23  2  0  0  0  0
  2  3  1  0  0  0  0
  4  2  1  1  0  0  0
  4  5  1  0  0  0  0
  4  6  1  0  0  0  0
  6  7  1  6  0  0  0
  6  8  1  0  0  0  0
  8  9  1  0  0  0  0
  9  5  1  1  0  0  0
  9 20  1  0  0  0  0
 10 11  1  0  0  0  0
 10 16  1  0  0  0  0
 11 12  1  1  0  0  0
 11 13  1  0  0  0  0
 14 13  1  6  0  0  0
 14 15  1  0  0  0  0
 14 20  1  0  0  0  0
 15 16  1  1  0  0  0
 15 18  1  0  0  0  0
 16 17  2  0  0  0  0
 18 19  1  0  0  0  0
 20 19  1  1  0  0  0
M  CHG  1  22  -1
M  END
>  <CHROM.1>
73.71841687,66.26036464,-177.75464909,-172.65473815,20.61687266,5.59320863
31.50272343,-0.86886440,-0.89837016,0.63021481

>  <Name>
ligand

>  <RI>
0

>  <Rbt.Current_Directory>
/home/itssahil/PROJECTS/Mol_Feturizer/Test_systems_manuscript/rnas/3slm

>  <Rbt.Executable>
rbdock ($Id: //depot/dev/client3/rdock/2013.1/src/exe/rbdock.cxx#4 $)

>  <Rbt.Library>
libRbt.so (2013.1, Build901 2013/11/27)

>  <Rbt.Parameter_File>
/export/apps/rDock/src/rDock_2013.1_src/data/scripts/dock_solv.prm

>  <Rbt.Receptor>
prm/pocket_docking_8.prm

>  <SCORE>
-21.3034

>  <SCORE.INTER>
-16.1025

>  <SCORE.INTER.CONST>
1

>  <SCORE.INTER.POLAR>
0

>  <SCORE.INTER.ROT>
4

>  <SCORE.INTER.SOLV>
14.1515

>  <SCORE.INTER.VDW>
-21.7188

>  <SCORE.INTER.norm>
-0.700108

>  <SCORE.INTRA>
-5.20093

>  <SCORE.INTRA.DIHEDRAL>
-6.9208

>  <SCORE.INTRA.DIHEDRAL.0>
8.62657

>  <SCORE.INTRA.POLAR>
0

>  <SCORE.INTRA.POLAR.0>
0

>  <SCORE.INTRA.REPUL>
0

>  <SCORE.INTRA.REPUL.0>
0

>  <SCORE.INTRA.SOLV>
-0.570671

>  <SCORE.INTRA.SOLV.lig_0>
-66.3641

>  <SCORE.INTRA.VDW>
-1.4552

>  <SCORE.INTRA.VDW.0>
0.452231

>  <SCORE.INTRA.norm>
-0.226127

>  <SCORE.RESTR>
0

>  <SCORE.RESTR.CAVITY>
0

>  <SCORE.RESTR.norm>
0

>  <SCORE.SYSTEM>
0

>  <SCORE.SYSTEM.CONST>
0

>  <SCORE.SYSTEM.DIHEDRAL>
0

>  <SCORE.SYSTEM.SOLV>
0

>  <SCORE.SYSTEM.norm>
0

>  <SCORE.heavy>
23

>  <SCORE.norm>
-0.926236

>  <RMSD>
7.833

$$$$
ligand
 OpenBabel02271912143D
libRbt.so/2013.1/901 2013/11/27
 23 25  0  0  0  0  0  0  0  0999 V2000
   19.3621    2.1063   26.8535 P   0  0  1  0  0  0  0  0  0  0  0  0
   20.5049    1.7034   29.1745 C   0  0  0  0  0  0  0  0  0  0  0  0
   19.6977    2.5464   28.3642 O   0  0  0  0  0  0  0  0  0  0  0  0
   20.6242    2.3618   30.5305 C   0  0  1  0  0  0  0  0  0  0  0  0
   21.0447    1.4430   31.5384 O   0  0  0  0  0  0  0  0  0  0  0  0
   21.6559    3.4747   30.4552 C   0  0  1  0  0  0  0  0  0  0  0  0
   21.0979    4.6451   31.0773 O   0  0  0  0  0  0  0  0  0  0  0  0
   22.8706    2.9477   31.2087 C   0  0  0  0  0  0  0  0  0  0  0  0
   22.3134    1.8280   32.0837 C   0  0  2  0  0  0  0  0  0  0  0  0
   23.2299   -2.9136   33.8752 N   0  0  0  0  0  0  0  0  0  0  0  0
   22.2729   -2.0542   34.2614 C   0  0  2  0  0  0  0  0  0  0  0  0
   21.4193   -2.4540   35.2326 N   0  0  0  0  0  0  0  0  0  0  0  0
   22.1605   -0.8308   33.6900 N   0  0  0  0  0  0  0  0  0  0  0  0
   23.0229   -0.4664   32.7188 C   0  0  2  0  0  0  0  0  0  0  0  0
   24.0118   -1.3359   32.3126 C   0  0  1  0  0  0  0  0  0  0  0  0
   24.1009   -2.5811   32.9053 C   0  0  0  0  0  0  0  0  0  0  0  0
   24.9867   -3.3869   32.5466 O   0  0  0  0  0  0  0  0  0  0  0  0
   24.7315   -0.7296   31.3478 N   0  0  0  0  0  0  0  0  0  0  0  0
   24.1955    0.4884   31.1544 C   0  0  0  0  0  0  0  0  0  0  0  0
   23.1685    0.6396   31.9978 N   0  0  1  0  0  0  0  0  0  0  0  0
   18.7233    0.7406   26.9234 O   0  0  0  0  0  0  0  0  0  0  0  0
   18.4461    3.1984   26.3511 O   0  5  0  0  0  0  0  0  0  0  0  0
   20.7182    2.1022   26.2012 O   0  0  0  0  0  0  0  0  0  0  0  0
  1  3  1  1  0  0  0
  1 21  1  0  0  0  0
  1 22  1  0  0  0  0
  1 23  2  0  0  0  0
  2  3  1  0  0  0  0
  4  2  1  6  0  0  0
  4  5  1  0  0  0  0
  4  6  1  0  0  0  0
  6  7  1  1  0  0  0
  6  8  1  0  0  0  0
  8  9  1  0  0  0  0
  9  5  1  6  0  0  0
  9 20  1  0  0  0  0
 10 11  1  0  0  0  0
 10 16  1  0  0  0  0
 11 12  1  6  0  0  0
 11 13  1  0  0  0  0
 14 13  1  1  0  0  0
 14 15  1  0  0  0  0
 14 20  1  0  0  0  0
 15 16  1  6  0  0  0
 15 18  1  0  0  0  0
 16 17  2  0  0  0  0
 18 19  1  0  0  0  0
 20 19  1  6  0  0  0
M  CHG  1  22  -1
M  END
>  <CHROM.1>
55.92663168,161.75980143,-179.06539186,-69.53458433,21.70590588,0.73887776
30.65381208,2.86151127,-1.06886568,0.32624084

>  <Name>
ligand

>  <RI>
0

>  <Rbt.Current_Directory>
/home/itssahil/PROJECTS/Mol_Feturizer/Test_systems_manuscript/rnas/3slm

>  <Rbt.Executable>
rbdock ($Id: //depot/dev/client3/rdock/2013.1/src/exe/rbdock.cxx#4 $)

>  <Rbt.Library>
libRbt.so (2013.1, Build901 2013/11/27)

>  <Rbt.Parameter_File>
/export/apps/rDock/src/rDock_2013.1_src/data/scripts/dock_solv.prm

>  <Rbt.Receptor>
prm/pocket_docking_8.prm

>  <SCORE>
-19.1016

>  <SCORE.INTER>
-14.8815

>  <SCORE.INTER.CONST>
1

>  <SCORE.INTER.POLAR>
0

>  <SCORE.INTER.ROT>
4

>  <SCORE.INTER.SOLV>
18.079

>  <SCORE.INTER.VDW>
-22.214

>  <SCORE.INTER.norm>
-0.647022

>  <SCORE.INTRA>
-4.22012

>  <SCORE.INTRA.DIHEDRAL>
-6.31886

>  <SCORE.INTRA.DIHEDRAL.0>
8.62657

>  <SCORE.INTRA.POLAR>
0

>  <SCORE.INTRA.POLAR.0>
0

>  <SCORE.INTRA.REPUL>
0

>  <SCORE.INTRA.REPUL.0>
0

>  <SCORE.INTRA.SOLV>
-0.533561

>  <SCORE.INTRA.SOLV.lig_0>
-66.3641

>  <SCORE.INTRA.VDW>
-0.793914

>  <SCORE.INTRA.VDW.0>
0.452231

>  <SCORE.INTRA.norm>
-0.183484

>  <SCORE.RESTR>
0

>  <SCORE.RESTR.CAVITY>
0

>  <SCORE.RESTR.norm>
0

>  <SCORE.SYSTEM>
0

>  <SCORE.SYSTEM.CONST>
0

>  <SCORE.SYSTEM.DIHEDRAL>
0

>  <SCORE.SYSTEM.SOLV>
0

>  <SCORE.SYSTEM.norm>
0

>  <SCORE.heavy>
23

>  <SCORE.norm>
-0.830506

>  <RMSD>
7.847

$$$$
ligand
 OpenBabel02271912143D
libRbt.so/2013.1/901 2013/11/27
 23 25  0  0  0  0  0  0  0  0999 V2000
   25.3136    0.0276   28.3758 P   0  0  1  0  0  0  0  0  0  0  0  0
   23.2258    1.5347   28.8506 C   0  0  0  0  0  0  0  0  0  0  0  0
   24.3083    0.7819   29.3801 O   0  0  0  0  0  0  0  0  0  0  0  0
   22.3712    1.9767   30.0171 C   0  0  1  0  0  0  0  0  0  0  0  0
   21.9349    0.8740   30.8112 O   0  0  0  0  0  0  0  0  0  0  0  0
   23.1839    2.9002   30.9088 C   0  0  1  0  0  0  0  0  0  0  0  0
   22.3798    4.0541   31.2092 O   0  0  0  0  0  0  0  0  0  0  0  0
   23.4998    2.0806   32.1536 C   0  0  0  0  0  0  0  0  0  0  0  0
   22.4593    0.9639   32.1424 C   0  0  2  0  0  0  0  0  0  0  0  0
   22.2190   -3.4367   34.8087 N   0  0  0  0  0  0  0  0  0  0  0  0
   21.3763   -2.3922   34.8588 C   0  0  2  0  0  0  0  0  0  0  0  0
   20.3157   -2.4758   35.6954 N   0  0  0  0  0  0  0  0  0  0  0  0
   21.5769   -1.2951   34.0895 N   0  0  0  0  0  0  0  0  0  0  0  0
   22.6399   -1.2471   33.2603 C   0  0  2  0  0  0  0  0  0  0  0  0
   23.5151   -2.3098   33.1986 C   0  0  1  0  0  0  0  0  0  0  0  0
   23.2845   -3.4208   33.9874 C   0  0  0  0  0  0  0  0  0  0  0  0
   24.0629   -4.3977   33.9414 O   0  0  0  0  0  0  0  0  0  0  0  0
   24.4809   -2.0051   32.3093 N   0  0  0  0  0  0  0  0  0  0  0  0
   24.2063   -0.7815   31.8238 C   0  0  0  0  0  0  0  0  0  0  0  0
   23.0953   -0.3291   32.4152 N   0  0  1  0  0  0  0  0  0  0  0  0
   25.8349    1.0652   27.4115 O   0  0  0  0  0  0  0  0  0  0  0  0
   26.3656   -0.5610   29.2874 O   0  5  0  0  0  0  0  0  0  0  0  0
   24.4252   -1.0005   27.7290 O   0  0  0  0  0  0  0  0  0  0  0  0
  1  3  1  1  0  0  0
  1 21  1  0  0  0  0
  1 22  1  0  0  0  0
  1 23  2  0  0  0  0
  2  3  1  0  0  0  0
  4  2  1  6  0  0  0
  4  5  1  0  0  0  0
  4  6  1  0  0  0  0
  6  7  1  1  0  0  0
  6  8  1  0  0  0  0
  8  9  1  0  0  0  0
  9  5  1  6  0  0  0
  9 20  1  0  0  0  0
 10 11  1  0  0  0  0
 10 16  1  0  0  0  0
 11 12  1  6  0  0  0
 11 13  1  0  0  0  0
 14 13  1  1  0  0  0
 14 15  1  0  0  0  0
 14 20  1  0  0  0  0
 15 16  1  6  0  0  0
 15 18  1  0  0  0  0
 16 17  2  0  0  0  0
 18 19  1  0  0  0  0
 20 19  1  6  0  0  0
M  CHG  1  22  -1
M  END
>  <CHROM.1>
54.55629083,-55.89882515,173.17358854,-109.54565901,23.45818583,-0.33780522
31.40034640,-1.06191600,-0.85871249,2.56048670

>  <Name>
ligand

>  <RI>
0

>  <Rbt.Current_Directory>
/home/itssahil/PROJECTS/Mol_Feturizer/Test_systems_manuscript/rnas/3slm

>  <Rbt.Executable>
rbdock ($Id: //depot/dev/client3/rdock/2013.1/src/exe/rbdock.cxx#4 $)

>  <Rbt.Library>
libRbt.so (2013.1, Build901 2013/11/27)

>  <Rbt.Parameter_File>
/export/apps/rDock/src/rDock_2013.1_src/data/scripts/dock_solv.prm

>  <Rbt.Receptor>
prm/pocket_docking_8.prm

>  <SCORE>
-19.1339

>  <SCORE.INTER>
-13.2105

>  <SCORE.INTER.CONST>
1

>  <SCORE.INTER.POLAR>
0

>  <SCORE.INTER.ROT>
4

>  <SCORE.INTER.SOLV>
14.4446

>  <SCORE.INTER.VDW>
-19.8885

>  <SCORE.INTER.norm>
-0.574369

>  <SCORE.INTRA>
-5.92344

>  <SCORE.INTRA.DIHEDRAL>
-7.12474

>  <SCORE.INTRA.DIHEDRAL.0>
8.62657

>  <SCORE.INTRA.POLAR>
0

>  <SCORE.INTRA.POLAR.0>
0

>  <SCORE.INTRA.REPUL>
0

>  <SCORE.INTRA.REPUL.0>
0

>  <SCORE.INTRA.SOLV>
0.136824

>  <SCORE.INTRA.SOLV.lig_0>
-66.3641

>  <SCORE.INTRA.VDW>
-2.42948

>  <SCORE.INTRA.VDW.0>
0.452231

>  <SCORE.INTRA.norm>
-0.257541

>  <SCORE.RESTR>
0

>  <SCORE.RESTR.CAVITY>
0

>  <SCORE.RESTR.norm>
0

>  <SCORE.SYSTEM>
0

>  <SCORE.SYSTEM.CONST>
0

>  <SCORE.SYSTEM.DIHEDRAL>
0

>  <SCORE.SYSTEM.SOLV>
0

>  <SCORE.SYSTEM.norm>
0

>  <SCORE.heavy>
23

>  <SCORE.norm>
-0.83191

>  <RMSD>
7.861

$$$$
ligand
 OpenBabel02271912143D
libRbt.so/2013.1/901 2013/11/27
 23 25  0  0  0  0  0  0  0  0999 V2000
   25.3057   -0.0269   28.4152 P   0  0  1  0  0  0  0  0  0  0  0  0
   23.2425    1.5213   28.8640 C   0  0  0  0  0  0  0  0  0  0  0  0
   24.3240    0.7756   29.4054 O   0  0  0  0  0  0  0  0  0  0  0  0
   22.3771    1.9653   30.0218 C   0  0  1  0  0  0  0  0  0  0  0  0
   21.9538    0.8664   30.8280 O   0  0  0  0  0  0  0  0  0  0  0  0
   23.1730    2.9115   30.9048 C   0  0  1  0  0  0  0  0  0  0  0  0
   22.3512    4.0573   31.1879 O   0  0  0  0  0  0  0  0  0  0  0  0
   23.4960    2.1121   32.1609 C   0  0  0  0  0  0  0  0  0  0  0  0
   22.4718    0.9804   32.1599 C   0  0  2  0  0  0  0  0  0  0  0  0
   22.2270   -3.4388   34.7948 N   0  0  0  0  0  0  0  0  0  0  0  0
   21.3600   -2.4134   34.8172 C   0  0  2  0  0  0  0  0  0  0  0  0
   20.2702   -2.5249   35.6119 N   0  0  0  0  0  0  0  0  0  0  0  0
   21.5657   -1.3080   34.0611 N   0  0  0  0  0  0  0  0  0  0  0  0
   22.6583   -1.2321   33.2738 C   0  0  2  0  0  0  0  0  0  0  0  0
   23.5587   -2.2750   33.2410 C   0  0  1  0  0  0  0  0  0  0  0  0
   23.3227   -3.3950   34.0153 C   0  0  0  0  0  0  0  0  0  0  0  0
   24.1237   -4.3544   33.9948 O   0  0  0  0  0  0  0  0  0  0  0  0
   24.5509   -1.9443   32.3909 N   0  0  0  0  0  0  0  0  0  0  0  0
   24.2681   -0.7244   31.9008 C   0  0  0  0  0  0  0  0  0  0  0  0
   23.1254   -0.2998   32.4511 N   0  0  1  0  0  0  0  0  0  0  0  0
   26.4364   -0.5667   29.2568 O   0  0  0  0  0  0  0  0  0  0  0  0
   24.4197   -1.0890   27.8059 O   0  5  0  0  0  0  0  0  0  0  0  0
   25.7364    1.0373   27.4423 O   0  0  0  0  0  0  0  0  0  0  0  0
  1  3  1  1  0  0  0
  1 21  1  0  0  0  0
  1 22  1  0  0  0  0
  1 23  2  0  0  0  0
  2  3  1  0  0  0  0
  4  2  1  6  0  0  0
  4  5  1  0  0  0  0
  4  6  1  0  0  0  0
  6  7  1  1  0  0  0
  6  8  1  0  0  0  0
  8  9  1  0  0  0  0
  9  5  1  6  0  0  0
  9 20  1  0  0  0  0
 10 11  1  0  0  0  0
 10 16  1  0  0  0  0
 11 12  1  6  0  0  0
 11 13  1  0  0  0  0
 14 13  1  1  0  0  0
 14 15  1  0  0  0  0
 14 20  1  0  0  0  0
 15 16  1  6  0  0  0
 15 18  1  0  0  0  0
 16 17  2  0  0  0  0
 18 19  1  0  0  0  0
 20 19  1  6  0  0  0
M  CHG  1  22  -1
M  END
>  <CHROM.1>
173.06730738,-55.12920791,170.77098820,-107.27413590,23.46712171,-0.34061226
31.41646409,-1.07168937,-0.85081223,2.55238308

>  <Name>
ligand

>  <RI>
0

>  <Rbt.Current_Directory>
/home/itssahil/PROJECTS/Mol_Feturizer/Test_systems_manuscript/rnas/3slm

>  <Rbt.Executable>
rbdock ($Id: //depot/dev/client3/rdock/2013.1/src/exe/rbdock.cxx#4 $)

>  <Rbt.Library>
libRbt.so (2013.1, Build901 2013/11/27)

>  <Rbt.Parameter_File>
/export/apps/rDock/src/rDock_2013.1_src/data/scripts/dock_solv.prm

>  <Rbt.Receptor>
prm/pocket_docking_7.prm

>  <SCORE>
-17.6057

>  <SCORE.INTER>
-12.1187

>  <SCORE.INTER.CONST>
1

>  <SCORE.INTER.POLAR>
0

>  <SCORE.INTER.ROT>
4

>  <SCORE.INTER.SOLV>
17.218

>  <SCORE.INTER.VDW>
-20.0852

>  <SCORE.INTER.norm>
-0.526902

>  <SCORE.INTRA>
-5.48691

>  <SCORE.INTRA.DIHEDRAL>
-6.89377

>  <SCORE.INTRA.DIHEDRAL.0>
8.62657

>  <SCORE.INTRA.POLAR>
0

>  <SCORE.INTRA.POLAR.0>
0

>  <SCORE.INTRA.REPUL>
0

>  <SCORE.INTRA.REPUL.0>
0

>  <SCORE.INTRA.SOLV>
0.396545

>  <SCORE.INTRA.SOLV.lig_0>
-66.3641

>  <SCORE.INTRA.VDW>
-2.2383

>  <SCORE.INTRA.VDW.0>
0.452231

>  <SCORE.INTRA.norm>
-0.238561

>  <SCORE.RESTR>
0

>  <SCORE.RESTR.CAVITY>
0

>  <SCORE.RESTR.norm>
0

>  <SCORE.SYSTEM>
0

>  <SCORE.SYSTEM.CONST>
0

>  <SCORE.SYSTEM.DIHEDRAL>
0

>  <SCORE.SYSTEM.SOLV>
0

>  <SCORE.SYSTEM.norm>
0

>  <SCORE.heavy>
23

>  <SCORE.norm>
-0.765463

>  <RMSD>
7.866

$$$$
ligand
 OpenBabel02271912143D
libRbt.so/2013.1/901 2013/11/27
 23 25  0  0  0  0  0  0  0  0999 V2000
   20.5826    3.4926   31.0199 P   0  0  1  0  0  0  0  0  0  0  0  0
   23.1586    3.3311   30.5806 C   0  0  0  0  0  0  0  0  0  0  0  0
   21.9357    2.6469   30.8150 O   0  0  0  0  0  0  0  0  0  0  0  0
   24.2512    2.2885   30.5062 C   0  0  1  0  0  0  0  0  0  0  0  0
   24.2415    1.4189   31.6379 O   0  0  0  0  0  0  0  0  0  0  0  0
   24.0454    1.4384   29.2638 C   0  0  1  0  0  0  0  0  0  0  0  0
   25.3078    1.3255   28.5845 O   0  0  0  0  0  0  0  0  0  0  0  0
   23.5466    0.0930   29.7762 C   0  0  0  0  0  0  0  0  0  0  0  0
   23.9724    0.0677   31.2418 C   0  0  2  0  0  0  0  0  0  0  0  0
   22.2901   -3.5635   34.4847 N   0  0  0  0  0  0  0  0  0  0  0  0
   23.4683   -3.5098   33.8423 C   0  0  2  0  0  0  0  0  0  0  0  0
   24.3516   -4.5123   34.0579 N   0  0  0  0  0  0  0  0  0  0  0  0
   23.7657   -2.4802   33.0133 N   0  0  0  0  0  0  0  0  0  0  0  0
   22.8659   -1.4927   32.8265 C   0  0  2  0  0  0  0  0  0  0  0  0
   21.6515   -1.5340   33.4767 C   0  0  1  0  0  0  0  0  0  0  0  0
   21.3748   -2.5907   34.3233 C   0  0  0  0  0  0  0  0  0  0  0  0
   20.2818   -2.6435   34.9274 O   0  0  0  0  0  0  0  0  0  0  0  0
   20.9453   -0.4452   33.1134 N   0  0  0  0  0  0  0  0  0  0  0  0
   21.7088    0.2609   32.2609 C   0  0  0  0  0  0  0  0  0  0  0  0
   22.8646   -0.3892   32.0873 N   0  0  1  0  0  0  0  0  0  0  0  0
   19.4667    2.4971   31.2244 O   0  0  0  0  0  0  0  0  0  0  0  0
   20.8735    4.3593   32.2234 O   0  5  0  0  0  0  0  0  0  0  0  0
   20.4736    4.2601   29.7301 O   0  0  0  0  0  0  0  0  0  0  0  0
  1  3  1  6  0  0  0
  1 21  1  0  0  0  0
  1 22  1  0  0  0  0
  1 23  2  0  0  0  0
  2  3  1  0  0  0  0
  4  2  1  1  0  0  0
  4  5  1  0  0  0  0
  4  6  1  0  0  0  0
  6  7  1  1  0  0  0
  6  8  1  0  0  0  0
  8  9  1  0  0  0  0
  9  5  1  1  0  0  0
  9 20  1  0  0  0  0
 10 11  1  0  0  0  0
 10 16  1  0  0  0  0
 11 12  1  1  0  0  0
 11 13  1  0  0  0  0
 14 13  1  6  0  0  0
 14 15  1  0  0  0  0
 14 20  1  0  0  0  0
 15 16  1  1  0  0  0
 15 18  1  0  0  0  0
 16 17  2  0  0  0  0
 18 19  1  0  0  0  0
 20 19  1  1  0  0  0
M  CHG  1  22  -1
M  END
>  <CHROM.1>
179.14172885,-52.19325154,176.91490755,-126.78965018,22.36707020,0.47447048
31.85698938,1.70310982,0.50005192,-0.56748149

>  <Name>
ligand

>  <RI>
416

>  <Rbt.Current_Directory>
/home/itssahil/PROJECTS/Mol_Feturizer/Test_systems_manuscript/rnas/3slm

>  <Rbt.Executable>
rbdock ($Id: //depot/dev/client3/rdock/2013.1/src/exe/rbdock.cxx#4 $)

>  <Rbt.Library>
libRbt.so (2013.1, Build901 2013/11/27)

>  <Rbt.Parameter_File>
/export/apps/rDock/src/rDock_2013.1_src/data/scripts/dock_solv.prm

>  <Rbt.Receptor>
prm/pocket_docking_6.prm

>  <SCORE>
-19.5397

>  <SCORE.INTER>
-13.7036

>  <SCORE.INTER.CONST>
1

>  <SCORE.INTER.POLAR>
0

>  <SCORE.INTER.ROT>
4

>  <SCORE.INTER.SOLV>
13.5818

>  <SCORE.INTER.VDW>
-19.9296

>  <SCORE.INTER.norm>
-0.595808

>  <SCORE.INTRA>
-5.83613

>  <SCORE.INTRA.DIHEDRAL>
-7.1362

>  <SCORE.INTRA.DIHEDRAL.0>
8.62657

>  <SCORE.INTRA.POLAR>
0

>  <SCORE.INTRA.POLAR.0>
0

>  <SCORE.INTRA.REPUL>
0

>  <SCORE.INTRA.REPUL.0>
0

>  <SCORE.INTRA.SOLV>
0.40847

>  <SCORE.INTRA.SOLV.lig_0>
-66.3641

>  <SCORE.INTRA.VDW>
-2.47226

>  <SCORE.INTRA.VDW.0>
0.452231

>  <SCORE.INTRA.norm>
-0.253745

>  <SCORE.RESTR>
0

>  <SCORE.RESTR.CAVITY>
0

>  <SCORE.RESTR.norm>
0

>  <SCORE.SYSTEM>
0

>  <SCORE.SYSTEM.CONST>
0

>  <SCORE.SYSTEM.DIHEDRAL>
0

>  <SCORE.SYSTEM.SOLV>
0

>  <SCORE.SYSTEM.norm>
0

>  <SCORE.heavy>
23

>  <SCORE.norm>
-0.849553

>  <RMSD>
7.901

$$$$
ligand
 OpenBabel02271912143D
libRbt.so/2013.1/901 2013/11/27
 23 25  0  0  0  0  0  0  0  0999 V2000
   24.2067    0.7915   27.9560 P   0  0  1  0  0  0  0  0  0  0  0  0
   22.0907    1.7831   29.1368 C   0  0  0  0  0  0  0  0  0  0  0  0
   23.4199    1.2977   29.2648 O   0  0  0  0  0  0  0  0  0  0  0  0
   21.5825    2.0776   30.5302 C   0  0  1  0  0  0  0  0  0  0  0  0
   21.5202    0.9030   31.3384 O   0  0  0  0  0  0  0  0  0  0  0  0
   22.5240    3.0593   31.2071 C   0  0  1  0  0  0  0  0  0  0  0  0
   21.7313    4.0971   31.8093 O   0  0  0  0  0  0  0  0  0  0  0  0
   23.2806    2.2394   32.2446 C   0  0  0  0  0  0  0  0  0  0  0  0
   22.4060    1.0073   32.4607 C   0  0  2  0  0  0  0  0  0  0  0  0
   23.0203   -3.7537   34.3283 N   0  0  0  0  0  0  0  0  0  0  0  0
   22.0651   -2.8612   34.6364 C   0  0  2  0  0  0  0  0  0  0  0  0
   21.1252   -3.2280   35.5384 N   0  0  0  0  0  0  0  0  0  0  0  0
   22.0388   -1.6374   34.0554 N   0  0  0  0  0  0  0  0  0  0  0  0
   22.9864   -1.3063   33.1542 C   0  0  2  0  0  0  0  0  0  0  0  0
   23.9745   -2.2101   32.8286 C   0  0  1  0  0  0  0  0  0  0  0  0
   23.9752   -3.4548   33.4290 C   0  0  0  0  0  0  0  0  0  0  0  0
   24.8589   -4.2911   33.1426 O   0  0  0  0  0  0  0  0  0  0  0  0
   24.7875   -1.6324   31.9221 N   0  0  0  0  0  0  0  0  0  0  0  0
   24.3093   -0.3982   31.6848 C   0  0  0  0  0  0  0  0  0  0  0  0
   23.2250   -0.2092   32.4446 N   0  0  1  0  0  0  0  0  0  0  0  0
   23.7808   -0.6354   27.7095 O   0  0  0  0  0  0  0  0  0  0  0  0
   23.7842    1.7634   26.8784 O   0  5  0  0  0  0  0  0  0  0  0  0
   25.6488    0.9257   28.3644 O   0  0  0  0  0  0  0  0  0  0  0  0
  1  3  1  1  0  0  0
  1 21  1  0  0  0  0
  1 22  1  0  0  0  0
  1 23  2  0  0  0  0
  2  3  1  0  0  0  0
  4  2  1  6  0  0  0
  4  5  1  0  0  0  0
  4  6  1  0  0  0  0
  6  7  1  1  0  0  0
  6  8  1  0  0  0  0
  8  9  1  0  0  0  0
  9  5  1  6  0  0  0
  9 20  1  0  0  0  0
 10 11  1  0  0  0  0
 10 16  1  0  0  0  0
 11 12  1  6  0  0  0
 11 13  1  0  0  0  0
 14 13  1  1  0  0  0
 14 15  1  0  0  0  0
 14 20  1  0  0  0  0
 15 16  1  6  0  0  0
 15 18  1  0  0  0  0
 16 17  2  0  0  0  0
 18 19  1  0  0  0  0
 20 19  1  6  0  0  0
M  CHG  1  22  -1
M  END
>  <CHROM.1>
-83.14345941,-62.86144502,175.62525775,-96.39603520,23.21336274,-0.12788764
31.26987019,-1.44540181,-0.95756233,2.38499819

>  <Name>
ligand

>  <RI>
0

>  <Rbt.Current_Directory>
/home/itssahil/PROJECTS/Mol_Feturizer/Test_systems_manuscript/rnas/3slm

>  <Rbt.Executable>
rbdock ($Id: //depot/dev/client3/rdock/2013.1/src/exe/rbdock.cxx#4 $)

>  <Rbt.Library>
libRbt.so (2013.1, Build901 2013/11/27)

>  <Rbt.Parameter_File>
/export/apps/rDock/src/rDock_2013.1_src/data/scripts/dock_solv.prm

>  <Rbt.Receptor>
prm/pocket_docking_7.prm

>  <SCORE>
-18.4037

>  <SCORE.INTER>
-13.3829

>  <SCORE.INTER.CONST>
1

>  <SCORE.INTER.POLAR>
0

>  <SCORE.INTER.ROT>
4

>  <SCORE.INTER.SOLV>
15.8773

>  <SCORE.INTER.VDW>
-20.481

>  <SCORE.INTER.norm>
-0.581867

>  <SCORE.INTRA>
-5.02072

>  <SCORE.INTRA.DIHEDRAL>
-6.60935

>  <SCORE.INTRA.DIHEDRAL.0>
8.62657

>  <SCORE.INTRA.POLAR>
0

>  <SCORE.INTRA.POLAR.0>
0

>  <SCORE.INTRA.REPUL>
0

>  <SCORE.INTRA.REPUL.0>
0

>  <SCORE.INTRA.SOLV>
0.0121316

>  <SCORE.INTRA.SOLV.lig_0>
-66.3641

>  <SCORE.INTRA.VDW>
-1.72211

>  <SCORE.INTRA.VDW.0>
0.452231

>  <SCORE.INTRA.norm>
-0.218292

>  <SCORE.RESTR>
0

>  <SCORE.RESTR.CAVITY>
0

>  <SCORE.RESTR.norm>
0

>  <SCORE.SYSTEM>
0

>  <SCORE.SYSTEM.CONST>
0

>  <SCORE.SYSTEM.DIHEDRAL>
0

>  <SCORE.SYSTEM.SOLV>
0

>  <SCORE.SYSTEM.norm>
0

>  <SCORE.heavy>
23

>  <SCORE.norm>
-0.800159

>  <RMSD>
7.915

$$$$
ligand
 OpenBabel02271912143D
libRbt.so/2013.1/901 2013/11/27
 23 25  0  0  0  0  0  0  0  0999 V2000
   19.3202    5.3016   31.8405 P   0  0  1  0  0  0  0  0  0  0  0  0
   21.3736    3.6801   31.7435 C   0  0  0  0  0  0  0  0  0  0  0  0
   20.5601    4.6286   31.0673 O   0  0  0  0  0  0  0  0  0  0  0  0
   22.5486    3.3711   30.8434 C   0  0  1  0  0  0  0  0  0  0  0  0
   23.4526    2.4420   31.4404 O   0  0  0  0  0  0  0  0  0  0  0  0
   22.0383    2.7589   29.5498 C   0  0  1  0  0  0  0  0  0  0  0  0
   22.6895    3.4228   28.4529 O   0  0  0  0  0  0  0  0  0  0  0  0
   22.4096    1.2835   29.6303 C   0  0  0  0  0  0  0  0  0  0  0  0
   23.5217    1.2321   30.6745 C   0  0  2  0  0  0  0  0  0  0  0  0
   25.1781   -3.3011   32.4740 N   0  0  0  0  0  0  0  0  0  0  0  0
   25.7131   -2.5549   31.4938 C   0  0  2  0  0  0  0  0  0  0  0  0
   26.8323   -3.0157   30.8884 N   0  0  0  0  0  0  0  0  0  0  0  0
   25.1551   -1.3749   31.1304 N   0  0  0  0  0  0  0  0  0  0  0  0
   24.0438   -0.9405   31.7596 C   0  0  2  0  0  0  0  0  0  0  0  0
   23.4814   -1.6954   32.7662 C   0  0  1  0  0  0  0  0  0  0  0  0
   24.0737   -2.8916   33.1240 C   0  0  0  0  0  0  0  0  0  0  0  0
   23.5829   -3.5879   34.0388 O   0  0  0  0  0  0  0  0  0  0  0  0
   22.3893   -1.0461   33.2155 N   0  0  0  0  0  0  0  0  0  0  0  0
   22.2805    0.0918   32.5072 C   0  0  0  0  0  0  0  0  0  0  0  0
   23.2820    0.1388   31.6221 N   0  0  1  0  0  0  0  0  0  0  0  0
   18.3954    4.1814   32.2506 O   0  0  0  0  0  0  0  0  0  0  0  0
   19.9648    6.0326   32.9957 O   0  5  0  0  0  0  0  0  0  0  0  0
   18.7338    6.2123   30.7958 O   0  0  0  0  0  0  0  0  0  0  0  0
  1  3  1  6  0  0  0
  1 21  1  0  0  0  0
  1 22  1  0  0  0  0
  1 23  2  0  0  0  0
  2  3  1  0  0  0  0
  4  2  1  1  0  0  0
  4  5  1  0  0  0  0
  4  6  1  0  0  0  0
  6  7  1  6  0  0  0
  6  8  1  0  0  0  0
  8  9  1  0  0  0  0
  9  5  1  1  0  0  0
  9 20  1  0  0  0  0
 10 11  1  0  0  0  0
 10 16  1  0  0  0  0
 11 12  1  1  0  0  0
 11 13  1  0  0  0  0
 14 13  1  6  0  0  0
 14 15  1  0  0  0  0
 14 20  1  0  0  0  0
 15 16  1  1  0  0  0
 15 18  1  0  0  0  0
 16 17  2  0  0  0  0
 18 19  1  0  0  0  0
 20 19  1  1  0  0  0
M  CHG  1  22  -1
M  END
>  <CHROM.1>
-59.89042854,178.78658645,-172.45227324,-129.47709395,22.38360830,1.43034383
31.57997114,2.39212147,0.73092397,-0.72346842

>  <Name>
ligand

>  <RI>
416

>  <Rbt.Current_Directory>
/home/itssahil/PROJECTS/Mol_Feturizer/Test_systems_manuscript/rnas/3slm

>  <Rbt.Executable>
rbdock ($Id: //depot/dev/client3/rdock/2013.1/src/exe/rbdock.cxx#4 $)

>  <Rbt.Library>
libRbt.so (2013.1, Build901 2013/11/27)

>  <Rbt.Parameter_File>
/export/apps/rDock/src/rDock_2013.1_src/data/scripts/dock_solv.prm

>  <Rbt.Receptor>
prm/pocket_docking_5.prm

>  <SCORE>
-20.9347

>  <SCORE.INTER>
-15.3791

>  <SCORE.INTER.CONST>
1

>  <SCORE.INTER.POLAR>
0

>  <SCORE.INTER.ROT>
4

>  <SCORE.INTER.SOLV>
16.4812

>  <SCORE.INTER.VDW>
-22.0131

>  <SCORE.INTER.norm>
-0.668655

>  <SCORE.INTRA>
-5.55734

>  <SCORE.INTRA.DIHEDRAL>
-7.11154

>  <SCORE.INTRA.DIHEDRAL.0>
8.62657

>  <SCORE.INTRA.POLAR>
0

>  <SCORE.INTRA.POLAR.0>
0

>  <SCORE.INTRA.REPUL>
0

>  <SCORE.INTRA.REPUL.0>
0

>  <SCORE.INTRA.SOLV>
-0.518112

>  <SCORE.INTRA.SOLV.lig_0>
-66.3641

>  <SCORE.INTRA.VDW>
-1.74251

>  <SCORE.INTRA.VDW.0>
0.452231

>  <SCORE.INTRA.norm>
-0.241623

>  <SCORE.RESTR>
0.00168943

>  <SCORE.RESTR.CAVITY>
0.00168943

>  <SCORE.RESTR.norm>
7.34536e-05

>  <SCORE.SYSTEM>
0

>  <SCORE.SYSTEM.CONST>
0

>  <SCORE.SYSTEM.DIHEDRAL>
0

>  <SCORE.SYSTEM.SOLV>
0

>  <SCORE.SYSTEM.norm>
0

>  <SCORE.heavy>
23

>  <SCORE.norm>
-0.910205

>  <RMSD>
7.916

$$$$
ligand
 OpenBabel02271912143D
libRbt.so/2013.1/901 2013/11/27
 23 25  0  0  0  0  0  0  0  0999 V2000
   21.0396    4.5145   30.1813 P   0  0  1  0  0  0  0  0  0  0  0  0
   22.8384    2.7907   29.3763 C   0  0  0  0  0  0  0  0  0  0  0  0
   22.4632    3.7791   30.3256 O   0  0  0  0  0  0  0  0  0  0  0  0
   24.1244    2.1625   29.8643 C   0  0  1  0  0  0  0  0  0  0  0  0
   24.0177    1.6964   31.2091 O   0  0  0  0  0  0  0  0  0  0  0  0
   24.4627    0.9713   28.9839 C   0  0  1  0  0  0  0  0  0  0  0  0
   25.8505    1.0647   28.6185 O   0  0  0  0  0  0  0  0  0  0  0  0
   24.1757   -0.2554   29.8407 C   0  0  0  0  0  0  0  0  0  0  0  0
   24.1890    0.2744   31.2721 C   0  0  2  0  0  0  0  0  0  0  0  0
   22.4067   -3.4543   34.3465 N   0  0  0  0  0  0  0  0  0  0  0  0
   23.6321   -3.3410   33.8086 C   0  0  2  0  0  0  0  0  0  0  0  0
   24.5398   -4.3026   34.0967 N   0  0  0  0  0  0  0  0  0  0  0  0
   23.9509   -2.2928   33.0115 N   0  0  0  0  0  0  0  0  0  0  0  0
   23.0248   -1.3472   32.7506 C   0  0  2  0  0  0  0  0  0  0  0  0
   21.7623   -1.4499   33.2932 C   0  0  1  0  0  0  0  0  0  0  0  0
   21.4638   -2.5244   34.1095 C   0  0  0  0  0  0  0  0  0  0  0  0
   20.3266   -2.6325   34.6167 O   0  0  0  0  0  0  0  0  0  0  0  0
   21.0394   -0.3928   32.8735 N   0  0  0  0  0  0  0  0  0  0  0  0
   21.8393    0.3543   32.0924 C   0  0  0  0  0  0  0  0  0  0  0  0
   23.0352   -0.2397   32.0174 N   0  0  1  0  0  0  0  0  0  0  0  0
   19.9872    3.4336   30.1362 O   0  0  0  0  0  0  0  0  0  0  0  0
   20.9655    5.4066   31.3991 O   0  5  0  0  0  0  0  0  0  0  0  0
   21.1851    5.2654   28.8854 O   0  0  0  0  0  0  0  0  0  0  0  0
  1  3  1  1  0  0  0
  1 21  1  0  0  0  0
  1 22  1  0  0  0  0
  1 23  2  0  0  0  0
  2  3  1  0  0  0  0
  4  2  1  6  0  0  0
  4  5  1  0  0  0  0
  4  6  1  0  0  0  0
  6  7  1  1  0  0  0
  6  8  1  0  0  0  0
  8  9  1  0  0  0  0
  9  5  1  6  0  0  0
  9 20  1  0  0  0  0
 10 11  1  0  0  0  0
 10 16  1  0  0  0  0
 11 12  1  1  0  0  0
 11 13  1  0  0  0  0
 14 13  1  6  0  0  0
 14 15  1  0  0  0  0
 14 20  1  0  0  0  0
 15 16  1  1  0  0  0
 15 18  1  0  0  0  0
 16 17  2  0  0  0  0
 18 19  1  0  0  0  0
 20 19  1  1  0  0  0
M  CHG  1  22  -1
M  END
>  <CHROM.1>
54.98728653,52.84749146,-172.92353694,-151.78039494,22.59913230,0.76009572
31.47286592,1.71073893,0.53054777,-0.58174699

>  <Name>
ligand

>  <RI>
416

>  <Rbt.Current_Directory>
/home/itssahil/PROJECTS/Mol_Feturizer/Test_systems_manuscript/rnas/3slm

>  <Rbt.Executable>
rbdock ($Id: //depot/dev/client3/rdock/2013.1/src/exe/rbdock.cxx#4 $)

>  <Rbt.Library>
libRbt.so (2013.1, Build901 2013/11/27)

>  <Rbt.Parameter_File>
/export/apps/rDock/src/rDock_2013.1_src/data/scripts/dock_solv.prm

>  <Rbt.Receptor>
prm/pocket_docking_6.prm

>  <SCORE>
-19.5732

>  <SCORE.INTER>
-13.8175

>  <SCORE.INTER.CONST>
1

>  <SCORE.INTER.POLAR>
0

>  <SCORE.INTER.ROT>
4

>  <SCORE.INTER.SOLV>
12.341

>  <SCORE.INTER.VDW>
-19.592

>  <SCORE.INTER.norm>
-0.600761

>  <SCORE.INTRA>
-5.75573

>  <SCORE.INTRA.DIHEDRAL>
-6.90844

>  <SCORE.INTRA.DIHEDRAL.0>
8.62657

>  <SCORE.INTRA.POLAR>
0

>  <SCORE.INTRA.POLAR.0>
0

>  <SCORE.INTRA.REPUL>
0

>  <SCORE.INTRA.REPUL.0>
0

>  <SCORE.INTRA.SOLV>
-0.664426

>  <SCORE.INTRA.SOLV.lig_0>
-66.3641

>  <SCORE.INTRA.VDW>
-1.9693

>  <SCORE.INTRA.VDW.0>
0.452231

>  <SCORE.INTRA.norm>
-0.250249

>  <SCORE.RESTR>
0

>  <SCORE.RESTR.CAVITY>
0

>  <SCORE.RESTR.norm>
0

>  <SCORE.SYSTEM>
0

>  <SCORE.SYSTEM.CONST>
0

>  <SCORE.SYSTEM.DIHEDRAL>
0

>  <SCORE.SYSTEM.SOLV>
0

>  <SCORE.SYSTEM.norm>
0

>  <SCORE.heavy>
23

>  <SCORE.norm>
-0.85101

>  <RMSD>
7.925

$$$$
ligand
 OpenBabel02271912143D
libRbt.so/2013.1/901 2013/11/27
 23 25  0  0  0  0  0  0  0  0999 V2000
   19.3266    5.3202   31.8116 P   0  0  1  0  0  0  0  0  0  0  0  0
   21.3785    3.6948   31.7563 C   0  0  0  0  0  0  0  0  0  0  0  0
   20.5801    4.6441   31.0633 O   0  0  0  0  0  0  0  0  0  0  0  0
   22.5695    3.3815   30.8788 C   0  0  1  0  0  0  0  0  0  0  0  0
   23.4572    2.4473   31.4921 O   0  0  0  0  0  0  0  0  0  0  0  0
   22.0816    2.7735   29.5747 C   0  0  1  0  0  0  0  0  0  0  0  0
   22.7573    3.4358   28.4917 O   0  0  0  0  0  0  0  0  0  0  0  0
   22.4444    1.2962   29.6602 C   0  0  0  0  0  0  0  0  0  0  0  0
   23.5356    1.2382   30.7258 C   0  0  2  0  0  0  0  0  0  0  0  0
   25.1085   -3.3281   32.5168 N   0  0  0  0  0  0  0  0  0  0  0  0
   25.6618   -2.5862   31.5436 C   0  0  2  0  0  0  0  0  0  0  0  0
   26.7779   -3.0618   30.9438 N   0  0  0  0  0  0  0  0  0  0  0  0
   25.1249   -1.3960   31.1815 N   0  0  0  0  0  0  0  0  0  0  0  0
   24.0162   -0.9470   31.8050 C   0  0  2  0  0  0  0  0  0  0  0  0
   23.4351   -1.6973   32.8043 C   0  0  1  0  0  0  0  0  0  0  0  0
   24.0060   -2.9041   33.1610 C   0  0  0  0  0  0  0  0  0  0  0  0
   23.4981   -3.5966   34.0693 O   0  0  0  0  0  0  0  0  0  0  0  0
   22.3501   -1.0329   33.2490 N   0  0  0  0  0  0  0  0  0  0  0  0
   22.2640    0.1096   32.5450 C   0  0  0  0  0  0  0  0  0  0  0  0
   23.2723    0.1447   31.6670 N   0  0  1  0  0  0  0  0  0  0  0  0
   18.3615    4.2094   32.1472 O   0  0  0  0  0  0  0  0  0  0  0  0
   19.9423    5.9963   33.0150 O   0  5  0  0  0  0  0  0  0  0  0  0
   18.8022    6.2793   30.7775 O   0  0  0  0  0  0  0  0  0  0  0  0
  1  3  1  6  0  0  0
  1 21  1  0  0  0  0
  1 22  1  0  0  0  0
  1 23  2  0  0  0  0
  2  3  1  0  0  0  0
  4  2  1  1  0  0  0
  4  5  1  0  0  0  0
  4  6  1  0  0  0  0
  6  7  1  6  0  0  0
  6  8  1  0  0  0  0
  8  9  1  0  0  0  0
  9  5  1  1  0  0  0
  9 20  1  0  0  0  0
 10 11  1  0  0  0  0
 10 16  1  0  0  0  0
 11 12  1  1  0  0  0
 11 13  1  0  0  0  0
 14 13  1  6  0  0  0
 14 15  1  0  0  0  0
 14 20  1  0  0  0  0
 15 16  1  1  0  0  0
 15 18  1  0  0  0  0
 16 17  2  0  0  0  0
 18 19  1  0  0  0  0
 20 19  1  1  0  0  0
M  CHG  1  22  -1
M  END
>  <CHROM.1>
-62.49284278,179.01379097,-172.51077689,-130.45010929,22.37397820,1.43400493
31.60079294,2.37028596,0.72301284,-0.70638679

>  <Name>
ligand

>  <RI>
416

>  <Rbt.Current_Directory>
/home/itssahil/PROJECTS/Mol_Feturizer/Test_systems_manuscript/rnas/3slm

>  <Rbt.Executable>
rbdock ($Id: //depot/dev/client3/rdock/2013.1/src/exe/rbdock.cxx#4 $)

>  <Rbt.Library>
libRbt.so (2013.1, Build901 2013/11/27)

>  <Rbt.Parameter_File>
/export/apps/rDock/src/rDock_2013.1_src/data/scripts/dock_solv.prm

>  <Rbt.Receptor>
prm/pocket_docking_5.prm

>  <SCORE>
-20.8648

>  <SCORE.INTER>
-15.3313

>  <SCORE.INTER.CONST>
1

>  <SCORE.INTER.POLAR>
0

>  <SCORE.INTER.ROT>
4

>  <SCORE.INTER.SOLV>
16.4021

>  <SCORE.INTER.VDW>
-21.9549

>  <SCORE.INTER.norm>
-0.66658

>  <SCORE.INTRA>
-5.5335

>  <SCORE.INTRA.DIHEDRAL>
-7.10937

>  <SCORE.INTRA.DIHEDRAL.0>
8.62657

>  <SCORE.INTRA.POLAR>
0

>  <SCORE.INTRA.POLAR.0>
0

>  <SCORE.INTRA.REPUL>
0

>  <SCORE.INTRA.REPUL.0>
0

>  <SCORE.INTRA.SOLV>
-0.497373

>  <SCORE.INTRA.SOLV.lig_0>
-66.3641

>  <SCORE.INTRA.VDW>
-1.73013

>  <SCORE.INTRA.VDW.0>
0.452231

>  <SCORE.INTRA.norm>
-0.240587

>  <SCORE.RESTR>
0

>  <SCORE.RESTR.CAVITY>
0

>  <SCORE.RESTR.norm>
0

>  <SCORE.SYSTEM>
0

>  <SCORE.SYSTEM.CONST>
0

>  <SCORE.SYSTEM.DIHEDRAL>
0

>  <SCORE.SYSTEM.SOLV>
0

>  <SCORE.SYSTEM.norm>
0

>  <SCORE.heavy>
23

>  <SCORE.norm>
-0.907167

>  <RMSD>
7.926

$$$$
ligand
 OpenBabel02271912143D
libRbt.so/2013.1/901 2013/11/27
 23 25  0  0  0  0  0  0  0  0999 V2000
   19.3976    5.3591   31.8228 P   0  0  1  0  0  0  0  0  0  0  0  0
   21.4195    3.6981   31.7331 C   0  0  0  0  0  0  0  0  0  0  0  0
   20.6291    4.6646   31.0551 O   0  0  0  0  0  0  0  0  0  0  0  0
   22.5930    3.3679   30.8385 C   0  0  1  0  0  0  0  0  0  0  0  0
   23.4846    2.4333   31.4455 O   0  0  0  0  0  0  0  0  0  0  0  0
   22.0786    2.7509   29.5489 C   0  0  1  0  0  0  0  0  0  0  0  0
   22.7403    3.3979   28.4481 O   0  0  0  0  0  0  0  0  0  0  0  0
   22.4324    1.2720   29.6425 C   0  0  0  0  0  0  0  0  0  0  0  0
   23.5413    1.2163   30.6899 C   0  0  2  0  0  0  0  0  0  0  0  0
   25.1225   -3.3356   32.5099 N   0  0  0  0  0  0  0  0  0  0  0  0
   25.6658   -2.6060   31.5218 C   0  0  2  0  0  0  0  0  0  0  0  0
   26.7727   -3.0916   30.9132 N   0  0  0  0  0  0  0  0  0  0  0  0
   25.1281   -1.4180   31.1538 N   0  0  0  0  0  0  0  0  0  0  0  0
   24.0287   -0.9588   31.7864 C   0  0  2  0  0  0  0  0  0  0  0  0
   23.4580   -1.6964   32.8009 C   0  0  1  0  0  0  0  0  0  0  0  0
   24.0296   -2.9012   33.1633 C   0  0  0  0  0  0  0  0  0  0  0  0
   23.5311   -3.5822   34.0853 O   0  0  0  0  0  0  0  0  0  0  0  0
   22.3808   -1.0237   33.2521 N   0  0  0  0  0  0  0  0  0  0  0  0
   22.2893    0.1114   32.5370 C   0  0  0  0  0  0  0  0  0  0  0  0
   23.2865    0.1338   31.6460 N   0  0  1  0  0  0  0  0  0  0  0  0
   19.9590    5.9990   33.0692 O   0  0  0  0  0  0  0  0  0  0  0  0
   18.8451    6.3389   30.8134 O   0  5  0  0  0  0  0  0  0  0  0  0
   18.4849    4.1961   32.1039 O   0  0  0  0  0  0  0  0  0  0  0  0
  1  3  1  6  0  0  0
  1 21  1  0  0  0  0
  1 22  1  0  0  0  0
  1 23  2  0  0  0  0
  2  3  1  0  0  0  0
  4  2  1  1  0  0  0
  4  5  1  0  0  0  0
  4  6  1  0  0  0  0
  6  7  1  6  0  0  0
  6  8  1  0  0  0  0
  8  9  1  0  0  0  0
  9  5  1  1  0  0  0
  9 20  1  0  0  0  0
 10 11  1  0  0  0  0
 10 16  1  0  0  0  0
 11 12  1  1  0  0  0
 11 13  1  0  0  0  0
 14 13  1  6  0  0  0
 14 15  1  0  0  0  0
 14 20  1  0  0  0  0
 15 16  1  1  0  0  0
 15 18  1  0  0  0  0
 16 17  2  0  0  0  0
 18 19  1  0  0  0  0
 20 19  1  1  0  0  0
M  CHG  1  22  -1
M  END
>  <CHROM.1>
56.76834001,177.97038517,-172.53085047,-130.10176956,22.40105158,1.43253232
31.58937568,2.38138478,0.74448099,-0.72566282

>  <Name>
ligand

>  <RI>
416

>  <Rbt.Current_Directory>
/home/itssahil/PROJECTS/Mol_Feturizer/Test_systems_manuscript/rnas/3slm

>  <Rbt.Executable>
rbdock ($Id: //depot/dev/client3/rdock/2013.1/src/exe/rbdock.cxx#4 $)

>  <Rbt.Library>
libRbt.so (2013.1, Build901 2013/11/27)

>  <Rbt.Parameter_File>
/export/apps/rDock/src/rDock_2013.1_src/data/scripts/dock_solv.prm

>  <Rbt.Receptor>
prm/pocket_docking_5.prm

>  <SCORE>
-19.3616

>  <SCORE.INTER>
-13.8444

>  <SCORE.INTER.CONST>
1

>  <SCORE.INTER.POLAR>
0

>  <SCORE.INTER.ROT>
4

>  <SCORE.INTER.SOLV>
19.0698

>  <SCORE.INTER.VDW>
-21.8529

>  <SCORE.INTER.norm>
-0.601932

>  <SCORE.INTRA>
-5.52395

>  <SCORE.INTRA.DIHEDRAL>
-7.09487

>  <SCORE.INTRA.DIHEDRAL.0>
8.62657

>  <SCORE.INTRA.POLAR>
0

>  <SCORE.INTRA.POLAR.0>
0

>  <SCORE.INTRA.REPUL>
0

>  <SCORE.INTRA.REPUL.0>
0

>  <SCORE.INTRA.SOLV>
-0.551749

>  <SCORE.INTRA.SOLV.lig_0>
-66.3641

>  <SCORE.INTRA.VDW>
-1.70064

>  <SCORE.INTRA.VDW.0>
0.452231

>  <SCORE.INTRA.norm>
-0.240172

>  <SCORE.RESTR>
0.00676953

>  <SCORE.RESTR.CAVITY>
0.00676953

>  <SCORE.RESTR.norm>
0.000294327

>  <SCORE.SYSTEM>
0

>  <SCORE.SYSTEM.CONST>
0

>  <SCORE.SYSTEM.DIHEDRAL>
0

>  <SCORE.SYSTEM.SOLV>
0

>  <SCORE.SYSTEM.norm>
0

>  <SCORE.heavy>
23

>  <SCORE.norm>
-0.841809

>  <RMSD>
7.934

$$$$
ligand
 OpenBabel02271912143D
libRbt.so/2013.1/901 2013/11/27
 23 25  0  0  0  0  0  0  0  0999 V2000
   24.2544    0.9634   28.0686 P   0  0  1  0  0  0  0  0  0  0  0  0
   22.0952    1.8587   29.2482 C   0  0  0  0  0  0  0  0  0  0  0  0
   23.4429    1.4280   29.3778 O   0  0  0  0  0  0  0  0  0  0  0  0
   21.5581    2.0844   30.6436 C   0  0  1  0  0  0  0  0  0  0  0  0
   21.5254    0.8795   31.4078 O   0  0  0  0  0  0  0  0  0  0  0  0
   22.4559    3.0721   31.3696 C   0  0  1  0  0  0  0  0  0  0  0  0
   21.6197    4.0596   31.9971 O   0  0  0  0  0  0  0  0  0  0  0  0
   23.2262    2.2409   32.3879 C   0  0  0  0  0  0  0  0  0  0  0  0
   22.3918    0.9727   32.5462 C   0  0  2  0  0  0  0  0  0  0  0  0
   23.1239   -3.8438   34.2189 N   0  0  0  0  0  0  0  0  0  0  0  0
   22.1312   -2.9983   34.5408 C   0  0  2  0  0  0  0  0  0  0  0  0
   21.1825   -3.4362   35.4009 N   0  0  0  0  0  0  0  0  0  0  0  0
   22.0770   -1.7514   34.0134 N   0  0  0  0  0  0  0  0  0  0  0  0
   23.0345   -1.3489   33.1527 C   0  0  2  0  0  0  0  0  0  0  0  0
   24.0610   -2.2037   32.8138 C   0  0  1  0  0  0  0  0  0  0  0  0
   24.0899   -3.4732   33.3589 C   0  0  0  0  0  0  0  0  0  0  0  0
   25.0087   -4.2659   33.0593 O   0  0  0  0  0  0  0  0  0  0  0  0
   24.8756   -1.5593   31.9550 N   0  0  0  0  0  0  0  0  0  0  0  0
   24.3610   -0.3324   31.7595 C   0  0  0  0  0  0  0  0  0  0  0  0
   23.2525   -0.2138   32.4983 N   0  0  1  0  0  0  0  0  0  0  0  0
   25.7233    1.0750   28.3973 O   0  0  0  0  0  0  0  0  0  0  0  0
   23.7753   -0.4493   27.8255 O   0  5  0  0  0  0  0  0  0  0  0  0
   23.7954    1.9487   27.0280 O   0  0  0  0  0  0  0  0  0  0  0  0
  1  3  1  1  0  0  0
  1 21  1  0  0  0  0
  1 22  1  0  0  0  0
  1 23  2  0  0  0  0
  2  3  1  0  0  0  0
  4  2  1  6  0  0  0
  4  5  1  0  0  0  0
  4  6  1  0  0  0  0
  6  7  1  1  0  0  0
  6  8  1  0  0  0  0
  8  9  1  0  0  0  0
  9  5  1  6  0  0  0
  9 20  1  0  0  0  0
 10 11  1  0  0  0  0
 10 16  1  0  0  0  0
 11 12  1  6  0  0  0
 11 13  1  0  0  0  0
 14 13  1  1  0  0  0
 14 15  1  0  0  0  0
 14 20  1  0  0  0  0
 15 16  1  6  0  0  0
 15 18  1  0  0  0  0
 16 17  2  0  0  0  0
 18 19  1  0  0  0  0
 20 19  1  6  0  0  0
M  CHG  1  22  -1
M  END
>  <CHROM.1>
158.89263179,-63.46349431,174.02285172,-95.61651347,23.24436419,-0.09930812
31.31987223,-1.47086626,-0.92440326,2.40427905

>  <Name>
ligand

>  <RI>
0

>  <Rbt.Current_Directory>
/home/itssahil/PROJECTS/Mol_Feturizer/Test_systems_manuscript/rnas/3slm

>  <Rbt.Executable>
rbdock ($Id: //depot/dev/client3/rdock/2013.1/src/exe/rbdock.cxx#4 $)

>  <Rbt.Library>
libRbt.so (2013.1, Build901 2013/11/27)

>  <Rbt.Parameter_File>
/export/apps/rDock/src/rDock_2013.1_src/data/scripts/dock_solv.prm

>  <Rbt.Receptor>
prm/pocket_docking_7.prm

>  <SCORE>
-17.5643

>  <SCORE.INTER>
-12.8777

>  <SCORE.INTER.CONST>
1

>  <SCORE.INTER.POLAR>
0

>  <SCORE.INTER.ROT>
4

>  <SCORE.INTER.SOLV>
17.3562

>  <SCORE.INTER.VDW>
-20.6372

>  <SCORE.INTER.norm>
-0.559902

>  <SCORE.INTRA>
-4.68655

>  <SCORE.INTRA.DIHEDRAL>
-6.6314

>  <SCORE.INTRA.DIHEDRAL.0>
8.62657

>  <SCORE.INTRA.POLAR>
0

>  <SCORE.INTRA.POLAR.0>
0

>  <SCORE.INTRA.REPUL>
0

>  <SCORE.INTRA.REPUL.0>
0

>  <SCORE.INTRA.SOLV>
0.402706

>  <SCORE.INTRA.SOLV.lig_0>
-66.3641

>  <SCORE.INTRA.VDW>
-1.5722

>  <SCORE.INTRA.VDW.0>
0.452231

>  <SCORE.INTRA.norm>
-0.203763

>  <SCORE.RESTR>
0

>  <SCORE.RESTR.CAVITY>
0

>  <SCORE.RESTR.norm>
0

>  <SCORE.SYSTEM>
0

>  <SCORE.SYSTEM.CONST>
0

>  <SCORE.SYSTEM.DIHEDRAL>
0

>  <SCORE.SYSTEM.SOLV>
0

>  <SCORE.SYSTEM.norm>
0

>  <SCORE.heavy>
23

>  <SCORE.norm>
-0.763665

>  <RMSD>
7.934

$$$$
ligand
 OpenBabel02271912143D
libRbt.so/2013.1/901 2013/11/27
 23 25  0  0  0  0  0  0  0  0999 V2000
   21.8166    4.5150   28.6490 P   0  0  1  0  0  0  0  0  0  0  0  0
   23.0972    2.2315   28.6160 C   0  0  0  0  0  0  0  0  0  0  0  0
   23.0992    3.6037   28.9847 O   0  0  0  0  0  0  0  0  0  0  0  0
   24.3555    1.6114   29.1806 C   0  0  1  0  0  0  0  0  0  0  0  0
   24.2637    1.3978   30.5887 O   0  0  0  0  0  0  0  0  0  0  0  0
   24.5870    0.2633   28.5191 C   0  0  1  0  0  0  0  0  0  0  0  0
   25.9651    0.1945   28.1135 O   0  0  0  0  0  0  0  0  0  0  0  0
   24.2502   -0.7705   29.5863 C   0  0  0  0  0  0  0  0  0  0  0  0
   24.3450    0.0008   30.9000 C   0  0  2  0  0  0  0  0  0  0  0  0
   22.3481   -3.1320   34.4680 N   0  0  0  0  0  0  0  0  0  0  0  0
   23.5471   -3.2184   33.8690 C   0  0  2  0  0  0  0  0  0  0  0  0
   24.3618   -4.2368   34.2306 N   0  0  0  0  0  0  0  0  0  0  0  0
   23.9312   -2.3097   32.9404 N   0  0  0  0  0  0  0  0  0  0  0  0
   23.0981   -1.3020   32.6084 C   0  0  2  0  0  0  0  0  0  0  0  0
   21.8636   -1.2004   33.2124 C   0  0  1  0  0  0  0  0  0  0  0  0
   21.4979   -2.1351   34.1623 C   0  0  0  0  0  0  0  0  0  0  0  0
   20.3852   -2.0569   34.7264 O   0  0  0  0  0  0  0  0  0  0  0  0
   21.2352   -0.1233   32.7011 N   0  0  0  0  0  0  0  0  0  0  0  0
   22.0659    0.4360   31.8036 C   0  0  0  0  0  0  0  0  0  0  0  0
   23.1859   -0.2930   31.7491 N   0  0  1  0  0  0  0  0  0  0  0  0
   22.2736    5.9528   28.6921 O   0  0  0  0  0  0  0  0  0  0  0  0
   21.3801    4.0400   27.2822 O   0  5  0  0  0  0  0  0  0  0  0  0
   20.8581    4.1562   29.7522 O   0  0  0  0  0  0  0  0  0  0  0  0
  1  3  1  1  0  0  0
  1 21  1  0  0  0  0
  1 22  1  0  0  0  0
  1 23  2  0  0  0  0
  2  3  1  0  0  0  0
  4  2  1  6  0  0  0
  4  5  1  0  0  0  0
  4  6  1  0  0  0  0
  6  7  1  1  0  0  0
  6  8  1  0  0  0  0
  8  9  1  0  0  0  0
  9  5  1  6  0  0  0
  9 20  1  0  0  0  0
 10 11  1  0  0  0  0
 10 16  1  0  0  0  0
 11 12  1  1  0  0  0
 11 13  1  0  0  0  0
 14 13  1  6  0  0  0
 14 15  1  0  0  0  0
 14 20  1  0  0  0  0
 15 16  1  1  0  0  0
 15 18  1  0  0  0  0
 16 17  2  0  0  0  0
 18 19  1  0  0  0  0
 20 19  1  1  0  0  0
M  CHG  1  22  -1
M  END
>  <CHROM.1>
-160.32707023,75.36142499,-174.30621517,-156.22973044,22.88058331,0.67862367
30.87703698,1.61652656,0.60466175,-0.70180843

>  <Name>
ligand

>  <RI>
0

>  <Rbt.Current_Directory>
/home/itssahil/PROJECTS/Mol_Feturizer/Test_systems_manuscript/rnas/3slm

>  <Rbt.Executable>
rbdock ($Id: //depot/dev/client3/rdock/2013.1/src/exe/rbdock.cxx#4 $)

>  <Rbt.Library>
libRbt.so (2013.1, Build901 2013/11/27)

>  <Rbt.Parameter_File>
/export/apps/rDock/src/rDock_2013.1_src/data/scripts/dock_solv.prm

>  <Rbt.Receptor>
prm/pocket_docking_8.prm

>  <SCORE>
-20.0156

>  <SCORE.INTER>
-15.4837

>  <SCORE.INTER.CONST>
1

>  <SCORE.INTER.POLAR>
0

>  <SCORE.INTER.ROT>
4

>  <SCORE.INTER.SOLV>
12.1458

>  <SCORE.INTER.VDW>
-20.6377

>  <SCORE.INTER.norm>
-0.673204

>  <SCORE.INTRA>
-4.5319

>  <SCORE.INTRA.DIHEDRAL>
-5.7899

>  <SCORE.INTRA.DIHEDRAL.0>
8.62657

>  <SCORE.INTRA.POLAR>
0

>  <SCORE.INTRA.POLAR.0>
0

>  <SCORE.INTRA.REPUL>
0

>  <SCORE.INTRA.REPUL.0>
0

>  <SCORE.INTRA.SOLV>
-0.0780878

>  <SCORE.INTRA.SOLV.lig_0>
-66.3641

>  <SCORE.INTRA.VDW>
-1.59791

>  <SCORE.INTRA.VDW.0>
0.452231

>  <SCORE.INTRA.norm>
-0.197039

>  <SCORE.RESTR>
0

>  <SCORE.RESTR.CAVITY>
0

>  <SCORE.RESTR.norm>
0

>  <SCORE.SYSTEM>
0

>  <SCORE.SYSTEM.CONST>
0

>  <SCORE.SYSTEM.DIHEDRAL>
0

>  <SCORE.SYSTEM.SOLV>
0

>  <SCORE.SYSTEM.norm>
0

>  <SCORE.heavy>
23

>  <SCORE.norm>
-0.870244

>  <RMSD>
7.952

$$$$
ligand
 OpenBabel02271912143D
libRbt.so/2013.1/901 2013/11/27
 23 25  0  0  0  0  0  0  0  0999 V2000
   20.0278    6.1614   32.0092 P   0  0  1  0  0  0  0  0  0  0  0  0
   21.3759    3.9815   31.4743 C   0  0  0  0  0  0  0  0  0  0  0  0
   21.2907    5.3960   31.3709 O   0  0  0  0  0  0  0  0  0  0  0  0
   22.6326    3.5518   30.7515 C   0  0  1  0  0  0  0  0  0  0  0  0
   23.3929    2.6113   31.5093 O   0  0  0  0  0  0  0  0  0  0  0  0
   22.2508    2.8912   29.4375 C   0  0  1  0  0  0  0  0  0  0  0  0
   23.0761    3.4485   28.4000 O   0  0  0  0  0  0  0  0  0  0  0  0
   22.5137    1.4048   29.6443 C   0  0  0  0  0  0  0  0  0  0  0  0
   23.4800    1.3547   30.8247 C   0  0  2  0  0  0  0  0  0  0  0  0
   24.5551   -3.1912   32.9953 N   0  0  0  0  0  0  0  0  0  0  0  0
   25.2483   -2.5442   32.0442 C   0  0  2  0  0  0  0  0  0  0  0  0
   26.3803   -3.1246   31.5825 N   0  0  0  0  0  0  0  0  0  0  0  0
   24.8321   -1.3451   31.5700 N   0  0  0  0  0  0  0  0  0  0  0  0
   23.7032   -0.7904   32.0574 C   0  0  2  0  0  0  0  0  0  0  0  0
   22.9794   -1.4424   33.0322 C   0  0  1  0  0  0  0  0  0  0  0  0
   23.4288   -2.6606   33.5052 C   0  0  0  0  0  0  0  0  0  0  0  0
   22.7903   -3.2650   34.3937 O   0  0  0  0  0  0  0  0  0  0  0  0
   21.9061   -0.6850   33.3331 N   0  0  0  0  0  0  0  0  0  0  0  0
   21.9666    0.4178   32.5660 C   0  0  0  0  0  0  0  0  0  0  0  0
   23.0534    0.3369   31.7907 N   0  0  1  0  0  0  0  0  0  0  0  0
   20.5261    7.4965   32.5065 O   0  0  0  0  0  0  0  0  0  0  0  0
   19.0407    6.2498   30.8681 O   0  5  0  0  0  0  0  0  0  0  0  0
   19.6003    5.2313   33.1122 O   0  0  0  0  0  0  0  0  0  0  0  0
  1  3  1  6  0  0  0
  1 21  1  0  0  0  0
  1 22  1  0  0  0  0
  1 23  2  0  0  0  0
  2  3  1  0  0  0  0
  4  2  1  1  0  0  0
  4  5  1  0  0  0  0
  4  6  1  0  0  0  0
  6  7  1  6  0  0  0
  6  8  1  0  0  0  0
  8  9  1  0  0  0  0
  9  5  1  1  0  0  0
  9 20  1  0  0  0  0
 10 11  1  0  0  0  0
 10 16  1  0  0  0  0
 11 12  1  1  0  0  0
 11 13  1  0  0  0  0
 14 13  1  6  0  0  0
 14 15  1  0  0  0  0
 14 20  1  0  0  0  0
 15 16  1  1  0  0  0
 15 18  1  0  0  0  0
 16 17  2  0  0  0  0
 18 19  1  0  0  0  0
 20 19  1  1  0  0  0
M  CHG  1  22  -1
M  END
>  <CHROM.1>
146.34091138,134.01184314,178.21342900,-131.36650525,22.40525322,1.78175762
31.77019599,2.25548070,0.84936971,-0.67681670

>  <Name>
ligand

>  <RI>
416

>  <Rbt.Current_Directory>
/home/itssahil/PROJECTS/Mol_Feturizer/Test_systems_manuscript/rnas/3slm

>  <Rbt.Executable>
rbdock ($Id: //depot/dev/client3/rdock/2013.1/src/exe/rbdock.cxx#4 $)

>  <Rbt.Library>
libRbt.so (2013.1, Build901 2013/11/27)

>  <Rbt.Parameter_File>
/export/apps/rDock/src/rDock_2013.1_src/data/scripts/dock_solv.prm

>  <Rbt.Receptor>
prm/pocket_docking_5.prm

>  <SCORE>
-16.6254

>  <SCORE.INTER>
-14.6664

>  <SCORE.INTER.CONST>
1

>  <SCORE.INTER.POLAR>
0

>  <SCORE.INTER.ROT>
4

>  <SCORE.INTER.SOLV>
16.7458

>  <SCORE.INTER.VDW>
-21.6262

>  <SCORE.INTER.norm>
-0.63767

>  <SCORE.INTRA>
-1.97117

>  <SCORE.INTRA.DIHEDRAL>
-1.38224

>  <SCORE.INTRA.DIHEDRAL.0>
8.62657

>  <SCORE.INTRA.POLAR>
0

>  <SCORE.INTRA.POLAR.0>
0

>  <SCORE.INTRA.REPUL>
0

>  <SCORE.INTRA.REPUL.0>
0

>  <SCORE.INTRA.SOLV>
-0.128559

>  <SCORE.INTRA.SOLV.lig_0>
-66.3641

>  <SCORE.INTRA.VDW>
-1.21577

>  <SCORE.INTRA.VDW.0>
0.452231

>  <SCORE.INTRA.norm>
-0.0857031

>  <SCORE.RESTR>
0.0121935

>  <SCORE.RESTR.CAVITY>
0.0121935

>  <SCORE.RESTR.norm>
0.000530153

>  <SCORE.SYSTEM>
0

>  <SCORE.SYSTEM.CONST>
0

>  <SCORE.SYSTEM.DIHEDRAL>
0

>  <SCORE.SYSTEM.SOLV>
0

>  <SCORE.SYSTEM.norm>
0

>  <SCORE.heavy>
23

>  <SCORE.norm>
-0.722843

>  <RMSD>
7.977

$$$$
ligand
 OpenBabel02271912143D
libRbt.so/2013.1/901 2013/11/27
 23 25  0  0  0  0  0  0  0  0999 V2000
   20.2172    2.3507   27.9590 P   0  0  1  0  0  0  0  0  0  0  0  0
   22.4120    1.0010   28.4241 C   0  0  0  0  0  0  0  0  0  0  0  0
   21.6535    2.1785   28.6629 O   0  0  0  0  0  0  0  0  0  0  0  0
   23.6777    1.1062   29.2446 C   0  0  1  0  0  0  0  0  0  0  0  0
   23.4044    1.2277   30.6401 O   0  0  0  0  0  0  0  0  0  0  0  0
   24.5099   -0.1485   29.0405 C   0  0  1  0  0  0  0  0  0  0  0  0
   25.8668    0.2515   28.7820 O   0  0  0  0  0  0  0  0  0  0  0  0
   24.3800   -0.9322   30.3405 C   0  0  0  0  0  0  0  0  0  0  0  0
   23.9326    0.1084   31.3636 C   0  0  2  0  0  0  0  0  0  0  0  0
   22.3077   -3.6804   34.4518 N   0  0  0  0  0  0  0  0  0  0  0  0
   23.4964   -3.5666   33.8372 C   0  0  2  0  0  0  0  0  0  0  0  0
   24.4086   -4.5457   34.0399 N   0  0  0  0  0  0  0  0  0  0  0  0
   23.7759   -2.5013   33.0481 N   0  0  0  0  0  0  0  0  0  0  0  0
   22.8471   -1.5387   32.8733 C   0  0  2  0  0  0  0  0  0  0  0  0
   21.6216   -1.6415   33.4953 C   0  0  1  0  0  0  0  0  0  0  0  0
   21.3635   -2.7338   34.3016 C   0  0  0  0  0  0  0  0  0  0  0  0
   20.2607   -2.8426   34.8798 O   0  0  0  0  0  0  0  0  0  0  0  0
   20.8866   -0.5655   33.1517 N   0  0  0  0  0  0  0  0  0  0  0  0
   21.6431    0.1931   32.3389 C   0  0  0  0  0  0  0  0  0  0  0  0
   22.8237   -0.4123   32.1699 N   0  0  1  0  0  0  0  0  0  0  0  0
   19.4229    1.1047   28.2665 O   0  0  0  0  0  0  0  0  0  0  0  0
   19.6593    3.6135   28.5741 O   0  5  0  0  0  0  0  0  0  0  0  0
   20.5763    2.4901   26.5043 O   0  0  0  0  0  0  0  0  0  0  0  0
  1  3  1  1  0  0  0
  1 21  1  0  0  0  0
  1 22  1  0  0  0  0
  1 23  2  0  0  0  0
  2  3  1  0  0  0  0
  4  2  1  6  0  0  0
  4  5  1  0  0  0  0
  4  6  1  0  0  0  0
  6  7  1  1  0  0  0
  6  8  1  0  0  0  0
  8  9  1  0  0  0  0
  9  5  1  6  0  0  0
  9 20  1  0  0  0  0
 10 11  1  0  0  0  0
 10 16  1  0  0  0  0
 11 12  1  1  0  0  0
 11 13  1  0  0  0  0
 14 13  1  6  0  0  0
 14 15  1  0  0  0  0
 14 20  1  0  0  0  0
 15 16  1  1  0  0  0
 15 18  1  0  0  0  0
 16 17  2  0  0  0  0
 18 19  1  0  0  0  0
 20 19  1  1  0  0  0
M  CHG  1  22  -1
M  END
>  <CHROM.1>
51.98707523,59.47722010,-178.26190864,172.00378684,22.24592762,-0.17483177
30.86529437,1.78359662,0.25301192,-0.91199925

>  <Name>
ligand

>  <RI>
416

>  <Rbt.Current_Directory>
/home/itssahil/PROJECTS/Mol_Feturizer/Test_systems_manuscript/rnas/3slm

>  <Rbt.Executable>
rbdock ($Id: //depot/dev/client3/rdock/2013.1/src/exe/rbdock.cxx#4 $)

>  <Rbt.Library>
libRbt.so (2013.1, Build901 2013/11/27)

>  <Rbt.Parameter_File>
/export/apps/rDock/src/rDock_2013.1_src/data/scripts/dock_solv.prm

>  <Rbt.Receptor>
prm/pocket_docking_6.prm

>  <SCORE>
-19.9167

>  <SCORE.INTER>
-14.4478

>  <SCORE.INTER.CONST>
1

>  <SCORE.INTER.POLAR>
0

>  <SCORE.INTER.ROT>
4

>  <SCORE.INTER.SOLV>
13.8772

>  <SCORE.INTER.VDW>
-20.5243

>  <SCORE.INTER.norm>
-0.628166

>  <SCORE.INTRA>
-5.47288

>  <SCORE.INTRA.DIHEDRAL>
-7.3449

>  <SCORE.INTRA.DIHEDRAL.0>
8.62657

>  <SCORE.INTRA.POLAR>
0

>  <SCORE.INTRA.POLAR.0>
0

>  <SCORE.INTRA.REPUL>
0

>  <SCORE.INTRA.REPUL.0>
0

>  <SCORE.INTRA.SOLV>
-0.720298

>  <SCORE.INTRA.SOLV.lig_0>
-66.3641

>  <SCORE.INTRA.VDW>
-1.44029

>  <SCORE.INTRA.VDW.0>
0.452231

>  <SCORE.INTRA.norm>
-0.237952

>  <SCORE.RESTR>
0.00405736

>  <SCORE.RESTR.CAVITY>
0.00405736

>  <SCORE.RESTR.norm>
0.000176407

>  <SCORE.SYSTEM>
0

>  <SCORE.SYSTEM.CONST>
0

>  <SCORE.SYSTEM.DIHEDRAL>
0

>  <SCORE.SYSTEM.SOLV>
0

>  <SCORE.SYSTEM.norm>
0

>  <SCORE.heavy>
23

>  <SCORE.norm>
-0.865941

>  <RMSD>
7.986

$$$$
ligand
 OpenBabel02271912143D
libRbt.so/2013.1/901 2013/11/27
 23 25  0  0  0  0  0  0  0  0999 V2000
   20.2130    2.3146   27.8894 P   0  0  1  0  0  0  0  0  0  0  0  0
   22.3829    0.9270   28.3596 C   0  0  0  0  0  0  0  0  0  0  0  0
   21.6331    2.1063   28.6161 O   0  0  0  0  0  0  0  0  0  0  0  0
   23.6626    1.0238   29.1594 C   0  0  1  0  0  0  0  0  0  0  0  0
   23.4125    1.1793   30.5559 O   0  0  0  0  0  0  0  0  0  0  0  0
   24.4669   -0.2511   28.9693 C   0  0  1  0  0  0  0  0  0  0  0  0
   25.8274    0.1165   28.6830 O   0  0  0  0  0  0  0  0  0  0  0  0
   24.3410   -1.0053   30.2871 C   0  0  0  0  0  0  0  0  0  0  0  0
   23.9294    0.0647   31.2947 C   0  0  2  0  0  0  0  0  0  0  0  0
   22.2790   -3.6239   34.4888 N   0  0  0  0  0  0  0  0  0  0  0  0
   23.4608   -3.5460   33.8556 C   0  0  2  0  0  0  0  0  0  0  0  0
   24.3575   -4.5372   34.0676 N   0  0  0  0  0  0  0  0  0  0  0  0
   23.7485   -2.5037   33.0391 N   0  0  0  0  0  0  0  0  0  0  0  0
   22.8352   -1.5281   32.8557 C   0  0  2  0  0  0  0  0  0  0  0  0
   21.6170   -1.5942   33.4966 C   0  0  1  0  0  0  0  0  0  0  0  0
   21.3503   -2.6634   34.3305 C   0  0  0  0  0  0  0  0  0  0  0  0
   20.2540   -2.7387   34.9261 O   0  0  0  0  0  0  0  0  0  0  0  0
   20.8971   -0.5125   33.1391 N   0  0  0  0  0  0  0  0  0  0  0  0
   21.6559    0.2136   32.2993 C   0  0  0  0  0  0  0  0  0  0  0  0
   22.8226   -0.4172   32.1276 N   0  0  1  0  0  0  0  0  0  0  0  0
   19.3754    1.0982   28.2008 O   0  0  0  0  0  0  0  0  0  0  0  0
   19.6867    3.6021   28.4807 O   0  5  0  0  0  0  0  0  0  0  0  0
   20.5967    2.4240   26.4385 O   0  0  0  0  0  0  0  0  0  0  0  0
  1  3  1  1  0  0  0
  1 21  1  0  0  0  0
  1 22  1  0  0  0  0
  1 23  2  0  0  0  0
  2  3  1  0  0  0  0
  4  2  1  6  0  0  0
  4  5  1  0  0  0  0
  4  6  1  0  0  0  0
  6  7  1  1  0  0  0
  6  8  1  0  0  0  0
  8  9  1  0  0  0  0
  9  5  1  6  0  0  0
  9 20  1  0  0  0  0
 10 11  1  0  0  0  0
 10 16  1  0  0  0  0
 11 12  1  1  0  0  0
 11 13  1  0  0  0  0
 14 13  1  6  0  0  0
 14 15  1  0  0  0  0
 14 20  1  0  0  0  0
 15 16  1  1  0  0  0
 15 18  1  0  0  0  0
 16 17  2  0  0  0  0
 18 19  1  0  0  0  0
 20 19  1  1  0  0  0
M  CHG  1  22  -1
M  END
>  <CHROM.1>
54.57563894,57.77931949,179.23279499,172.12570640,22.23178350,-0.19350036
30.82597505,1.78307775,0.27745918,-0.93321240

>  <Name>
ligand

>  <RI>
416

>  <Rbt.Current_Directory>
/home/itssahil/PROJECTS/Mol_Feturizer/Test_systems_manuscript/rnas/3slm

>  <Rbt.Executable>
rbdock ($Id: //depot/dev/client3/rdock/2013.1/src/exe/rbdock.cxx#4 $)

>  <Rbt.Library>
libRbt.so (2013.1, Build901 2013/11/27)

>  <Rbt.Parameter_File>
/export/apps/rDock/src/rDock_2013.1_src/data/scripts/dock_solv.prm

>  <Rbt.Receptor>
prm/pocket_docking_6.prm

>  <SCORE>
-19.8762

>  <SCORE.INTER>
-14.3981

>  <SCORE.INTER.CONST>
1

>  <SCORE.INTER.POLAR>
0

>  <SCORE.INTER.ROT>
4

>  <SCORE.INTER.SOLV>
13.7669

>  <SCORE.INTER.VDW>
-20.4543

>  <SCORE.INTER.norm>
-0.626003

>  <SCORE.INTRA>
-5.47995

>  <SCORE.INTRA.DIHEDRAL>
-7.39177

>  <SCORE.INTRA.DIHEDRAL.0>
8.62657

>  <SCORE.INTRA.POLAR>
0

>  <SCORE.INTRA.POLAR.0>
0

>  <SCORE.INTRA.REPUL>
0

>  <SCORE.INTRA.REPUL.0>
0

>  <SCORE.INTRA.SOLV>
-0.693743

>  <SCORE.INTRA.SOLV.lig_0>
-66.3641

>  <SCORE.INTRA.VDW>
-1.43719

>  <SCORE.INTRA.VDW.0>
0.452231

>  <SCORE.INTRA.norm>
-0.238259

>  <SCORE.RESTR>
0.00183902

>  <SCORE.RESTR.CAVITY>
0.00183902

>  <SCORE.RESTR.norm>
7.99573e-05

>  <SCORE.SYSTEM>
0

>  <SCORE.SYSTEM.CONST>
0

>  <SCORE.SYSTEM.DIHEDRAL>
0

>  <SCORE.SYSTEM.SOLV>
0

>  <SCORE.SYSTEM.norm>
0

>  <SCORE.heavy>
23

>  <SCORE.norm>
-0.864182

>  <RMSD>
7.987

$$$$
ligand
 OpenBabel02271912143D
libRbt.so/2013.1/901 2013/11/27
 23 25  0  0  0  0  0  0  0  0999 V2000
   22.6970    2.4535   26.9769 P   0  0  1  0  0  0  0  0  0  0  0  0
   24.0142    0.3681   27.8553 C   0  0  0  0  0  0  0  0  0  0  0  0
   23.8175    1.7742   27.9104 O   0  0  0  0  0  0  0  0  0  0  0  0
   25.1061    0.0269   28.8441 C   0  0  1  0  0  0  0  0  0  0  0  0
   24.7763    0.4365   30.1708 O   0  0  0  0  0  0  0  0  0  0  0  0
   25.3124   -1.4784   28.8591 C   0  0  1  0  0  0  0  0  0  0  0  0
   26.7245   -1.7375   28.7754 O   0  0  0  0  0  0  0  0  0  0  0  0
   24.7190   -1.9516   30.1801 C   0  0  0  0  0  0  0  0  0  0  0  0
   24.6785   -0.6950   31.0456 C   0  0  2  0  0  0  0  0  0  0  0  0
   21.4513   -2.7466   34.4965 N   0  0  0  0  0  0  0  0  0  0  0  0
   22.6533   -3.2066   34.1125 C   0  0  2  0  0  0  0  0  0  0  0  0
   23.1091   -4.3423   34.6904 N   0  0  0  0  0  0  0  0  0  0  0  0
   23.3889   -2.5490   33.1839 N   0  0  0  0  0  0  0  0  0  0  0  0
   22.9087   -1.4152   32.6330 C   0  0  2  0  0  0  0  0  0  0  0  0
   21.6762   -0.9310   33.0147 C   0  0  1  0  0  0  0  0  0  0  0  0
   20.9484   -1.6155   33.9696 C   0  0  0  0  0  0  0  0  0  0  0  0
   19.8313   -1.1895   34.3342 O   0  0  0  0  0  0  0  0  0  0  0  0
   21.4342    0.1952   32.3152 N   0  0  0  0  0  0  0  0  0  0  0  0
   22.4981    0.4094   31.5210 C   0  0  0  0  0  0  0  0  0  0  0  0
   23.3789   -0.5781   31.7151 N   0  0  1  0  0  0  0  0  0  0  0  0
   23.0863    2.1736   25.5457 O   0  0  0  0  0  0  0  0  0  0  0  0
   21.4097    1.7930   27.4136 O   0  5  0  0  0  0  0  0  0  0  0  0
   22.7918    3.9079   27.3514 O   0  0  0  0  0  0  0  0  0  0  0  0
  1  3  1  1  0  0  0
  1 21  1  0  0  0  0
  1 22  1  0  0  0  0
  1 23  2  0  0  0  0
  2  3  1  0  0  0  0
  4  2  1  6  0  0  0
  4  5  1  0  0  0  0
  4  6  1  0  0  0  0
  6  7  1  1  0  0  0
  6  8  1  0  0  0  0
  8  9  1  0  0  0  0
  9  5  1  6  0  0  0
  9 20  1  0  0  0  0
 10 11  1  0  0  0  0
 10 16  1  0  0  0  0
 11 12  1  1  0  0  0
 11 13  1  0  0  0  0
 14 13  1  6  0  0  0
 14 15  1  0  0  0  0
 14 20  1  0  0  0  0
 15 16  1  1  0  0  0
 15 18  1  0  0  0  0
 16 17  2  0  0  0  0
 18 19  1  0  0  0  0
 20 19  1  1  0  0  0
M  CHG  1  22  -1
M  END
>  <CHROM.1>
-61.30710015,58.33827959,-179.29853337,-178.45034711,23.14155840,-0.23862221
30.40992065,1.39458551,0.52958121,-0.91033851

>  <Name>
ligand

>  <RI>
0

>  <Rbt.Current_Directory>
/home/itssahil/PROJECTS/Mol_Feturizer/Test_systems_manuscript/rnas/3slm

>  <Rbt.Executable>
rbdock ($Id: //depot/dev/client3/rdock/2013.1/src/exe/rbdock.cxx#4 $)

>  <Rbt.Library>
libRbt.so (2013.1, Build901 2013/11/27)

>  <Rbt.Parameter_File>
/export/apps/rDock/src/rDock_2013.1_src/data/scripts/dock_solv.prm

>  <Rbt.Receptor>
prm/pocket_docking_8.prm

>  <SCORE>
-21.1255

>  <SCORE.INTER>
-15.4503

>  <SCORE.INTER.CONST>
1

>  <SCORE.INTER.POLAR>
0

>  <SCORE.INTER.ROT>
4

>  <SCORE.INTER.SOLV>
16.0912

>  <SCORE.INTER.VDW>
-21.9306

>  <SCORE.INTER.norm>
-0.671753

>  <SCORE.INTRA>
-5.67516

>  <SCORE.INTRA.DIHEDRAL>
-7.41022

>  <SCORE.INTRA.DIHEDRAL.0>
8.62657

>  <SCORE.INTRA.POLAR>
0

>  <SCORE.INTRA.POLAR.0>
0

>  <SCORE.INTRA.REPUL>
0

>  <SCORE.INTRA.REPUL.0>
0

>  <SCORE.INTRA.SOLV>
-0.662649

>  <SCORE.INTRA.SOLV.lig_0>
-66.3641

>  <SCORE.INTRA.VDW>
-1.63872

>  <SCORE.INTRA.VDW.0>
0.452231

>  <SCORE.INTRA.norm>
-0.246746

>  <SCORE.RESTR>
0

>  <SCORE.RESTR.CAVITY>
0

>  <SCORE.RESTR.norm>
0

>  <SCORE.SYSTEM>
0

>  <SCORE.SYSTEM.CONST>
0

>  <SCORE.SYSTEM.DIHEDRAL>
0

>  <SCORE.SYSTEM.SOLV>
0

>  <SCORE.SYSTEM.norm>
0

>  <SCORE.heavy>
23

>  <SCORE.norm>
-0.918499

>  <RMSD>
7.996

$$$$
ligand
 OpenBabel02271912143D
libRbt.so/2013.1/901 2013/11/27
 23 25  0  0  0  0  0  0  0  0999 V2000
   19.5205    5.7030   32.0300 P   0  0  1  0  0  0  0  0  0  0  0  0
   21.4537    3.9375   31.9934 C   0  0  0  0  0  0  0  0  0  0  0  0
   20.8629    5.0832   31.3959 O   0  0  0  0  0  0  0  0  0  0  0  0
   22.6820    3.5895   31.1832 C   0  0  1  0  0  0  0  0  0  0  0  0
   23.4718    2.5806   31.8118 O   0  0  0  0  0  0  0  0  0  0  0  0
   22.2506    3.0640   29.8244 C   0  0  1  0  0  0  0  0  0  0  0  0
   23.0347    3.7278   28.8182 O   0  0  0  0  0  0  0  0  0  0  0  0
   22.5226    1.5656   29.8688 C   0  0  0  0  0  0  0  0  0  0  0  0
   23.5337    1.4005   31.0002 C   0  0  2  0  0  0  0  0  0  0  0  0
   24.7773   -3.2737   32.7715 N   0  0  0  0  0  0  0  0  0  0  0  0
   25.4455   -2.5216   31.8818 C   0  0  2  0  0  0  0  0  0  0  0  0
   26.5979   -3.0177   31.3745 N   0  0  0  0  0  0  0  0  0  0  0  0
   24.9850   -1.3021   31.5123 N   0  0  0  0  0  0  0  0  0  0  0  0
   23.8368   -0.8337   32.0430 C   0  0  2  0  0  0  0  0  0  0  0  0
   23.1381   -1.5939   32.9557 C   0  0  1  0  0  0  0  0  0  0  0  0
   23.6325   -2.8312   33.3225 C   0  0  0  0  0  0  0  0  0  0  0  0
   23.0173   -3.5334   34.1537 O   0  0  0  0  0  0  0  0  0  0  0  0
   22.0377   -0.9055   33.3184 N   0  0  0  0  0  0  0  0  0  0  0  0
   22.0570    0.2611   32.6498 C   0  0  0  0  0  0  0  0  0  0  0  0
   23.1456    0.2878   31.8732 N   0  0  1  0  0  0  0  0  0  0  0  0
   19.0286    6.7618   31.0734 O   0  0  0  0  0  0  0  0  0  0  0  0
   18.6002    4.5123   32.1694 O   0  5  0  0  0  0  0  0  0  0  0  0
   20.0008    6.2573   33.3440 O   0  0  0  0  0  0  0  0  0  0  0  0
  1  3  1  6  0  0  0
  1 21  1  0  0  0  0
  1 22  1  0  0  0  0
  1 23  2  0  0  0  0
  2  3  1  0  0  0  0
  4  2  1  1  0  0  0
  4  5  1  0  0  0  0
  4  6  1  0  0  0  0
  6  7  1  6  0  0  0
  6  8  1  0  0  0  0
  8  9  1  0  0  0  0
  9  5  1  1  0  0  0
  9 20  1  0  0  0  0
 10 11  1  0  0  0  0
 10 16  1  0  0  0  0
 11 12  1  1  0  0  0
 11 13  1  0  0  0  0
 14 13  1  6  0  0  0
 14 15  1  0  0  0  0
 14 20  1  0  0  0  0
 15 16  1  1  0  0  0
 15 18  1  0  0  0  0
 16 17  2  0  0  0  0
 18 19  1  0  0  0  0
 20 19  1  1  0  0  0
M  CHG  1  22  -1
M  END
>  <CHROM.1>
-171.70297191,170.88959259,179.76788473,-128.26161585,22.34787400,1.64503051
31.83949515,2.25915212,0.70376639,-0.59356170

>  <Name>
ligand

>  <RI>
0

>  <Rbt.Current_Directory>
/home/itssahil/PROJECTS/Mol_Feturizer/Test_systems_manuscript/rnas/3slm

>  <Rbt.Executable>
rbdock ($Id: //depot/dev/client3/rdock/2013.1/src/exe/rbdock.cxx#4 $)

>  <Rbt.Library>
libRbt.so (2013.1, Build901 2013/11/27)

>  <Rbt.Parameter_File>
/export/apps/rDock/src/rDock_2013.1_src/data/scripts/dock_solv.prm

>  <Rbt.Receptor>
prm/blind_docking_80.prm

>  <SCORE>
-19.4327

>  <SCORE.INTER>
-14.3424

>  <SCORE.INTER.CONST>
1

>  <SCORE.INTER.POLAR>
0

>  <SCORE.INTER.ROT>
4

>  <SCORE.INTER.SOLV>
19.9722

>  <SCORE.INTER.VDW>
-22.4856

>  <SCORE.INTER.norm>
-0.623582

>  <SCORE.INTRA>
-5.09032

>  <SCORE.INTRA.DIHEDRAL>
-6.97897

>  <SCORE.INTRA.DIHEDRAL.0>
8.62657

>  <SCORE.INTRA.POLAR>
0

>  <SCORE.INTRA.POLAR.0>
0

>  <SCORE.INTRA.REPUL>
0

>  <SCORE.INTRA.REPUL.0>
0

>  <SCORE.INTRA.SOLV>
0.144214

>  <SCORE.INTRA.SOLV.lig_0>
-66.3641

>  <SCORE.INTRA.VDW>
-1.67295

>  <SCORE.INTRA.VDW.0>
0.452231

>  <SCORE.INTRA.norm>
-0.221318

>  <SCORE.RESTR>
0

>  <SCORE.RESTR.CAVITY>
0

>  <SCORE.RESTR.norm>
0

>  <SCORE.SYSTEM>
0

>  <SCORE.SYSTEM.CONST>
0

>  <SCORE.SYSTEM.DIHEDRAL>
0

>  <SCORE.SYSTEM.SOLV>
0

>  <SCORE.SYSTEM.norm>
0

>  <SCORE.heavy>
23

>  <SCORE.norm>
-0.8449

>  <RMSD>
8.003

$$$$
ligand
 OpenBabel02271912143D
libRbt.so/2013.1/901 2013/11/27
 23 25  0  0  0  0  0  0  0  0999 V2000
   20.2393    2.2137   28.0188 P   0  0  1  0  0  0  0  0  0  0  0  0
   22.4426    0.8614   28.4338 C   0  0  0  0  0  0  0  0  0  0  0  0
   21.6681    2.0149   28.7311 O   0  0  0  0  0  0  0  0  0  0  0  0
   23.7120    0.9482   29.2509 C   0  0  1  0  0  0  0  0  0  0  0  0
   23.4442    1.0855   30.6460 O   0  0  0  0  0  0  0  0  0  0  0  0
   24.5192   -0.3239   29.0545 C   0  0  1  0  0  0  0  0  0  0  0  0
   25.8831    0.0477   28.7902 O   0  0  0  0  0  0  0  0  0  0  0  0
   24.3769   -1.0951   30.3607 C   0  0  0  0  0  0  0  0  0  0  0  0
   23.9521   -0.0384   31.3768 C   0  0  2  0  0  0  0  0  0  0  0  0
   22.2802   -3.7434   34.5406 N   0  0  0  0  0  0  0  0  0  0  0  0
   23.4726   -3.6537   33.9292 C   0  0  2  0  0  0  0  0  0  0  0  0
   24.3751   -4.6359   34.1578 N   0  0  0  0  0  0  0  0  0  0  0  0
   23.7649   -2.6085   33.1180 N   0  0  0  0  0  0  0  0  0  0  0  0
   22.8454   -1.6420   32.9176 C   0  0  2  0  0  0  0  0  0  0  0  0
   21.6164   -1.7203   33.5361 C   0  0  1  0  0  0  0  0  0  0  0  0
   21.3450   -2.7922   34.3651 C   0  0  0  0  0  0  0  0  0  0  0  0
   20.2387   -2.8784   34.9405 O   0  0  0  0  0  0  0  0  0  0  0  0
   20.8923   -0.6458   33.1652 N   0  0  0  0  0  0  0  0  0  0  0  0
   21.6592    0.0878   32.3394 C   0  0  0  0  0  0  0  0  0  0  0  0
   22.8351   -0.5314   32.1893 N   0  0  1  0  0  0  0  0  0  0  0  0
   19.4245    0.9774   28.3117 O   0  0  0  0  0  0  0  0  0  0  0  0
   19.6960    3.4801   28.6394 O   0  5  0  0  0  0  0  0  0  0  0  0
   20.6105    2.3583   26.5677 O   0  0  0  0  0  0  0  0  0  0  0  0
  1  3  1  1  0  0  0
  1 21  1  0  0  0  0
  1 22  1  0  0  0  0
  1 23  2  0  0  0  0
  2  3  1  0  0  0  0
  4  2  1  6  0  0  0
  4  5  1  0  0  0  0
  4  6  1  0  0  0  0
  6  7  1  1  0  0  0
  6  8  1  0  0  0  0
  8  9  1  0  0  0  0
  9  5  1  6  0  0  0
  9 20  1  0  0  0  0
 10 11  1  0  0  0  0
 10 16  1  0  0  0  0
 11 12  1  1  0  0  0
 11 13  1  0  0  0  0
 14 13  1  6  0  0  0
 14 15  1  0  0  0  0
 14 20  1  0  0  0  0
 15 16  1  1  0  0  0
 15 18  1  0  0  0  0
 16 17  2  0  0  0  0
 18 19  1  0  0  0  0
 20 19  1  1  0  0  0
M  CHG  1  22  -1
M  END
>  <CHROM.1>
55.31712394,55.80914282,-179.63954792,173.11062246,22.25376711,-0.29650029
30.90941787,1.77923153,0.26631504,-0.92148293

>  <Name>
ligand

>  <RI>
0

>  <Rbt.Current_Directory>
/home/itssahil/PROJECTS/Mol_Feturizer/Test_systems_manuscript/rnas/3slm

>  <Rbt.Executable>
rbdock ($Id: //depot/dev/client3/rdock/2013.1/src/exe/rbdock.cxx#4 $)

>  <Rbt.Library>
libRbt.so (2013.1, Build901 2013/11/27)

>  <Rbt.Parameter_File>
/export/apps/rDock/src/rDock_2013.1_src/data/scripts/dock_solv.prm

>  <Rbt.Receptor>
prm/pocket_docking_8.prm

>  <SCORE>
-20.0417

>  <SCORE.INTER>
-14.5858

>  <SCORE.INTER.CONST>
1

>  <SCORE.INTER.POLAR>
0

>  <SCORE.INTER.ROT>
4

>  <SCORE.INTER.SOLV>
13.3591

>  <SCORE.INTER.VDW>
-20.4435

>  <SCORE.INTER.norm>
-0.634165

>  <SCORE.INTRA>
-5.45595

>  <SCORE.INTRA.DIHEDRAL>
-7.35712

>  <SCORE.INTRA.DIHEDRAL.0>
8.62657

>  <SCORE.INTRA.POLAR>
0

>  <SCORE.INTRA.POLAR.0>
0

>  <SCORE.INTRA.REPUL>
0

>  <SCORE.INTRA.REPUL.0>
0

>  <SCORE.INTRA.SOLV>
-0.681332

>  <SCORE.INTRA.SOLV.lig_0>
-66.3641

>  <SCORE.INTRA.VDW>
-1.43673

>  <SCORE.INTRA.VDW.0>
0.452231

>  <SCORE.INTRA.norm>
-0.237215

>  <SCORE.RESTR>
0

>  <SCORE.RESTR.CAVITY>
0

>  <SCORE.RESTR.norm>
0

>  <SCORE.SYSTEM>
0

>  <SCORE.SYSTEM.CONST>
0

>  <SCORE.SYSTEM.DIHEDRAL>
0

>  <SCORE.SYSTEM.SOLV>
0

>  <SCORE.SYSTEM.norm>
0

>  <SCORE.heavy>
23

>  <SCORE.norm>
-0.87138

>  <RMSD>
8.041

$$$$
ligand
 OpenBabel02271912143D
libRbt.so/2013.1/901 2013/11/27
 23 25  0  0  0  0  0  0  0  0999 V2000
   21.0611    4.8320   28.5502 P   0  0  1  0  0  0  0  0  0  0  0  0
   22.0805    2.4421   28.8739 C   0  0  0  0  0  0  0  0  0  0  0  0
   21.2363    3.4659   29.3817 O   0  0  0  0  0  0  0  0  0  0  0  0
   21.9930    1.2716   29.8272 C   0  0  1  0  0  0  0  0  0  0  0  0
   22.6903    0.1268   29.3373 O   0  0  0  0  0  0  0  0  0  0  0  0
   22.6166    1.6634   31.1562 C   0  0  1  0  0  0  0  0  0  0  0  0
   21.7193    1.2639   32.2067 O   0  0  0  0  0  0  0  0  0  0  0  0
   23.9407    0.9121   31.2152 C   0  0  0  0  0  0  0  0  0  0  0  0
   23.7742   -0.2227   30.2081 C   0  0  2  0  0  0  0  0  0  0  0  0
   28.2824   -2.5897   29.4304 N   0  0  0  0  0  0  0  0  0  0  0  0
   27.4101   -2.7809   30.4334 C   0  0  2  0  0  0  0  0  0  0  0  0
   27.7163   -3.7103   31.3683 N   0  0  0  0  0  0  0  0  0  0  0  0
   26.2568   -2.0730   30.5008 N   0  0  0  0  0  0  0  0  0  0  0  0
   25.9781   -1.1595   29.5481 C   0  0  2  0  0  0  0  0  0  0  0  0
   26.8638   -0.9499   28.5133 C   0  0  1  0  0  0  0  0  0  0  0  0
   28.0297   -1.6901   28.4624 C   0  0  0  0  0  0  0  0  0  0  0  0
   28.8430   -1.5197   27.5287 O   0  0  0  0  0  0  0  0  0  0  0  0
   26.3546    0.0088   27.7146 N   0  0  0  0  0  0  0  0  0  0  0  0
   25.1737    0.3812   28.2392 C   0  0  0  0  0  0  0  0  0  0  0  0
   24.9623   -0.3259   29.3545 N   0  0  1  0  0  0  0  0  0  0  0  0
   20.7950    4.4444   27.1160 O   0  0  0  0  0  0  0  0  0  0  0  0
   19.9063    5.5282   29.2327 O   0  5  0  0  0  0  0  0  0  0  0  0
   22.3872    5.5141   28.7517 O   0  0  0  0  0  0  0  0  0  0  0  0
  1  3  1  1  0  0  0
  1 21  1  0  0  0  0
  1 22  1  0  0  0  0
  1 23  2  0  0  0  0
  2  3  1  0  0  0  0
  4  2  1  6  0  0  0
  4  5  1  0  0  0  0
  4  6  1  0  0  0  0
  6  7  1  1  0  0  0
  6  8  1  0  0  0  0
  8  9  1  0  0  0  0
  9  5  1  6  0  0  0
  9 20  1  0  0  0  0
 10 11  1  0  0  0  0
 10 16  1  0  0  0  0
 11 12  1  6  0  0  0
 11 13  1  0  0  0  0
 14 13  1  1  0  0  0
 14 15  1  0  0  0  0
 14 20  1  0  0  0  0
 15 16  1  6  0  0  0
 15 18  1  0  0  0  0
 16 17  2  0  0  0  0
 18 19  1  0  0  0  0
 20 19  1  6  0  0  0
M  CHG  1  22  -1
M  END
>  <CHROM.1>
47.40050788,173.57553541,-177.35687456,-147.35472229,24.05613059,0.99073997
29.37733579,-2.61811405,-0.62287103,2.27425002

>  <Name>
ligand

>  <RI>
0

>  <Rbt.Current_Directory>
/home/itssahil/PROJECTS/Mol_Feturizer/Test_systems_manuscript/rnas/3slm

>  <Rbt.Executable>
rbdock ($Id: //depot/dev/client3/rdock/2013.1/src/exe/rbdock.cxx#4 $)

>  <Rbt.Library>
libRbt.so (2013.1, Build901 2013/11/27)

>  <Rbt.Parameter_File>
/export/apps/rDock/src/rDock_2013.1_src/data/scripts/dock_solv.prm

>  <Rbt.Receptor>
prm/pocket_docking_8.prm

>  <SCORE>
-12.275

>  <SCORE.INTER>
-6.81169

>  <SCORE.INTER.CONST>
1

>  <SCORE.INTER.POLAR>
0

>  <SCORE.INTER.ROT>
4

>  <SCORE.INTER.SOLV>
16.4991

>  <SCORE.INTER.VDW>
-16.3075

>  <SCORE.INTER.norm>
-0.296161

>  <SCORE.INTRA>
-5.46327

>  <SCORE.INTRA.DIHEDRAL>
-6.95408

>  <SCORE.INTRA.DIHEDRAL.0>
8.62657

>  <SCORE.INTRA.POLAR>
0

>  <SCORE.INTRA.POLAR.0>
0

>  <SCORE.INTRA.REPUL>
0

>  <SCORE.INTRA.REPUL.0>
0

>  <SCORE.INTRA.SOLV>
-0.571934

>  <SCORE.INTRA.SOLV.lig_0>
-66.3641

>  <SCORE.INTRA.VDW>
-1.70026

>  <SCORE.INTRA.VDW.0>
0.452231

>  <SCORE.INTRA.norm>
-0.237533

>  <SCORE.RESTR>
0

>  <SCORE.RESTR.CAVITY>
0

>  <SCORE.RESTR.norm>
0

>  <SCORE.SYSTEM>
0

>  <SCORE.SYSTEM.CONST>
0

>  <SCORE.SYSTEM.DIHEDRAL>
0

>  <SCORE.SYSTEM.SOLV>
0

>  <SCORE.SYSTEM.norm>
0

>  <SCORE.heavy>
23

>  <SCORE.norm>
-0.533694

>  <RMSD>
8.044

$$$$
ligand
 OpenBabel02271912143D
libRbt.so/2013.1/901 2013/11/27
 23 25  0  0  0  0  0  0  0  0999 V2000
   22.6588    2.4573   26.9707 P   0  0  1  0  0  0  0  0  0  0  0  0
   23.9601    0.3661   27.8588 C   0  0  0  0  0  0  0  0  0  0  0  0
   23.7570    1.7708   27.9251 O   0  0  0  0  0  0  0  0  0  0  0  0
   25.0694    0.0250   28.8282 C   0  0  1  0  0  0  0  0  0  0  0  0
   24.7556    0.4192   30.1635 O   0  0  0  0  0  0  0  0  0  0  0  0
   25.2887   -1.4785   28.8258 C   0  0  1  0  0  0  0  0  0  0  0  0
   26.7016   -1.7245   28.7189 O   0  0  0  0  0  0  0  0  0  0  0  0
   24.7189   -1.9693   30.1507 C   0  0  0  0  0  0  0  0  0  0  0  0
   24.6804   -0.7214   31.0287 C   0  0  2  0  0  0  0  0  0  0  0  0
   21.5698   -2.7699   34.5868 N   0  0  0  0  0  0  0  0  0  0  0  0
   22.7769   -3.2073   34.1929 C   0  0  2  0  0  0  0  0  0  0  0  0
   23.2732   -4.3155   34.7907 N   0  0  0  0  0  0  0  0  0  0  0  0
   23.4784   -2.5542   33.2352 N   0  0  0  0  0  0  0  0  0  0  0  0
   22.9583   -1.4479   32.6650 C   0  0  2  0  0  0  0  0  0  0  0  0
   21.7199   -0.9872   33.0566 C   0  0  1  0  0  0  0  0  0  0  0  0
   21.0275   -1.6663   34.0410 C   0  0  0  0  0  0  0  0  0  0  0  0
   19.9057   -1.2610   34.4149 O   0  0  0  0  0  0  0  0  0  0  0  0
   21.4356    0.1142   32.3337 N   0  0  0  0  0  0  0  0  0  0  0  0
   22.4794    0.3364   31.5155 C   0  0  0  0  0  0  0  0  0  0  0  0
   23.3898   -0.6222   31.7183 N   0  0  1  0  0  0  0  0  0  0  0  0
   23.0774    2.1817   25.5470 O   0  0  0  0  0  0  0  0  0  0  0  0
   21.3604    1.7991   27.3774 O   0  5  0  0  0  0  0  0  0  0  0  0
   22.7500    3.9098   27.3530 O   0  0  0  0  0  0  0  0  0  0  0  0
  1  3  1  1  0  0  0
  1 21  1  0  0  0  0
  1 22  1  0  0  0  0
  1 23  2  0  0  0  0
  2  3  1  0  0  0  0
  4  2  1  6  0  0  0
  4  5  1  0  0  0  0
  4  6  1  0  0  0  0
  6  7  1  1  0  0  0
  6  8  1  0  0  0  0
  8  9  1  0  0  0  0
  9  5  1  6  0  0  0
  9 20  1  0  0  0  0
 10 11  1  0  0  0  0
 10 16  1  0  0  0  0
 11 12  1  1  0  0  0
 11 13  1  0  0  0  0
 14 13  1  6  0  0  0
 14 15  1  0  0  0  0
 14 20  1  0  0  0  0
 15 16  1  1  0  0  0
 15 18  1  0  0  0  0
 16 17  2  0  0  0  0
 18 19  1  0  0  0  0
 20 19  1  1  0  0  0
M  CHG  1  22  -1
M  END
>  <CHROM.1>
-60.67008003,58.64287767,178.27899795,-176.20181500,23.15312631,-0.25589880
30.42431150,1.41572824,0.53305954,-0.92273789

>  <Name>
ligand

>  <RI>
0

>  <Rbt.Current_Directory>
/home/itssahil/PROJECTS/Mol_Feturizer/Test_systems_manuscript/rnas/3slm

>  <Rbt.Executable>
rbdock ($Id: //depot/dev/client3/rdock/2013.1/src/exe/rbdock.cxx#4 $)

>  <Rbt.Library>
libRbt.so (2013.1, Build901 2013/11/27)

>  <Rbt.Parameter_File>
/export/apps/rDock/src/rDock_2013.1_src/data/scripts/dock_solv.prm

>  <Rbt.Receptor>
prm/pocket_docking_7.prm

>  <SCORE>
-21.173

>  <SCORE.INTER>
-15.4866

>  <SCORE.INTER.CONST>
1

>  <SCORE.INTER.POLAR>
0

>  <SCORE.INTER.ROT>
4

>  <SCORE.INTER.SOLV>
15.5468

>  <SCORE.INTER.VDW>
-21.7733

>  <SCORE.INTER.norm>
-0.673332

>  <SCORE.INTRA>
-5.68639

>  <SCORE.INTRA.DIHEDRAL>
-7.39541

>  <SCORE.INTRA.DIHEDRAL.0>
8.62657

>  <SCORE.INTRA.POLAR>
0

>  <SCORE.INTRA.POLAR.0>
0

>  <SCORE.INTRA.REPUL>
0

>  <SCORE.INTRA.REPUL.0>
0

>  <SCORE.INTRA.SOLV>
-0.685513

>  <SCORE.INTRA.SOLV.lig_0>
-66.3641

>  <SCORE.INTRA.VDW>
-1.64592

>  <SCORE.INTRA.VDW.0>
0.452231

>  <SCORE.INTRA.norm>
-0.247234

>  <SCORE.RESTR>
0

>  <SCORE.RESTR.CAVITY>
0

>  <SCORE.RESTR.norm>
0

>  <SCORE.SYSTEM>
0

>  <SCORE.SYSTEM.CONST>
0

>  <SCORE.SYSTEM.DIHEDRAL>
0

>  <SCORE.SYSTEM.SOLV>
0

>  <SCORE.SYSTEM.norm>
0

>  <SCORE.heavy>
23

>  <SCORE.norm>
-0.920566

>  <RMSD>
8.045

$$$$
ligand
 OpenBabel02271912143D
libRbt.so/2013.1/901 2013/11/27
 23 25  0  0  0  0  0  0  0  0999 V2000
   20.2304    2.1731   28.0013 P   0  0  1  0  0  0  0  0  0  0  0  0
   22.4408    0.8428   28.4476 C   0  0  0  0  0  0  0  0  0  0  0  0
   21.6524    1.9902   28.7312 O   0  0  0  0  0  0  0  0  0  0  0  0
   23.7056    0.9509   29.2693 C   0  0  1  0  0  0  0  0  0  0  0  0
   23.4302    1.0945   30.6623 O   0  0  0  0  0  0  0  0  0  0  0  0
   24.5292   -0.3126   29.0852 C   0  0  1  0  0  0  0  0  0  0  0  0
   25.8895    0.0740   28.8240 O   0  0  0  0  0  0  0  0  0  0  0  0
   24.3909   -1.0764   30.3962 C   0  0  0  0  0  0  0  0  0  0  0  0
   23.9488   -0.0179   31.4031 C   0  0  2  0  0  0  0  0  0  0  0  0
   22.3012   -3.7337   34.5670 N   0  0  0  0  0  0  0  0  0  0  0  0
   23.4937   -3.6352   33.9571 C   0  0  2  0  0  0  0  0  0  0  0  0
   24.4035   -4.6103   34.1876 N   0  0  0  0  0  0  0  0  0  0  0  0
   23.7791   -2.5884   33.1457 N   0  0  0  0  0  0  0  0  0  0  0  0
   22.8524   -1.6291   32.9434 C   0  0  2  0  0  0  0  0  0  0  0  0
   21.6232   -1.7166   33.5602 C   0  0  1  0  0  0  0  0  0  0  0  0
   21.3590   -2.7900   34.3895 C   0  0  0  0  0  0  0  0  0  0  0  0
   20.2526   -2.8844   34.9634 O   0  0  0  0  0  0  0  0  0  0  0  0
   20.8914   -0.6479   33.1876 N   0  0  0  0  0  0  0  0  0  0  0  0
   21.6536    0.0911   32.3624 C   0  0  0  0  0  0  0  0  0  0  0  0
   22.8345   -0.5190   32.2143 N   0  0  1  0  0  0  0  0  0  0  0  0
   19.4150    0.9406   28.3084 O   0  0  0  0  0  0  0  0  0  0  0  0
   19.6785    3.4495   28.5935 O   0  5  0  0  0  0  0  0  0  0  0  0
   20.6156    2.2923   26.5515 O   0  0  0  0  0  0  0  0  0  0  0  0
  1  3  1  1  0  0  0
  1 21  1  0  0  0  0
  1 22  1  0  0  0  0
  1 23  2  0  0  0  0
  2  3  1  0  0  0  0
  4  2  1  6  0  0  0
  4  5  1  0  0  0  0
  4  6  1  0  0  0  0
  6  7  1  1  0  0  0
  6  8  1  0  0  0  0
  8  9  1  0  0  0  0
  9  5  1  6  0  0  0
  9 20  1  0  0  0  0
 10 11  1  0  0  0  0
 10 16  1  0  0  0  0
 11 12  1  1  0  0  0
 11 13  1  0  0  0  0
 14 13  1  6  0  0  0
 14 15  1  0  0  0  0
 14 20  1  0  0  0  0
 15 16  1  1  0  0  0
 15 18  1  0  0  0  0
 16 17  2  0  0  0  0
 18 19  1  0  0  0  0
 20 19  1  1  0  0  0
M  CHG  1  22  -1
M  END
>  <CHROM.1>
56.23256705,55.94771370,179.83309066,172.63422626,22.25608963,-0.30078385
30.92293196,1.78179215,0.25498925,-0.92743244

>  <Name>
ligand

>  <RI>
0

>  <Rbt.Current_Directory>
/home/itssahil/PROJECTS/Mol_Feturizer/Test_systems_manuscript/rnas/3slm

>  <Rbt.Executable>
rbdock ($Id: //depot/dev/client3/rdock/2013.1/src/exe/rbdock.cxx#4 $)

>  <Rbt.Library>
libRbt.so (2013.1, Build901 2013/11/27)

>  <Rbt.Parameter_File>
/export/apps/rDock/src/rDock_2013.1_src/data/scripts/dock_solv.prm

>  <Rbt.Receptor>
prm/pocket_docking_7.prm

>  <SCORE>
-20.0471

>  <SCORE.INTER>
-14.5966

>  <SCORE.INTER.CONST>
1

>  <SCORE.INTER.POLAR>
0

>  <SCORE.INTER.ROT>
4

>  <SCORE.INTER.SOLV>
13.4052

>  <SCORE.INTER.VDW>
-20.4661

>  <SCORE.INTER.norm>
-0.634634

>  <SCORE.INTRA>
-5.45051

>  <SCORE.INTRA.DIHEDRAL>
-7.37409

>  <SCORE.INTRA.DIHEDRAL.0>
8.62657

>  <SCORE.INTRA.POLAR>
0

>  <SCORE.INTRA.POLAR.0>
0

>  <SCORE.INTRA.REPUL>
0

>  <SCORE.INTRA.REPUL.0>
0

>  <SCORE.INTRA.SOLV>
-0.674664

>  <SCORE.INTRA.SOLV.lig_0>
-66.3641

>  <SCORE.INTRA.VDW>
-1.42614

>  <SCORE.INTRA.VDW.0>
0.452231

>  <SCORE.INTRA.norm>
-0.236979

>  <SCORE.RESTR>
0

>  <SCORE.RESTR.CAVITY>
0

>  <SCORE.RESTR.norm>
0

>  <SCORE.SYSTEM>
0

>  <SCORE.SYSTEM.CONST>
0

>  <SCORE.SYSTEM.DIHEDRAL>
0

>  <SCORE.SYSTEM.SOLV>
0

>  <SCORE.SYSTEM.norm>
0

>  <SCORE.heavy>
23

>  <SCORE.norm>
-0.871613

>  <RMSD>
8.054

$$$$
ligand
 OpenBabel02271912143D
libRbt.so/2013.1/901 2013/11/27
 23 25  0  0  0  0  0  0  0  0999 V2000
   20.2377    2.2235   28.0062 P   0  0  1  0  0  0  0  0  0  0  0  0
   22.4346    0.8691   28.4476 C   0  0  0  0  0  0  0  0  0  0  0  0
   21.6672    2.0336   28.7194 O   0  0  0  0  0  0  0  0  0  0  0  0
   23.7030    0.9643   29.2652 C   0  0  1  0  0  0  0  0  0  0  0  0
   23.4337    1.0958   30.6606 O   0  0  0  0  0  0  0  0  0  0  0  0
   24.5207   -0.3007   29.0659 C   0  0  1  0  0  0  0  0  0  0  0  0
   25.8815    0.0829   28.8029 O   0  0  0  0  0  0  0  0  0  0  0  0
   24.3844   -1.0763   30.3701 C   0  0  0  0  0  0  0  0  0  0  0  0
   23.9507   -0.0257   31.3887 C   0  0  2  0  0  0  0  0  0  0  0  0
   22.3217   -3.7318   34.5736 N   0  0  0  0  0  0  0  0  0  0  0  0
   23.5156   -3.6280   33.9674 C   0  0  2  0  0  0  0  0  0  0  0  0
   24.4325   -4.5940   34.2081 N   0  0  0  0  0  0  0  0  0  0  0  0
   23.7954   -2.5848   33.1493 N   0  0  0  0  0  0  0  0  0  0  0  0
   22.8618   -1.6346   32.9368 C   0  0  2  0  0  0  0  0  0  0  0  0
   21.6310   -1.7275   33.5498 C   0  0  1  0  0  0  0  0  0  0  0  0
   21.3725   -2.7970   34.3860 C   0  0  0  0  0  0  0  0  0  0  0  0
   20.2649   -2.8963   34.9566 O   0  0  0  0  0  0  0  0  0  0  0  0
   20.8919   -0.6676   33.1669 N   0  0  0  0  0  0  0  0  0  0  0  0
   21.6512    0.0716   32.3390 C   0  0  0  0  0  0  0  0  0  0  0  0
   22.8375   -0.5300   32.1996 N   0  0  1  0  0  0  0  0  0  0  0  0
   19.4210    0.9937   28.3204 O   0  0  0  0  0  0  0  0  0  0  0  0
   19.6978    3.5009   28.6069 O   0  5  0  0  0  0  0  0  0  0  0  0
   20.6069    2.3438   26.5523 O   0  0  0  0  0  0  0  0  0  0  0  0
  1  3  1  1  0  0  0
  1 21  1  0  0  0  0
  1 22  1  0  0  0  0
  1 23  2  0  0  0  0
  2  3  1  0  0  0  0
  4  2  1  6  0  0  0
  4  5  1  0  0  0  0
  4  6  1  0  0  0  0
  6  7  1  1  0  0  0
  6  8  1  0  0  0  0
  8  9  1  0  0  0  0
  9  5  1  6  0  0  0
  9 20  1  0  0  0  0
 10 11  1  0  0  0  0
 10 16  1  0  0  0  0
 11 12  1  1  0  0  0
 11 13  1  0  0  0  0
 14 13  1  6  0  0  0
 14 15  1  0  0  0  0
 14 20  1  0  0  0  0
 15 16  1  1  0  0  0
 15 18  1  0  0  0  0
 16 17  2  0  0  0  0
 18 19  1  0  0  0  0
 20 19  1  1  0  0  0
M  CHG  1  22  -1
M  END
>  <CHROM.1>
54.84333279,57.39270346,-179.32532372,173.89718565,22.26235106,-0.28676417
30.91875735,1.78302276,0.25934291,-0.92394565

>  <Name>
ligand

>  <RI>
0

>  <Rbt.Current_Directory>
/home/itssahil/PROJECTS/Mol_Feturizer/Test_systems_manuscript/rnas/3slm

>  <Rbt.Executable>
rbdock ($Id: //depot/dev/client3/rdock/2013.1/src/exe/rbdock.cxx#4 $)

>  <Rbt.Library>
libRbt.so (2013.1, Build901 2013/11/27)

>  <Rbt.Parameter_File>
/export/apps/rDock/src/rDock_2013.1_src/data/scripts/dock_solv.prm

>  <Rbt.Receptor>
prm/pocket_docking_8.prm

>  <SCORE>
-20.0777

>  <SCORE.INTER>
-14.5877

>  <SCORE.INTER.CONST>
1

>  <SCORE.INTER.POLAR>
0

>  <SCORE.INTER.ROT>
4

>  <SCORE.INTER.SOLV>
13.1902

>  <SCORE.INTER.VDW>
-20.3885

>  <SCORE.INTER.norm>
-0.634246

>  <SCORE.INTRA>
-5.49

>  <SCORE.INTRA.DIHEDRAL>
-7.38494

>  <SCORE.INTRA.DIHEDRAL.0>
8.62657

>  <SCORE.INTRA.POLAR>
0

>  <SCORE.INTRA.POLAR.0>
0

>  <SCORE.INTRA.REPUL>
0

>  <SCORE.INTRA.REPUL.0>
0

>  <SCORE.INTRA.SOLV>
-0.69048

>  <SCORE.INTRA.SOLV.lig_0>
-66.3641

>  <SCORE.INTRA.VDW>
-1.45229

>  <SCORE.INTRA.VDW.0>
0.452231

>  <SCORE.INTRA.norm>
-0.238696

>  <SCORE.RESTR>
0

>  <SCORE.RESTR.CAVITY>
0

>  <SCORE.RESTR.norm>
0

>  <SCORE.SYSTEM>
0

>  <SCORE.SYSTEM.CONST>
0

>  <SCORE.SYSTEM.DIHEDRAL>
0

>  <SCORE.SYSTEM.SOLV>
0

>  <SCORE.SYSTEM.norm>
0

>  <SCORE.heavy>
23

>  <SCORE.norm>
-0.872942

>  <RMSD>
8.056

$$$$
ligand
 OpenBabel02271912143D
libRbt.so/2013.1/901 2013/11/27
 23 25  0  0  0  0  0  0  0  0999 V2000
   21.3804    4.9865   28.9226 P   0  0  1  0  0  0  0  0  0  0  0  0
   22.2755    2.5345   29.1266 C   0  0  0  0  0  0  0  0  0  0  0  0
   21.5815    3.6137   29.7369 O   0  0  0  0  0  0  0  0  0  0  0  0
   22.1038    1.3261   30.0192 C   0  0  1  0  0  0  0  0  0  0  0  0
   22.6846    0.1524   29.4516 O   0  0  0  0  0  0  0  0  0  0  0  0
   22.7888    1.5879   31.3499 C   0  0  1  0  0  0  0  0  0  0  0  0
   21.8822    1.2127   32.4014 O   0  0  0  0  0  0  0  0  0  0  0  0
   24.0409    0.7201   31.3343 C   0  0  0  0  0  0  0  0  0  0  0  0
   23.7513   -0.3388   30.2739 C   0  0  2  0  0  0  0  0  0  0  0  0
   28.2243   -2.7666   29.4801 N   0  0  0  0  0  0  0  0  0  0  0  0
   27.3898   -2.8909   30.5250 C   0  0  2  0  0  0  0  0  0  0  0  0
   27.7296   -3.7604   31.5048 N   0  0  0  0  0  0  0  0  0  0  0  0
   26.2407   -2.1759   30.5903 N   0  0  0  0  0  0  0  0  0  0  0  0
   25.9278   -1.3235   29.5928 C   0  0  2  0  0  0  0  0  0  0  0  0
   26.7744   -1.1829   28.5145 C   0  0  1  0  0  0  0  0  0  0  0  0
   27.9366   -1.9291   28.4672 C   0  0  0  0  0  0  0  0  0  0  0  0
   28.7147   -1.8210   27.4949 O   0  0  0  0  0  0  0  0  0  0  0  0
   26.2369   -0.2747   27.6763 N   0  0  0  0  0  0  0  0  0  0  0  0
   25.0769    0.1343   28.2199 C   0  0  0  0  0  0  0  0  0  0  0  0
   24.9065   -0.5001   29.3848 N   0  0  1  0  0  0  0  0  0  0  0  0
   22.7537    5.4654   28.5191 O   0  0  0  0  0  0  0  0  0  0  0  0
   20.4909    4.5962   27.7647 O   0  5  0  0  0  0  0  0  0  0  0  0
   20.7076    5.8752   29.9335 O   0  0  0  0  0  0  0  0  0  0  0  0
  1  3  1  1  0  0  0
  1 21  1  0  0  0  0
  1 22  1  0  0  0  0
  1 23  2  0  0  0  0
  2  3  1  0  0  0  0
  4  2  1  6  0  0  0
  4  5  1  0  0  0  0
  4  6  1  0  0  0  0
  6  7  1  1  0  0  0
  6  8  1  0  0  0  0
  8  9  1  0  0  0  0
  9  5  1  6  0  0  0
  9 20  1  0  0  0  0
 10 11  1  0  0  0  0
 10 16  1  0  0  0  0
 11 12  1  6  0  0  0
 11 13  1  0  0  0  0
 14 13  1  1  0  0  0
 14 15  1  0  0  0  0
 14 20  1  0  0  0  0
 15 16  1  6  0  0  0
 15 18  1  0  0  0  0
 16 17  2  0  0  0  0
 18 19  1  0  0  0  0
 20 19  1  6  0  0  0
M  CHG  1  22  -1
M  END
>  <CHROM.1>
-56.30148810,175.82573571,-170.59745415,-155.73919356,24.14354506,0.94071936
29.54141044,-2.61104103,-0.68844994,2.28992236

>  <Name>
ligand

>  <RI>
0

>  <Rbt.Current_Directory>
/home/itssahil/PROJECTS/Mol_Feturizer/Test_systems_manuscript/rnas/3slm

>  <Rbt.Executable>
rbdock ($Id: //depot/dev/client3/rdock/2013.1/src/exe/rbdock.cxx#4 $)

>  <Rbt.Library>
libRbt.so (2013.1, Build901 2013/11/27)

>  <Rbt.Parameter_File>
/export/apps/rDock/src/rDock_2013.1_src/data/scripts/dock_solv.prm

>  <Rbt.Receptor>
prm/pocket_docking_7.prm

>  <SCORE>
-13.3767

>  <SCORE.INTER>
-8.05283

>  <SCORE.INTER.CONST>
1

>  <SCORE.INTER.POLAR>
0

>  <SCORE.INTER.ROT>
4

>  <SCORE.INTER.SOLV>
14.6055

>  <SCORE.INTER.VDW>
-16.5037

>  <SCORE.INTER.norm>
-0.350123

>  <SCORE.INTRA>
-5.32384

>  <SCORE.INTRA.DIHEDRAL>
-6.85137

>  <SCORE.INTRA.DIHEDRAL.0>
8.62657

>  <SCORE.INTRA.POLAR>
0

>  <SCORE.INTRA.POLAR.0>
0

>  <SCORE.INTRA.REPUL>
0

>  <SCORE.INTRA.REPUL.0>
0

>  <SCORE.INTRA.SOLV>
-0.556376

>  <SCORE.INTRA.SOLV.lig_0>
-66.3641

>  <SCORE.INTRA.VDW>
-1.61997

>  <SCORE.INTRA.VDW.0>
0.452231

>  <SCORE.INTRA.norm>
-0.231471

>  <SCORE.RESTR>
0

>  <SCORE.RESTR.CAVITY>
0

>  <SCORE.RESTR.norm>
0

>  <SCORE.SYSTEM>
0

>  <SCORE.SYSTEM.CONST>
0

>  <SCORE.SYSTEM.DIHEDRAL>
0

>  <SCORE.SYSTEM.SOLV>
0

>  <SCORE.SYSTEM.norm>
0

>  <SCORE.heavy>
23

>  <SCORE.norm>
-0.581595

>  <RMSD>
8.058

$$$$
ligand
 OpenBabel02271912143D
libRbt.so/2013.1/901 2013/11/27
 23 25  0  0  0  0  0  0  0  0999 V2000
   21.6074    4.6417   29.1043 P   0  0  1  0  0  0  0  0  0  0  0  0
   21.7429    3.5508   31.4807 C   0  0  0  0  0  0  0  0  0  0  0  0
   21.7939    4.7365   30.6995 O   0  0  0  0  0  0  0  0  0  0  0  0
   23.1398    2.9728   31.5141 C   0  0  1  0  0  0  0  0  0  0  0  0
   23.2894    1.9888   32.5369 O   0  0  0  0  0  0  0  0  0  0  0  0
   23.4360    2.3074   30.1807 C   0  0  1  0  0  0  0  0  0  0  0  0
   24.7345    2.7427   29.7418 O   0  0  0  0  0  0  0  0  0  0  0  0
   23.3968    0.8105   30.4616 C   0  0  0  0  0  0  0  0  0  0  0  0
   23.5915    0.7063   31.9719 C   0  0  2  0  0  0  0  0  0  0  0  0
   22.8977   -3.8373   34.2970 N   0  0  0  0  0  0  0  0  0  0  0  0
   24.0488   -3.2957   33.8666 C   0  0  2  0  0  0  0  0  0  0  0  0
   25.1890   -3.9987   34.0602 N   0  0  0  0  0  0  0  0  0  0  0  0
   24.0681   -2.0808   33.2670 N   0  0  0  0  0  0  0  0  0  0  0  0
   22.9146   -1.4027   33.0964 C   0  0  2  0  0  0  0  0  0  0  0  0
   21.7246   -1.9455   33.5307 C   0  0  1  0  0  0  0  0  0  0  0  0
   21.7320   -3.1826   34.1464 C   0  0  0  0  0  0  0  0  0  0  0  0
   20.6643   -3.6895   34.5533 O   0  0  0  0  0  0  0  0  0  0  0  0
   20.7365   -1.0781   33.2347 N   0  0  0  0  0  0  0  0  0  0  0  0
   21.3028   -0.0156   32.6357 C   0  0  0  0  0  0  0  0  0  0  0  0
   22.6202   -0.2291   32.5485 N   0  0  1  0  0  0  0  0  0  0  0  0
   20.8643    3.3585   28.8225 O   0  0  0  0  0  0  0  0  0  0  0  0
   20.8416    5.8961   28.7520 O   0  5  0  0  0  0  0  0  0  0  0  0
   23.0270    4.6355   28.6051 O   0  0  0  0  0  0  0  0  0  0  0  0
  1  3  1  1  0  0  0
  1 21  1  0  0  0  0
  1 22  1  0  0  0  0
  1 23  2  0  0  0  0
  2  3  1  0  0  0  0
  4  2  1  6  0  0  0
  4  5  1  0  0  0  0
  4  6  1  0  0  0  0
  6  7  1  1  0  0  0
  6  8  1  0  0  0  0
  8  9  1  0  0  0  0
  9  5  1  1  0  0  0
  9 20  1  0  0  0  0
 10 11  1  0  0  0  0
 10 16  1  0  0  0  0
 11 12  1  1  0  0  0
 11 13  1  0  0  0  0
 14 13  1  6  0  0  0
 14 15  1  0  0  0  0
 14 20  1  0  0  0  0
 15 16  1  1  0  0  0
 15 18  1  0  0  0  0
 16 17  2  0  0  0  0
 18 19  1  0  0  0  0
 20 19  1  1  0  0  0
M  CHG  1  22  -1
M  END
>  <CHROM.1>
22.68938217,164.81183860,87.23858966,-131.05472730,22.51565972,0.94704484
31.64017043,1.65916473,0.15379504,-0.55916458

>  <Name>
ligand

>  <RI>
0

>  <Rbt.Current_Directory>
/home/itssahil/PROJECTS/Mol_Feturizer/Test_systems_manuscript/rnas/3slm

>  <Rbt.Executable>
rbdock ($Id: //depot/dev/client3/rdock/2013.1/src/exe/rbdock.cxx#4 $)

>  <Rbt.Library>
libRbt.so (2013.1, Build901 2013/11/27)

>  <Rbt.Parameter_File>
/export/apps/rDock/src/rDock_2013.1_src/data/scripts/dock_solv.prm

>  <Rbt.Receptor>
prm/pocket_docking_7.prm

>  <SCORE>
-16.5709

>  <SCORE.INTER>
-15.1153

>  <SCORE.INTER.CONST>
1

>  <SCORE.INTER.POLAR>
0

>  <SCORE.INTER.ROT>
4

>  <SCORE.INTER.SOLV>
16.6746

>  <SCORE.INTER.VDW>
-21.9017

>  <SCORE.INTER.norm>
-0.657188

>  <SCORE.INTRA>
-1.45554

>  <SCORE.INTRA.DIHEDRAL>
-1.90421

>  <SCORE.INTRA.DIHEDRAL.0>
8.62657

>  <SCORE.INTRA.POLAR>
0

>  <SCORE.INTRA.POLAR.0>
0

>  <SCORE.INTRA.REPUL>
0

>  <SCORE.INTRA.REPUL.0>
0

>  <SCORE.INTRA.SOLV>
2.89042

>  <SCORE.INTRA.SOLV.lig_0>
-66.3641

>  <SCORE.INTRA.VDW>
-1.94864

>  <SCORE.INTRA.VDW.0>
0.452231

>  <SCORE.INTRA.norm>
-0.0632842

>  <SCORE.RESTR>
0

>  <SCORE.RESTR.CAVITY>
0

>  <SCORE.RESTR.norm>
0

>  <SCORE.SYSTEM>
0

>  <SCORE.SYSTEM.CONST>
0

>  <SCORE.SYSTEM.DIHEDRAL>
0

>  <SCORE.SYSTEM.SOLV>
0

>  <SCORE.SYSTEM.norm>
0

>  <SCORE.heavy>
23

>  <SCORE.norm>
-0.720472

>  <RMSD>
8.068

$$$$
ligand
 OpenBabel02271912143D
libRbt.so/2013.1/901 2013/11/27
 23 25  0  0  0  0  0  0  0  0999 V2000
   21.7761    4.6639   28.9760 P   0  0  1  0  0  0  0  0  0  0  0  0
   21.6790    3.4960   31.3173 C   0  0  0  0  0  0  0  0  0  0  0  0
   21.7561    4.7105   30.5840 O   0  0  0  0  0  0  0  0  0  0  0  0
   23.0869    2.9612   31.4526 C   0  0  1  0  0  0  0  0  0  0  0  0
   23.2021    2.0149   32.5148 O   0  0  0  0  0  0  0  0  0  0  0  0
   23.4811    2.2630   30.1620 C   0  0  1  0  0  0  0  0  0  0  0  0
   24.7910    2.7227   29.7865 O   0  0  0  0  0  0  0  0  0  0  0  0
   23.4668    0.7753   30.4900 C   0  0  0  0  0  0  0  0  0  0  0  0
   23.5732    0.7248   32.0118 C   0  0  2  0  0  0  0  0  0  0  0  0
   22.8575   -3.8376   34.2931 N   0  0  0  0  0  0  0  0  0  0  0  0
   24.0144   -3.2859   33.8919 C   0  0  2  0  0  0  0  0  0  0  0  0
   25.1545   -3.9827   34.1068 N   0  0  0  0  0  0  0  0  0  0  0  0
   24.0391   -2.0672   33.3002 N   0  0  0  0  0  0  0  0  0  0  0  0
   22.8852   -1.3955   33.1080 C   0  0  2  0  0  0  0  0  0  0  0  0
   21.6894   -1.9487   33.5122 C   0  0  1  0  0  0  0  0  0  0  0  0
   21.6912   -3.1895   34.1204 C   0  0  0  0  0  0  0  0  0  0  0  0
   20.6180   -3.7058   34.5002 O   0  0  0  0  0  0  0  0  0  0  0  0
   20.7025   -1.0858   33.1994 N   0  0  0  0  0  0  0  0  0  0  0  0
   21.2750   -0.0160   32.6197 C   0  0  0  0  0  0  0  0  0  0  0  0
   22.5954   -0.2205   32.5607 N   0  0  1  0  0  0  0  0  0  0  0  0
   23.2228    4.5736   28.5552 O   0  0  0  0  0  0  0  0  0  0  0  0
   20.9507    3.4441   28.6367 O   0  5  0  0  0  0  0  0  0  0  0  0
   21.1212    5.9652   28.5992 O   0  0  0  0  0  0  0  0  0  0  0  0
  1  3  1  1  0  0  0
  1 21  1  0  0  0  0
  1 22  1  0  0  0  0
  1 23  2  0  0  0  0
  2  3  1  0  0  0  0
  4  2  1  6  0  0  0
  4  5  1  0  0  0  0
  4  6  1  0  0  0  0
  6  7  1  1  0  0  0
  6  8  1  0  0  0  0
  8  9  1  0  0  0  0
  9  5  1  1  0  0  0
  9 20  1  0  0  0  0
 10 11  1  0  0  0  0
 10 16  1  0  0  0  0
 11 12  1  1  0  0  0
 11 13  1  0  0  0  0
 14 13  1  6  0  0  0
 14 15  1  0  0  0  0
 14 20  1  0  0  0  0
 15 16  1  1  0  0  0
 15 18  1  0  0  0  0
 16 17  2  0  0  0  0
 18 19  1  0  0  0  0
 20 19  1  1  0  0  0
M  CHG  1  22  -1
M  END
>  <CHROM.1>
-90.07175823,160.63088036,84.54983846,-134.38827326,22.53866147,0.94803953
31.59756089,1.63989919,0.14604498,-0.56635338

>  <Name>
ligand

>  <RI>
0

>  <Rbt.Current_Directory>
/home/itssahil/PROJECTS/Mol_Feturizer/Test_systems_manuscript/rnas/3slm

>  <Rbt.Executable>
rbdock ($Id: //depot/dev/client3/rdock/2013.1/src/exe/rbdock.cxx#4 $)

>  <Rbt.Library>
libRbt.so (2013.1, Build901 2013/11/27)

>  <Rbt.Parameter_File>
/export/apps/rDock/src/rDock_2013.1_src/data/scripts/dock_solv.prm

>  <Rbt.Receptor>
prm/pocket_docking_8.prm

>  <SCORE>
-18.4192

>  <SCORE.INTER>
-16.6782

>  <SCORE.INTER.CONST>
1

>  <SCORE.INTER.POLAR>
0

>  <SCORE.INTER.ROT>
4

>  <SCORE.INTER.SOLV>
14.2409

>  <SCORE.INTER.VDW>
-22.1324

>  <SCORE.INTER.norm>
-0.725139

>  <SCORE.INTRA>
-1.74102

>  <SCORE.INTRA.DIHEDRAL>
-2.3841

>  <SCORE.INTRA.DIHEDRAL.0>
8.62657

>  <SCORE.INTRA.POLAR>
0

>  <SCORE.INTRA.POLAR.0>
0

>  <SCORE.INTRA.REPUL>
0

>  <SCORE.INTRA.REPUL.0>
0

>  <SCORE.INTRA.SOLV>
2.47464

>  <SCORE.INTRA.SOLV.lig_0>
-66.3641

>  <SCORE.INTRA.VDW>
-1.78629

>  <SCORE.INTRA.VDW.0>
0.452231

>  <SCORE.INTRA.norm>
-0.0756964

>  <SCORE.RESTR>
0

>  <SCORE.RESTR.CAVITY>
0

>  <SCORE.RESTR.norm>
0

>  <SCORE.SYSTEM>
0

>  <SCORE.SYSTEM.CONST>
0

>  <SCORE.SYSTEM.DIHEDRAL>
0

>  <SCORE.SYSTEM.SOLV>
0

>  <SCORE.SYSTEM.norm>
0

>  <SCORE.heavy>
23

>  <SCORE.norm>
-0.800836

>  <RMSD>
8.070

$$$$
ligand
 OpenBabel02271912143D
libRbt.so/2013.1/901 2013/11/27
 23 25  0  0  0  0  0  0  0  0999 V2000
   19.7656    5.2359   32.4445 P   0  0  1  0  0  0  0  0  0  0  0  0
   21.7022    3.4991   32.1473 C   0  0  0  0  0  0  0  0  0  0  0  0
   21.0788    4.6916   31.6912 O   0  0  0  0  0  0  0  0  0  0  0  0
   22.9670    3.3144   31.3394 C   0  0  1  0  0  0  0  0  0  0  0  0
   23.8264    2.3258   31.9058 O   0  0  0  0  0  0  0  0  0  0  0  0
   22.6004    2.8638   29.9354 C   0  0  1  0  0  0  0  0  0  0  0  0
   23.3434    3.6645   29.0000 O   0  0  0  0  0  0  0  0  0  0  0  0
   22.9926    1.3930   29.8708 C   0  0  0  0  0  0  0  0  0  0  0  0
   23.9963    1.2213   31.0078 C   0  0  2  0  0  0  0  0  0  0  0  0
   25.5629   -3.4843   32.3991 N   0  0  0  0  0  0  0  0  0  0  0  0
   26.1773   -2.6171   31.5780 C   0  0  2  0  0  0  0  0  0  0  0  0
   27.3619   -2.9885   31.0390 N   0  0  0  0  0  0  0  0  0  0  0  0
   25.6329   -1.4065   31.3064 N   0  0  0  0  0  0  0  0  0  0  0  0
   24.4543   -1.0642   31.8665 C   0  0  2  0  0  0  0  0  0  0  0  0
   23.8101   -1.9436   32.7097 C   0  0  1  0  0  0  0  0  0  0  0  0
   24.3896   -3.1693   32.9772 C   0  0  0  0  0  0  0  0  0  0  0  0
   23.8246   -3.9784   33.7444 O   0  0  0  0  0  0  0  0  0  0  0  0
   22.6641   -1.3655   33.1204 N   0  0  0  0  0  0  0  0  0  0  0  0
   22.6021   -0.1496   32.5495 C   0  0  0  0  0  0  0  0  0  0  0  0
   23.6865    0.0165   31.7846 N   0  0  1  0  0  0  0  0  0  0  0  0
   18.7455    4.1240   32.4120 O   0  0  0  0  0  0  0  0  0  0  0  0
   20.2597    5.5886   33.8286 O   0  5  0  0  0  0  0  0  0  0  0  0
   19.3790    6.4299   31.6143 O   0  0  0  0  0  0  0  0  0  0  0  0
  1  3  1  6  0  0  0
  1 21  1  0  0  0  0
  1 22  1  0  0  0  0
  1 23  2  0  0  0  0
  2  3  1  0  0  0  0
  4  2  1  1  0  0  0
  4  5  1  0  0  0  0
  4  6  1  0  0  0  0
  6  7  1  6  0  0  0
  6  8  1  0  0  0  0
  8  9  1  0  0  0  0
  9  5  1  1  0  0  0
  9 20  1  0  0  0  0
 10 11  1  0  0  0  0
 10 16  1  0  0  0  0
 11 12  1  1  0  0  0
 11 13  1  0  0  0  0
 14 13  1  6  0  0  0
 14 15  1  0  0  0  0
 14 20  1  0  0  0  0
 15 16  1  1  0  0  0
 15 18  1  0  0  0  0
 16 17  2  0  0  0  0
 18 19  1  0  0  0  0
 20 19  1  1  0  0  0
M  CHG  1  22  -1
M  END
>  <CHROM.1>
-56.58321115,166.75777280,-174.76770572,-129.35113951,22.81252573,1.34042361
31.87063426,2.33571629,0.68692494,-0.56556719

>  <Name>
ligand

>  <RI>
416

>  <Rbt.Current_Directory>
/home/itssahil/PROJECTS/Mol_Feturizer/Test_systems_manuscript/rnas/3slm

>  <Rbt.Executable>
rbdock ($Id: //depot/dev/client3/rdock/2013.1/src/exe/rbdock.cxx#4 $)

>  <Rbt.Library>
libRbt.so (2013.1, Build901 2013/11/27)

>  <Rbt.Parameter_File>
/export/apps/rDock/src/rDock_2013.1_src/data/scripts/dock_solv.prm

>  <Rbt.Receptor>
prm/pocket_docking_6.prm

>  <SCORE>
-22.0723

>  <SCORE.INTER>
-16.6066

>  <SCORE.INTER.CONST>
1

>  <SCORE.INTER.POLAR>
0

>  <SCORE.INTER.ROT>
4

>  <SCORE.INTER.SOLV>
19.7208

>  <SCORE.INTER.VDW>
-23.9114

>  <SCORE.INTER.norm>
-0.722028

>  <SCORE.INTRA>
-5.46561

>  <SCORE.INTRA.DIHEDRAL>
-6.62827

>  <SCORE.INTRA.DIHEDRAL.0>
8.62657

>  <SCORE.INTRA.POLAR>
0

>  <SCORE.INTRA.POLAR.0>
0

>  <SCORE.INTRA.REPUL>
0

>  <SCORE.INTRA.REPUL.0>
0

>  <SCORE.INTRA.SOLV>
-0.601181

>  <SCORE.INTRA.SOLV.lig_0>
-66.3641

>  <SCORE.INTRA.VDW>
-1.85088

>  <SCORE.INTRA.VDW.0>
0.452231

>  <SCORE.INTRA.norm>
-0.237635

>  <SCORE.RESTR>
0

>  <SCORE.RESTR.CAVITY>
0

>  <SCORE.RESTR.norm>
0

>  <SCORE.SYSTEM>
0

>  <SCORE.SYSTEM.CONST>
0

>  <SCORE.SYSTEM.DIHEDRAL>
0

>  <SCORE.SYSTEM.SOLV>
0

>  <SCORE.SYSTEM.norm>
0

>  <SCORE.heavy>
23

>  <SCORE.norm>
-0.959663

>  <RMSD>
8.114

$$$$
ligand
 OpenBabel02271912143D
libRbt.so/2013.1/901 2013/11/27
 23 25  0  0  0  0  0  0  0  0999 V2000
   19.7075    5.3772   32.3688 P   0  0  1  0  0  0  0  0  0  0  0  0
   21.6287    3.6054   32.2105 C   0  0  0  0  0  0  0  0  0  0  0  0
   21.0089    4.7568   31.6547 O   0  0  0  0  0  0  0  0  0  0  0  0
   22.8830    3.3380   31.4095 C   0  0  1  0  0  0  0  0  0  0  0  0
   23.6937    2.3247   32.0036 O   0  0  0  0  0  0  0  0  0  0  0  0
   22.4950    2.8677   30.0178 C   0  0  1  0  0  0  0  0  0  0  0  0
   23.2758    3.6059   29.0620 O   0  0  0  0  0  0  0  0  0  0  0  0
   22.8156    1.3784   29.9935 C   0  0  0  0  0  0  0  0  0  0  0  0
   23.8100    1.1893   31.1360 C   0  0  2  0  0  0  0  0  0  0  0  0
   25.1874   -3.5136   32.7224 N   0  0  0  0  0  0  0  0  0  0  0  0
   25.8494   -2.6953   31.8883 C   0  0  2  0  0  0  0  0  0  0  0  0
   27.0335   -3.1227   31.3916 N   0  0  0  0  0  0  0  0  0  0  0  0
   25.3516   -1.4778   31.5629 N   0  0  0  0  0  0  0  0  0  0  0  0
   24.1721   -1.0789   32.0818 C   0  0  2  0  0  0  0  0  0  0  0  0
   23.4795   -1.9077   32.9377 C   0  0  1  0  0  0  0  0  0  0  0  0
   24.0118   -3.1415   33.2604 C   0  0  0  0  0  0  0  0  0  0  0  0
   23.4024   -3.9053   34.0399 O   0  0  0  0  0  0  0  0  0  0  0  0
   22.3436   -1.2795   33.3003 N   0  0  0  0  0  0  0  0  0  0  0  0
   22.3352   -0.0825   32.6876 C   0  0  0  0  0  0  0  0  0  0  0  0
   23.4424    0.0224   31.9447 N   0  0  1  0  0  0  0  0  0  0  0  0
   18.6736    4.2794   32.4324 O   0  0  0  0  0  0  0  0  0  0  0  0
   20.2151    5.8346   33.7169 O   0  5  0  0  0  0  0  0  0  0  0  0
   19.3302    6.5048   31.4466 O   0  0  0  0  0  0  0  0  0  0  0  0
  1  3  1  6  0  0  0
  1 21  1  0  0  0  0
  1 22  1  0  0  0  0
  1 23  2  0  0  0  0
  2  3  1  0  0  0  0
  4  2  1  1  0  0  0
  4  5  1  0  0  0  0
  4  6  1  0  0  0  0
  6  7  1  6  0  0  0
  6  8  1  0  0  0  0
  8  9  1  0  0  0  0
  9  5  1  1  0  0  0
  9 20  1  0  0  0  0
 10 11  1  0  0  0  0
 10 16  1  0  0  0  0
 11 12  1  1  0  0  0
 11 13  1  0  0  0  0
 14 13  1  6  0  0  0
 14 15  1  0  0  0  0
 14 20  1  0  0  0  0
 15 16  1  1  0  0  0
 15 18  1  0  0  0  0
 16 17  2  0  0  0  0
 18 19  1  0  0  0  0
 20 19  1  1  0  0  0
M  CHG  1  22  -1
M  END
>  <CHROM.1>
-57.22463437,171.12803540,-174.80962345,-127.67300826,22.62239110,1.37846045
31.98353163,2.27995173,0.68421814,-0.55932371

>  <Name>
ligand

>  <RI>
416

>  <Rbt.Current_Directory>
/home/itssahil/PROJECTS/Mol_Feturizer/Test_systems_manuscript/rnas/3slm

>  <Rbt.Executable>
rbdock ($Id: //depot/dev/client3/rdock/2013.1/src/exe/rbdock.cxx#4 $)

>  <Rbt.Library>
libRbt.so (2013.1, Build901 2013/11/27)

>  <Rbt.Parameter_File>
/export/apps/rDock/src/rDock_2013.1_src/data/scripts/dock_solv.prm

>  <Rbt.Receptor>
prm/pocket_docking_6.prm

>  <SCORE>
-22.1135

>  <SCORE.INTER>
-16.5524

>  <SCORE.INTER.CONST>
1

>  <SCORE.INTER.POLAR>
0

>  <SCORE.INTER.ROT>
4

>  <SCORE.INTER.SOLV>
19.108

>  <SCORE.INTER.VDW>
-23.6709

>  <SCORE.INTER.norm>
-0.719668

>  <SCORE.INTRA>
-5.5611

>  <SCORE.INTRA.DIHEDRAL>
-6.97154

>  <SCORE.INTRA.DIHEDRAL.0>
8.62657

>  <SCORE.INTRA.POLAR>
0

>  <SCORE.INTRA.POLAR.0>
0

>  <SCORE.INTRA.REPUL>
0

>  <SCORE.INTRA.REPUL.0>
0

>  <SCORE.INTRA.SOLV>
-0.576318

>  <SCORE.INTRA.SOLV.lig_0>
-66.3641

>  <SCORE.INTRA.VDW>
-1.78717

>  <SCORE.INTRA.VDW.0>
0.452231

>  <SCORE.INTRA.norm>
-0.241787

>  <SCORE.RESTR>
0

>  <SCORE.RESTR.CAVITY>
0

>  <SCORE.RESTR.norm>
0

>  <SCORE.SYSTEM>
0

>  <SCORE.SYSTEM.CONST>
0

>  <SCORE.SYSTEM.DIHEDRAL>
0

>  <SCORE.SYSTEM.SOLV>
0

>  <SCORE.SYSTEM.norm>
0

>  <SCORE.heavy>
23

>  <SCORE.norm>
-0.961455

>  <RMSD>
8.137

$$$$
ligand
 OpenBabel02271912143D
libRbt.so/2013.1/901 2013/11/27
 23 25  0  0  0  0  0  0  0  0999 V2000
   21.3732    5.1804   29.5243 P   0  0  1  0  0  0  0  0  0  0  0  0
   22.4224    3.2586   30.9600 C   0  0  0  0  0  0  0  0  0  0  0  0
   22.5706    4.1650   29.8759 O   0  0  0  0  0  0  0  0  0  0  0  0
   23.7128    2.4788   31.0749 C   0  0  1  0  0  0  0  0  0  0  0  0
   23.7116    1.6014   32.2005 O   0  0  0  0  0  0  0  0  0  0  0  0
   23.8975    1.6337   29.8258 C   0  0  1  0  0  0  0  0  0  0  0  0
   25.2462    1.8123   29.3598 O   0  0  0  0  0  0  0  0  0  0  0  0
   23.6275    0.2007   30.2672 C   0  0  0  0  0  0  0  0  0  0  0  0
   23.8091    0.2336   31.7824 C   0  0  2  0  0  0  0  0  0  0  0  0
   22.4002   -3.9358   34.4588 N   0  0  0  0  0  0  0  0  0  0  0  0
   23.6152   -3.6383   33.9701 C   0  0  2  0  0  0  0  0  0  0  0  0
   24.6202   -4.5153   34.1989 N   0  0  0  0  0  0  0  0  0  0  0  0
   23.8290   -2.4926   33.2791 N   0  0  0  0  0  0  0  0  0  0  0  0
   22.8071   -1.6359   33.0754 C   0  0  2  0  0  0  0  0  0  0  0  0
   21.5537   -1.9275   33.5686 C   0  0  1  0  0  0  0  0  0  0  0  0
   21.3629   -3.0986   34.2769 C   0  0  0  0  0  0  0  0  0  0  0  0
   20.2353   -3.3784   34.7381 O   0  0  0  0  0  0  0  0  0  0  0  0
   20.7241   -0.9232   33.2228 N   0  0  0  0  0  0  0  0  0  0  0  0
   21.4496   -0.0235   32.5354 C   0  0  0  0  0  0  0  0  0  0  0  0
   22.7064   -0.4716   32.4440 N   0  0  1  0  0  0  0  0  0  0  0  0
   21.8791    6.1006   28.4402 O   0  0  0  0  0  0  0  0  0  0  0  0
   20.2417    4.2747   29.0958 O   0  5  0  0  0  0  0  0  0  0  0  0
   21.1322    5.8749   30.8373 O   0  0  0  0  0  0  0  0  0  0  0  0
  1  3  1  1  0  0  0
  1 21  1  0  0  0  0
  1 22  1  0  0  0  0
  1 23  2  0  0  0  0
  2  3  1  0  0  0  0
  4  2  1  6  0  0  0
  4  5  1  0  0  0  0
  4  6  1  0  0  0  0
  6  7  1  1  0  0  0
  6  8  1  0  0  0  0
  8  9  1  0  0  0  0
  9  5  1  1  0  0  0
  9 20  1  0  0  0  0
 10 11  1  0  0  0  0
 10 16  1  0  0  0  0
 11 12  1  1  0  0  0
 11 13  1  0  0  0  0
 14 13  1  6  0  0  0
 14 15  1  0  0  0  0
 14 20  1  0  0  0  0
 15 16  1  1  0  0  0
 15 18  1  0  0  0  0
 16 17  2  0  0  0  0
 18 19  1  0  0  0  0
 20 19  1  1  0  0  0
M  CHG  1  22  -1
M  END
>  <CHROM.1>
174.03770553,175.69936386,-178.04070422,-133.85325023,22.48674933,0.86997659
31.66400847,1.64566964,0.34206561,-0.53068059

>  <Name>
ligand

>  <RI>
0

>  <Rbt.Current_Directory>
/home/itssahil/PROJECTS/Mol_Feturizer/Test_systems_manuscript/rnas/3slm

>  <Rbt.Executable>
rbdock ($Id: //depot/dev/client3/rdock/2013.1/src/exe/rbdock.cxx#4 $)

>  <Rbt.Library>
libRbt.so (2013.1, Build901 2013/11/27)

>  <Rbt.Parameter_File>
/export/apps/rDock/src/rDock_2013.1_src/data/scripts/dock_solv.prm

>  <Rbt.Receptor>
prm/pocket_docking_7.prm

>  <SCORE>
-21.6959

>  <SCORE.INTER>
-16.5179

>  <SCORE.INTER.CONST>
1

>  <SCORE.INTER.POLAR>
0

>  <SCORE.INTER.ROT>
4

>  <SCORE.INTER.SOLV>
13.7699

>  <SCORE.INTER.VDW>
-21.8686

>  <SCORE.INTER.norm>
-0.718169

>  <SCORE.INTRA>
-5.17799

>  <SCORE.INTRA.DIHEDRAL>
-7.25128

>  <SCORE.INTRA.DIHEDRAL.0>
8.62657

>  <SCORE.INTRA.POLAR>
0

>  <SCORE.INTRA.POLAR.0>
0

>  <SCORE.INTRA.REPUL>
0

>  <SCORE.INTRA.REPUL.0>
0

>  <SCORE.INTRA.SOLV>
0.163148

>  <SCORE.INTRA.SOLV.lig_0>
-66.3641

>  <SCORE.INTRA.VDW>
-1.63392

>  <SCORE.INTRA.VDW.0>
0.452231

>  <SCORE.INTRA.norm>
-0.22513

>  <SCORE.RESTR>
0

>  <SCORE.RESTR.CAVITY>
0

>  <SCORE.RESTR.norm>
0

>  <SCORE.SYSTEM>
0

>  <SCORE.SYSTEM.CONST>
0

>  <SCORE.SYSTEM.DIHEDRAL>
0

>  <SCORE.SYSTEM.SOLV>
0

>  <SCORE.SYSTEM.norm>
0

>  <SCORE.heavy>
23

>  <SCORE.norm>
-0.943299

>  <RMSD>
8.172

$$$$
ligand
 OpenBabel02271912143D
libRbt.so/2013.1/901 2013/11/27
 23 25  0  0  0  0  0  0  0  0999 V2000
   19.8047    5.3034   32.4129 P   0  0  1  0  0  0  0  0  0  0  0  0
   21.6779    3.4811   32.2523 C   0  0  0  0  0  0  0  0  0  0  0  0
   21.0946    4.6547   31.7033 O   0  0  0  0  0  0  0  0  0  0  0  0
   22.9757    3.2362   31.5159 C   0  0  1  0  0  0  0  0  0  0  0  0
   23.7677    2.2290   32.1444 O   0  0  0  0  0  0  0  0  0  0  0  0
   22.6669    2.7715   30.1026 C   0  0  1  0  0  0  0  0  0  0  0  0
   23.4864    3.5271   29.1940 O   0  0  0  0  0  0  0  0  0  0  0  0
   23.0082    1.2868   30.0848 C   0  0  0  0  0  0  0  0  0  0  0  0
   23.9442    1.1019   31.2762 C   0  0  2  0  0  0  0  0  0  0  0  0
   25.1503   -3.7163   32.6406 N   0  0  0  0  0  0  0  0  0  0  0  0
   25.8200   -2.8994   31.8112 C   0  0  2  0  0  0  0  0  0  0  0  0
   26.9632   -3.3630   31.2547 N   0  0  0  0  0  0  0  0  0  0  0  0
   25.3700   -1.6486   31.5487 N   0  0  0  0  0  0  0  0  0  0  0  0
   24.2308   -1.2145   32.1262 C   0  0  2  0  0  0  0  0  0  0  0  0
   23.5309   -2.0413   32.9781 C   0  0  1  0  0  0  0  0  0  0  0  0
   24.0145   -3.3098   33.2362 C   0  0  0  0  0  0  0  0  0  0  0  0
   23.3980   -4.0728   34.0110 O   0  0  0  0  0  0  0  0  0  0  0  0
   22.4407   -1.3745   33.4061 N   0  0  0  0  0  0  0  0  0  0  0  0
   22.4676   -0.1563   32.8372 C   0  0  0  0  0  0  0  0  0  0  0  0
   23.5506   -0.0759   32.0565 N   0  0  1  0  0  0  0  0  0  0  0  0
   18.7370    4.2371   32.4472 O   0  0  0  0  0  0  0  0  0  0  0  0
   20.3104    5.7235   33.7738 O   0  5  0  0  0  0  0  0  0  0  0  0
   19.4727    6.4566   31.5050 O   0  0  0  0  0  0  0  0  0  0  0  0
  1  3  1  6  0  0  0
  1 21  1  0  0  0  0
  1 22  1  0  0  0  0
  1 23  2  0  0  0  0
  2  3  1  0  0  0  0
  4  2  1  1  0  0  0
  4  5  1  0  0  0  0
  4  6  1  0  0  0  0
  6  7  1  6  0  0  0
  6  8  1  0  0  0  0
  8  9  1  0  0  0  0
  9  5  1  1  0  0  0
  9 20  1  0  0  0  0
 10 11  1  0  0  0  0
 10 16  1  0  0  0  0
 11 12  1  1  0  0  0
 11 13  1  0  0  0  0
 14 13  1  6  0  0  0
 14 15  1  0  0  0  0
 14 20  1  0  0  0  0
 15 16  1  1  0  0  0
 15 18  1  0  0  0  0
 16 17  2  0  0  0  0
 18 19  1  0  0  0  0
 20 19  1  1  0  0  0
M  CHG  1  22  -1
M  END
>  <CHROM.1>
-57.64157495,169.19684339,-171.35181116,-134.09952296,22.70025773,1.26305882
32.02967467,2.25921624,0.68455448,-0.52959142

>  <Name>
ligand

>  <RI>
0

>  <Rbt.Current_Directory>
/home/itssahil/PROJECTS/Mol_Feturizer/Test_systems_manuscript/rnas/3slm

>  <Rbt.Executable>
rbdock ($Id: //depot/dev/client3/rdock/2013.1/src/exe/rbdock.cxx#4 $)

>  <Rbt.Library>
libRbt.so (2013.1, Build901 2013/11/27)

>  <Rbt.Parameter_File>
/export/apps/rDock/src/rDock_2013.1_src/data/scripts/dock_solv.prm

>  <Rbt.Receptor>
prm/pocket_docking_7.prm

>  <SCORE>
-22.1272

>  <SCORE.INTER>
-16.7095

>  <SCORE.INTER.CONST>
1

>  <SCORE.INTER.POLAR>
0

>  <SCORE.INTER.ROT>
4

>  <SCORE.INTER.SOLV>
19.7884

>  <SCORE.INTER.VDW>
-24.0025

>  <SCORE.INTER.norm>
-0.726501

>  <SCORE.INTRA>
-5.41773

>  <SCORE.INTRA.DIHEDRAL>
-6.59803

>  <SCORE.INTRA.DIHEDRAL.0>
8.62657

>  <SCORE.INTRA.POLAR>
0

>  <SCORE.INTRA.POLAR.0>
0

>  <SCORE.INTRA.REPUL>
0

>  <SCORE.INTRA.REPUL.0>
0

>  <SCORE.INTRA.SOLV>
-0.576126

>  <SCORE.INTRA.SOLV.lig_0>
-66.3641

>  <SCORE.INTRA.VDW>
-1.83065

>  <SCORE.INTRA.VDW.0>
0.452231

>  <SCORE.INTRA.norm>
-0.235554

>  <SCORE.RESTR>
0

>  <SCORE.RESTR.CAVITY>
0

>  <SCORE.RESTR.norm>
0

>  <SCORE.SYSTEM>
0

>  <SCORE.SYSTEM.CONST>
0

>  <SCORE.SYSTEM.DIHEDRAL>
0

>  <SCORE.SYSTEM.SOLV>
0

>  <SCORE.SYSTEM.norm>
0

>  <SCORE.heavy>
23

>  <SCORE.norm>
-0.962054

>  <RMSD>
8.176

$$$$
ligand
 OpenBabel02271912143D
libRbt.so/2013.1/901 2013/11/27
 23 25  0  0  0  0  0  0  0  0999 V2000
   19.7326    5.3446   32.3066 P   0  0  1  0  0  0  0  0  0  0  0  0
   21.6356    3.5481   32.2266 C   0  0  0  0  0  0  0  0  0  0  0  0
   21.0629    4.7163   31.6555 O   0  0  0  0  0  0  0  0  0  0  0  0
   22.9270    3.2731   31.4897 C   0  0  1  0  0  0  0  0  0  0  0  0
   23.7020    2.2572   32.1254 O   0  0  0  0  0  0  0  0  0  0  0  0
   22.6067    2.8018   30.0812 C   0  0  1  0  0  0  0  0  0  0  0  0
   23.4378    3.5342   29.1642 O   0  0  0  0  0  0  0  0  0  0  0  0
   22.9208    1.3110   30.0757 C   0  0  0  0  0  0  0  0  0  0  0  0
   23.8560    1.1195   31.2668 C   0  0  2  0  0  0  0  0  0  0  0  0
   25.0716   -3.6377   32.8236 N   0  0  0  0  0  0  0  0  0  0  0  0
   25.7691   -2.8311   32.0071 C   0  0  2  0  0  0  0  0  0  0  0  0
   26.9470   -3.2885   31.5225 N   0  0  0  0  0  0  0  0  0  0  0  0
   25.3121   -1.5963   31.6875 N   0  0  0  0  0  0  0  0  0  0  0  0
   24.1376   -1.1678   32.1940 C   0  0  2  0  0  0  0  0  0  0  0  0
   23.4088   -1.9841   33.0317 C   0  0  1  0  0  0  0  0  0  0  0  0
   23.8999   -3.2363   33.3491 C   0  0  0  0  0  0  0  0  0  0  0  0
   23.2574   -3.9894   34.1122 O   0  0  0  0  0  0  0  0  0  0  0  0
   22.2870   -1.3261   33.3850 N   0  0  0  0  0  0  0  0  0  0  0  0
   22.3225   -0.1234   32.7847 C   0  0  0  0  0  0  0  0  0  0  0  0
   23.4427   -0.0440   32.0583 N   0  0  1  0  0  0  0  0  0  0  0  0
   18.6962    4.2478   32.3378 O   0  0  0  0  0  0  0  0  0  0  0  0
   20.1823    5.8166   33.6701 O   0  5  0  0  0  0  0  0  0  0  0  0
   19.3956    6.4622   31.3569 O   0  0  0  0  0  0  0  0  0  0  0  0
  1  3  1  6  0  0  0
  1 21  1  0  0  0  0
  1 22  1  0  0  0  0
  1 23  2  0  0  0  0
  2  3  1  0  0  0  0
  4  2  1  1  0  0  0
  4  5  1  0  0  0  0
  4  6  1  0  0  0  0
  6  7  1  6  0  0  0
  6  8  1  0  0  0  0
  8  9  1  0  0  0  0
  9  5  1  1  0  0  0
  9 20  1  0  0  0  0
 10 11  1  0  0  0  0
 10 16  1  0  0  0  0
 11 12  1  1  0  0  0
 11 13  1  0  0  0  0
 14 13  1  6  0  0  0
 14 15  1  0  0  0  0
 14 20  1  0  0  0  0
 15 16  1  1  0  0  0
 15 18  1  0  0  0  0
 16 17  2  0  0  0  0
 18 19  1  0  0  0  0
 20 19  1  1  0  0  0
M  CHG  1  22  -1
M  END
>  <CHROM.1>
-55.40509524,170.02344779,-174.92701018,-130.26692257,22.62012087,1.30904966
32.03641511,2.24148788,0.66100964,-0.53305771

>  <Name>
ligand

>  <RI>
416

>  <Rbt.Current_Directory>
/home/itssahil/PROJECTS/Mol_Feturizer/Test_systems_manuscript/rnas/3slm

>  <Rbt.Executable>
rbdock ($Id: //depot/dev/client3/rdock/2013.1/src/exe/rbdock.cxx#4 $)

>  <Rbt.Library>
libRbt.so (2013.1, Build901 2013/11/27)

>  <Rbt.Parameter_File>
/export/apps/rDock/src/rDock_2013.1_src/data/scripts/dock_solv.prm

>  <Rbt.Receptor>
prm/pocket_docking_6.prm

>  <SCORE>
-22.1379

>  <SCORE.INTER>
-16.58

>  <SCORE.INTER.CONST>
1

>  <SCORE.INTER.POLAR>
0

>  <SCORE.INTER.ROT>
4

>  <SCORE.INTER.SOLV>
19.1047

>  <SCORE.INTER.VDW>
-23.6883

>  <SCORE.INTER.norm>
-0.72087

>  <SCORE.INTRA>
-5.55792

>  <SCORE.INTRA.DIHEDRAL>
-6.87341

>  <SCORE.INTRA.DIHEDRAL.0>
8.62657

>  <SCORE.INTRA.POLAR>
0

>  <SCORE.INTRA.POLAR.0>
0

>  <SCORE.INTRA.REPUL>
0

>  <SCORE.INTRA.REPUL.0>
0

>  <SCORE.INTRA.SOLV>
-0.595185

>  <SCORE.INTRA.SOLV.lig_0>
-66.3641

>  <SCORE.INTRA.VDW>
-1.82362

>  <SCORE.INTRA.VDW.0>
0.452231

>  <SCORE.INTRA.norm>
-0.241649

>  <SCORE.RESTR>
0

>  <SCORE.RESTR.CAVITY>
0

>  <SCORE.RESTR.norm>
0

>  <SCORE.SYSTEM>
0

>  <SCORE.SYSTEM.CONST>
0

>  <SCORE.SYSTEM.DIHEDRAL>
0

>  <SCORE.SYSTEM.SOLV>
0

>  <SCORE.SYSTEM.norm>
0

>  <SCORE.heavy>
23

>  <SCORE.norm>
-0.962519

>  <RMSD>
8.183

$$$$
ligand
 OpenBabel02271912143D
libRbt.so/2013.1/901 2013/11/27
 23 25  0  0  0  0  0  0  0  0999 V2000
   19.7805    5.2911   32.3675 P   0  0  1  0  0  0  0  0  0  0  0  0
   21.6776    3.4907   32.2449 C   0  0  0  0  0  0  0  0  0  0  0  0
   21.0985    4.6639   31.6908 O   0  0  0  0  0  0  0  0  0  0  0  0
   22.9765    3.2403   31.5125 C   0  0  1  0  0  0  0  0  0  0  0  0
   23.7635    2.2314   32.1447 O   0  0  0  0  0  0  0  0  0  0  0  0
   22.6701    2.7746   30.0991 C   0  0  1  0  0  0  0  0  0  0  0  0
   23.4946    3.5260   29.1916 O   0  0  0  0  0  0  0  0  0  0  0  0
   23.0064    1.2887   30.0844 C   0  0  0  0  0  0  0  0  0  0  0  0
   23.9385    1.1024   31.2786 C   0  0  2  0  0  0  0  0  0  0  0  0
   25.1889   -3.6706   32.7575 N   0  0  0  0  0  0  0  0  0  0  0  0
   25.8737   -2.8509   31.9434 C   0  0  2  0  0  0  0  0  0  0  0  0
   27.0472   -3.2977   31.4385 N   0  0  0  0  0  0  0  0  0  0  0  0
   25.4087   -1.6135   31.6457 N   0  0  0  0  0  0  0  0  0  0  0  0
   24.2391   -1.1959   32.1721 C   0  0  2  0  0  0  0  0  0  0  0  0
   23.5233   -2.0257   33.0076 C   0  0  1  0  0  0  0  0  0  0  0  0
   24.0224   -3.2802   33.3024 C   0  0  0  0  0  0  0  0  0  0  0  0
   23.3917   -4.0456   34.0632 O   0  0  0  0  0  0  0  0  0  0  0  0
   22.4036   -1.3764   33.3832 N   0  0  0  0  0  0  0  0  0  0  0  0
   22.4279   -0.1657   32.7985 C   0  0  0  0  0  0  0  0  0  0  0  0
   23.5388   -0.0728   32.0596 N   0  0  1  0  0  0  0  0  0  0  0  0
   18.7471    4.1923   32.4222 O   0  0  0  0  0  0  0  0  0  0  0  0
   20.2570    5.7669   33.7205 O   0  5  0  0  0  0  0  0  0  0  0  0
   19.4220    6.4059   31.4224 O   0  0  0  0  0  0  0  0  0  0  0  0
  1  3  1  6  0  0  0
  1 21  1  0  0  0  0
  1 22  1  0  0  0  0
  1 23  2  0  0  0  0
  2  3  1  0  0  0  0
  4  2  1  1  0  0  0
  4  5  1  0  0  0  0
  4  6  1  0  0  0  0
  6  7  1  6  0  0  0
  6  8  1  0  0  0  0
  8  9  1  0  0  0  0
  9  5  1  1  0  0  0
  9 20  1  0  0  0  0
 10 11  1  0  0  0  0
 10 16  1  0  0  0  0
 11 12  1  1  0  0  0
 11 13  1  0  0  0  0
 14 13  1  6  0  0  0
 14 15  1  0  0  0  0
 14 20  1  0  0  0  0
 15 16  1  1  0  0  0
 15 18  1  0  0  0  0
 16 17  2  0  0  0  0
 18 19  1  0  0  0  0
 20 19  1  1  0  0  0
M  CHG  1  22  -1
M  END
>  <CHROM.1>
-54.80265074,169.31066479,-173.30407895,-131.49394869,22.69897940,1.27173598
32.04309715,2.25442469,0.66395487,-0.53185012

>  <Name>
ligand

>  <RI>
416

>  <Rbt.Current_Directory>
/home/itssahil/PROJECTS/Mol_Feturizer/Test_systems_manuscript/rnas/3slm

>  <Rbt.Executable>
rbdock ($Id: //depot/dev/client3/rdock/2013.1/src/exe/rbdock.cxx#4 $)

>  <Rbt.Library>
libRbt.so (2013.1, Build901 2013/11/27)

>  <Rbt.Parameter_File>
/export/apps/rDock/src/rDock_2013.1_src/data/scripts/dock_solv.prm

>  <Rbt.Receptor>
prm/pocket_docking_6.prm

>  <SCORE>
-22.1058

>  <SCORE.INTER>
-16.6169

>  <SCORE.INTER.CONST>
1

>  <SCORE.INTER.POLAR>
0

>  <SCORE.INTER.ROT>
4

>  <SCORE.INTER.SOLV>
19.5164

>  <SCORE.INTER.VDW>
-23.8501

>  <SCORE.INTER.norm>
-0.722474

>  <SCORE.INTRA>
-5.48886

>  <SCORE.INTRA.DIHEDRAL>
-6.71639

>  <SCORE.INTRA.DIHEDRAL.0>
8.62657

>  <SCORE.INTRA.POLAR>
0

>  <SCORE.INTRA.POLAR.0>
0

>  <SCORE.INTRA.REPUL>
0

>  <SCORE.INTRA.REPUL.0>
0

>  <SCORE.INTRA.SOLV>
-0.600603

>  <SCORE.INTRA.SOLV.lig_0>
-66.3641

>  <SCORE.INTRA.VDW>
-1.83036

>  <SCORE.INTRA.VDW.0>
0.452231

>  <SCORE.INTRA.norm>
-0.238646

>  <SCORE.RESTR>
0

>  <SCORE.RESTR.CAVITY>
0

>  <SCORE.RESTR.norm>
0

>  <SCORE.SYSTEM>
0

>  <SCORE.SYSTEM.CONST>
0

>  <SCORE.SYSTEM.DIHEDRAL>
0

>  <SCORE.SYSTEM.SOLV>
0

>  <SCORE.SYSTEM.norm>
0

>  <SCORE.heavy>
23

>  <SCORE.norm>
-0.96112

>  <RMSD>
8.206

$$$$
ligand
 OpenBabel02271912143D
libRbt.so/2013.1/901 2013/11/27
 23 25  0  0  0  0  0  0  0  0999 V2000
   19.7795    5.2780   32.4717 P   0  0  1  0  0  0  0  0  0  0  0  0
   21.6915    3.4987   32.2880 C   0  0  0  0  0  0  0  0  0  0  0  0
   21.1403    4.7212   31.8185 O   0  0  0  0  0  0  0  0  0  0  0  0
   22.9819    3.2676   31.5344 C   0  0  1  0  0  0  0  0  0  0  0  0
   23.7856    2.2574   32.1431 O   0  0  0  0  0  0  0  0  0  0  0  0
   22.6592    2.8165   30.1198 C   0  0  1  0  0  0  0  0  0  0  0  0
   23.4649    3.5854   29.2101 O   0  0  0  0  0  0  0  0  0  0  0  0
   23.0069    1.3336   30.0823 C   0  0  0  0  0  0  0  0  0  0  0  0
   23.9572    1.1404   31.2610 C   0  0  2  0  0  0  0  0  0  0  0  0
   25.2794   -3.6293   32.6872 N   0  0  0  0  0  0  0  0  0  0  0  0
   25.9484   -2.7929   31.8769 C   0  0  2  0  0  0  0  0  0  0  0  0
   27.1247   -3.2193   31.3609 N   0  0  0  0  0  0  0  0  0  0  0  0
   25.4654   -1.5591   31.5937 N   0  0  0  0  0  0  0  0  0  0  0  0
   24.2935   -1.1620   32.1309 C   0  0  2  0  0  0  0  0  0  0  0  0
   23.5938   -2.0091   32.9627 C   0  0  1  0  0  0  0  0  0  0  0  0
   24.1112   -3.2595   33.2427 C   0  0  0  0  0  0  0  0  0  0  0  0
   23.4953   -4.0403   33.9999 O   0  0  0  0  0  0  0  0  0  0  0  0
   22.4679   -1.3782   33.3510 N   0  0  0  0  0  0  0  0  0  0  0  0
   22.4726   -0.1619   32.7776 C   0  0  0  0  0  0  0  0  0  0  0  0
   23.5778   -0.0473   32.0332 N   0  0  1  0  0  0  0  0  0  0  0  0
   20.0168    5.3888   33.9582 O   0  0  0  0  0  0  0  0  0  0  0  0
   19.5560    6.6008   31.7756 O   0  5  0  0  0  0  0  0  0  0  0  0
   18.7771    4.2187   32.1010 O   0  0  0  0  0  0  0  0  0  0  0  0
  1  3  1  6  0  0  0
  1 21  1  0  0  0  0
  1 22  1  0  0  0  0
  1 23  2  0  0  0  0
  2  3  1  0  0  0  0
  4  2  1  1  0  0  0
  4  5  1  0  0  0  0
  4  6  1  0  0  0  0
  6  7  1  6  0  0  0
  6  8  1  0  0  0  0
  8  9  1  0  0  0  0
  9  5  1  1  0  0  0
  9 20  1  0  0  0  0
 10 11  1  0  0  0  0
 10 16  1  0  0  0  0
 11 12  1  1  0  0  0
 11 13  1  0  0  0  0
 14 13  1  6  0  0  0
 14 15  1  0  0  0  0
 14 20  1  0  0  0  0
 15 16  1  1  0  0  0
 15 18  1  0  0  0  0
 16 17  2  0  0  0  0
 18 19  1  0  0  0  0
 20 19  1  1  0  0  0
M  CHG  1  22  -1
M  END
>  <CHROM.1>
55.88585607,165.50686858,-177.71531285,-130.91459471,22.72816233,1.28924810
32.05287089,2.27561874,0.67204354,-0.53449703

>  <Name>
ligand

>  <RI>
416

>  <Rbt.Current_Directory>
/home/itssahil/PROJECTS/Mol_Feturizer/Test_systems_manuscript/rnas/3slm

>  <Rbt.Executable>
rbdock ($Id: //depot/dev/client3/rdock/2013.1/src/exe/rbdock.cxx#4 $)

>  <Rbt.Library>
libRbt.so (2013.1, Build901 2013/11/27)

>  <Rbt.Parameter_File>
/export/apps/rDock/src/rDock_2013.1_src/data/scripts/dock_solv.prm

>  <Rbt.Receptor>
prm/pocket_docking_6.prm

>  <SCORE>
-22.2952

>  <SCORE.INTER>
-16.8803

>  <SCORE.INTER.CONST>
1

>  <SCORE.INTER.POLAR>
0

>  <SCORE.INTER.ROT>
4

>  <SCORE.INTER.SOLV>
19.6204

>  <SCORE.INTER.VDW>
-24.0603

>  <SCORE.INTER.norm>
-0.733927

>  <SCORE.INTRA>
-5.41485

>  <SCORE.INTRA.DIHEDRAL>
-6.62268

>  <SCORE.INTRA.DIHEDRAL.0>
8.62657

>  <SCORE.INTRA.POLAR>
0

>  <SCORE.INTRA.POLAR.0>
0

>  <SCORE.INTRA.REPUL>
0

>  <SCORE.INTRA.REPUL.0>
0

>  <SCORE.INTRA.SOLV>
-0.555092

>  <SCORE.INTRA.SOLV.lig_0>
-66.3641

>  <SCORE.INTRA.VDW>
-1.82596

>  <SCORE.INTRA.VDW.0>
0.452231

>  <SCORE.INTRA.norm>
-0.235428

>  <SCORE.RESTR>
0

>  <SCORE.RESTR.CAVITY>
0

>  <SCORE.RESTR.norm>
0

>  <SCORE.SYSTEM>
0

>  <SCORE.SYSTEM.CONST>
0

>  <SCORE.SYSTEM.DIHEDRAL>
0

>  <SCORE.SYSTEM.SOLV>
0

>  <SCORE.SYSTEM.norm>
0

>  <SCORE.heavy>
23

>  <SCORE.norm>
-0.969355

>  <RMSD>
8.206

$$$$
ligand
 OpenBabel02271912143D
libRbt.so/2013.1/901 2013/11/27
 23 25  0  0  0  0  0  0  0  0999 V2000
   19.7835    5.3099   32.4535 P   0  0  1  0  0  0  0  0  0  0  0  0
   21.6548    3.4911   32.2402 C   0  0  0  0  0  0  0  0  0  0  0  0
   21.1169    4.7204   31.7731 O   0  0  0  0  0  0  0  0  0  0  0  0
   22.9609    3.2654   31.5124 C   0  0  1  0  0  0  0  0  0  0  0  0
   23.7602    2.2644   32.1418 O   0  0  0  0  0  0  0  0  0  0  0  0
   22.6684    2.8044   30.0945 C   0  0  1  0  0  0  0  0  0  0  0  0
   23.4857    3.5744   29.1960 O   0  0  0  0  0  0  0  0  0  0  0  0
   23.0274    1.3240   30.0717 C   0  0  0  0  0  0  0  0  0  0  0  0
   23.9566    1.1440   31.2692 C   0  0  2  0  0  0  0  0  0  0  0  0
   25.2666   -3.6239   32.7124 N   0  0  0  0  0  0  0  0  0  0  0  0
   25.9418   -2.7891   31.9056 C   0  0  2  0  0  0  0  0  0  0  0  0
   27.1215   -3.2168   31.3987 N   0  0  0  0  0  0  0  0  0  0  0  0
   25.4613   -1.5555   31.6169 N   0  0  0  0  0  0  0  0  0  0  0  0
   24.2857   -1.1571   32.1451 C   0  0  2  0  0  0  0  0  0  0  0  0
   23.5797   -2.0027   32.9732 C   0  0  1  0  0  0  0  0  0  0  0  0
   24.0946   -3.2529   33.2589 C   0  0  0  0  0  0  0  0  0  0  0  0
   23.4729   -4.0322   34.0129 O   0  0  0  0  0  0  0  0  0  0  0  0
   22.4513   -1.3707   33.3524 N   0  0  0  0  0  0  0  0  0  0  0  0
   22.4606   -0.1553   32.7772 C   0  0  0  0  0  0  0  0  0  0  0  0
   23.5711   -0.0424   32.0405 N   0  0  1  0  0  0  0  0  0  0  0  0
   20.0541    5.4166   33.9345 O   0  0  0  0  0  0  0  0  0  0  0  0
   19.5769    6.6368   31.7600 O   0  5  0  0  0  0  0  0  0  0  0  0
   18.7489    4.2742   32.1052 O   0  0  0  0  0  0  0  0  0  0  0  0
  1  3  1  6  0  0  0
  1 21  1  0  0  0  0
  1 22  1  0  0  0  0
  1 23  2  0  0  0  0
  2  3  1  0  0  0  0
  4  2  1  1  0  0  0
  4  5  1  0  0  0  0
  4  6  1  0  0  0  0
  6  7  1  6  0  0  0
  6  8  1  0  0  0  0
  8  9  1  0  0  0  0
  9  5  1  1  0  0  0
  9 20  1  0  0  0  0
 10 11  1  0  0  0  0
 10 16  1  0  0  0  0
 11 12  1  1  0  0  0
 11 13  1  0  0  0  0
 14 13  1  6  0  0  0
 14 15  1  0  0  0  0
 14 20  1  0  0  0  0
 15 16  1  1  0  0  0
 15 18  1  0  0  0  0
 16 17  2  0  0  0  0
 18 19  1  0  0  0  0
 20 19  1  1  0  0  0
M  CHG  1  22  -1
M  END
>  <CHROM.1>
55.38445047,164.36696841,-174.67195952,-131.74841020,22.72261070,1.29878594
32.04975820,2.27235047,0.67180602,-0.53653398

>  <Name>
ligand

>  <RI>
416

>  <Rbt.Current_Directory>
/home/itssahil/PROJECTS/Mol_Feturizer/Test_systems_manuscript/rnas/3slm

>  <Rbt.Executable>
rbdock ($Id: //depot/dev/client3/rdock/2013.1/src/exe/rbdock.cxx#4 $)

>  <Rbt.Library>
libRbt.so (2013.1, Build901 2013/11/27)

>  <Rbt.Parameter_File>
/export/apps/rDock/src/rDock_2013.1_src/data/scripts/dock_solv.prm

>  <Rbt.Receptor>
prm/pocket_docking_6.prm

>  <SCORE>
-22.3236

>  <SCORE.INTER>
-16.9908

>  <SCORE.INTER.CONST>
1

>  <SCORE.INTER.POLAR>
0

>  <SCORE.INTER.ROT>
4

>  <SCORE.INTER.SOLV>
19.5203

>  <SCORE.INTER.VDW>
-24.1007

>  <SCORE.INTER.norm>
-0.738731

>  <SCORE.INTRA>
-5.33274

>  <SCORE.INTRA.DIHEDRAL>
-6.38931

>  <SCORE.INTRA.DIHEDRAL.0>
8.62657

>  <SCORE.INTRA.POLAR>
0

>  <SCORE.INTRA.POLAR.0>
0

>  <SCORE.INTRA.REPUL>
0

>  <SCORE.INTRA.REPUL.0>
0

>  <SCORE.INTRA.SOLV>
-0.6131

>  <SCORE.INTRA.SOLV.lig_0>
-66.3641

>  <SCORE.INTRA.VDW>
-1.83153

>  <SCORE.INTRA.VDW.0>
0.452231

>  <SCORE.INTRA.norm>
-0.231858

>  <SCORE.RESTR>
0

>  <SCORE.RESTR.CAVITY>
0

>  <SCORE.RESTR.norm>
0

>  <SCORE.SYSTEM>
0

>  <SCORE.SYSTEM.CONST>
0

>  <SCORE.SYSTEM.DIHEDRAL>
0

>  <SCORE.SYSTEM.SOLV>
0

>  <SCORE.SYSTEM.norm>
0

>  <SCORE.heavy>
23

>  <SCORE.norm>
-0.97059

>  <RMSD>
8.211

$$$$
ligand
 OpenBabel02271912143D
libRbt.so/2013.1/901 2013/11/27
 23 25  0  0  0  0  0  0  0  0999 V2000
   19.7332    4.9882   32.5883 P   0  0  1  0  0  0  0  0  0  0  0  0
   21.5599    3.5968   31.3303 C   0  0  0  0  0  0  0  0  0  0  0  0
   21.1633    4.2538   32.5261 O   0  0  0  0  0  0  0  0  0  0  0  0
   22.9787    3.1138   31.5309 C   0  0  1  0  0  0  0  0  0  0  0  0
   23.0752    2.1526   32.5814 O   0  0  0  0  0  0  0  0  0  0  0  0
   23.4670    2.4560   30.2513 C   0  0  1  0  0  0  0  0  0  0  0  0
   24.7757    2.9726   29.9537 O   0  0  0  0  0  0  0  0  0  0  0  0
   23.4938    0.9628   30.5527 C   0  0  0  0  0  0  0  0  0  0  0  0
   23.5224    0.8874   32.0769 C   0  0  2  0  0  0  0  0  0  0  0  0
   22.8671   -3.7550   34.2101 N   0  0  0  0  0  0  0  0  0  0  0  0
   24.0206   -3.1537   33.8760 C   0  0  2  0  0  0  0  0  0  0  0  0
   25.1739   -3.8164   34.1256 N   0  0  0  0  0  0  0  0  0  0  0  0
   24.0286   -1.9198   33.3163 N   0  0  0  0  0  0  0  0  0  0  0  0
   22.8614   -1.2832   33.0879 C   0  0  2  0  0  0  0  0  0  0  0  0
   21.6691   -1.8875   33.4231 C   0  0  1  0  0  0  0  0  0  0  0  0
   21.6875   -3.1431   34.0001 C   0  0  0  0  0  0  0  0  0  0  0  0
   20.6173   -3.7056   34.3175 O   0  0  0  0  0  0  0  0  0  0  0  0
   20.6672   -1.0511   33.0868 N   0  0  0  0  0  0  0  0  0  0  0  0
   21.2269    0.0525   32.5604 C   0  0  0  0  0  0  0  0  0  0  0  0
   22.5551   -0.1049   32.5570 N   0  0  1  0  0  0  0  0  0  0  0  0
   19.5371    5.4524   34.0111 O   0  0  0  0  0  0  0  0  0  0  0  0
   19.8537    6.1063   31.5786 O   0  5  0  0  0  0  0  0  0  0  0  0
   18.7827    3.8967   32.1765 O   0  0  0  0  0  0  0  0  0  0  0  0
  1  3  1  6  0  0  0
  1 21  1  0  0  0  0
  1 22  1  0  0  0  0
  1 23  2  0  0  0  0
  2  3  1  0  0  0  0
  4  2  1  6  0  0  0
  4  5  1  0  0  0  0
  4  6  1  0  0  0  0
  6  7  1  1  0  0  0
  6  8  1  0  0  0  0
  8  9  1  0  0  0  0
  9  5  1  1  0  0  0
  9 20  1  0  0  0  0
 10 11  1  0  0  0  0
 10 16  1  0  0  0  0
 11 12  1  1  0  0  0
 11 13  1  0  0  0  0
 14 13  1  6  0  0  0
 14 15  1  0  0  0  0
 14 20  1  0  0  0  0
 15 16  1  1  0  0  0
 15 18  1  0  0  0  0
 16 17  2  0  0  0  0
 18 19  1  0  0  0  0
 20 19  1  1  0  0  0
M  CHG  1  22  -1
M  END
>  <CHROM.1>
173.92377470,63.02086726,175.12900436,-135.02239842,21.96717341,1.11228900
32.57797602,1.91802121,0.46881482,-0.36417873

>  <Name>
ligand

>  <RI>
0

>  <Rbt.Current_Directory>
/home/itssahil/PROJECTS/Mol_Feturizer/Test_systems_manuscript/rnas/3slm

>  <Rbt.Executable>
rbdock ($Id: //depot/dev/client3/rdock/2013.1/src/exe/rbdock.cxx#4 $)

>  <Rbt.Library>
libRbt.so (2013.1, Build901 2013/11/27)

>  <Rbt.Parameter_File>
/export/apps/rDock/src/rDock_2013.1_src/data/scripts/dock_solv.prm

>  <Rbt.Receptor>
prm/pocket_docking_8.prm

>  <SCORE>
-26.1782

>  <SCORE.INTER>
-20.7043

>  <SCORE.INTER.CONST>
1

>  <SCORE.INTER.POLAR>
0

>  <SCORE.INTER.ROT>
4

>  <SCORE.INTER.SOLV>
21.7442

>  <SCORE.INTER.VDW>
-27.3176

>  <SCORE.INTER.norm>
-0.900185

>  <SCORE.INTRA>
-5.47627

>  <SCORE.INTRA.DIHEDRAL>
-7.18155

>  <SCORE.INTRA.DIHEDRAL.0>
8.62657

>  <SCORE.INTRA.POLAR>
0

>  <SCORE.INTRA.POLAR.0>
0

>  <SCORE.INTRA.REPUL>
0

>  <SCORE.INTRA.REPUL.0>
0

>  <SCORE.INTRA.SOLV>
-0.0479683

>  <SCORE.INTRA.SOLV.lig_0>
-66.3641

>  <SCORE.INTRA.VDW>
-1.86151

>  <SCORE.INTRA.VDW.0>
0.452231

>  <SCORE.INTRA.norm>
-0.238099

>  <SCORE.RESTR>
0.00229283

>  <SCORE.RESTR.CAVITY>
0.00229283

>  <SCORE.RESTR.norm>
9.96883e-05

>  <SCORE.SYSTEM>
0

>  <SCORE.SYSTEM.CONST>
0

>  <SCORE.SYSTEM.DIHEDRAL>
0

>  <SCORE.SYSTEM.SOLV>
0

>  <SCORE.SYSTEM.norm>
0

>  <SCORE.heavy>
23

>  <SCORE.norm>
-1.13818

>  <RMSD>
8.211

$$$$
ligand
 OpenBabel02271912143D
libRbt.so/2013.1/901 2013/11/27
 23 25  0  0  0  0  0  0  0  0999 V2000
   19.8150    5.0746   32.6237 P   0  0  1  0  0  0  0  0  0  0  0  0
   21.5756    3.6172   31.3463 C   0  0  0  0  0  0  0  0  0  0  0  0
   21.2339    4.3219   32.5319 O   0  0  0  0  0  0  0  0  0  0  0  0
   22.9920    3.1147   31.5132 C   0  0  1  0  0  0  0  0  0  0  0  0
   23.0999    2.1510   32.5603 O   0  0  0  0  0  0  0  0  0  0  0  0
   23.4412    2.4519   30.2220 C   0  0  1  0  0  0  0  0  0  0  0  0
   24.7495    2.9509   29.8943 O   0  0  0  0  0  0  0  0  0  0  0  0
   23.4547    0.9581   30.5213 C   0  0  0  0  0  0  0  0  0  0  0  0
   23.5179    0.8804   32.0443 C   0  0  2  0  0  0  0  0  0  0  0  0
   22.8516   -3.7357   34.2305 N   0  0  0  0  0  0  0  0  0  0  0  0
   24.0056   -3.1471   33.8763 C   0  0  2  0  0  0  0  0  0  0  0  0
   25.1565   -3.8169   34.1180 N   0  0  0  0  0  0  0  0  0  0  0  0
   24.0167   -1.9188   33.3045 N   0  0  0  0  0  0  0  0  0  0  0  0
   22.8519   -1.2748   33.0846 C   0  0  2  0  0  0  0  0  0  0  0  0
   21.6590   -1.8660   33.4404 C   0  0  1  0  0  0  0  0  0  0  0  0
   21.6745   -3.1161   34.0293 C   0  0  0  0  0  0  0  0  0  0  0  0
   20.6038   -3.6666   34.3654 O   0  0  0  0  0  0  0  0  0  0  0  0
   20.6599   -1.0246   33.1085 N   0  0  0  0  0  0  0  0  0  0  0  0
   21.2219    0.0693   32.5645 C   0  0  0  0  0  0  0  0  0  0  0  0
   22.5486   -0.0992   32.5461 N   0  0  1  0  0  0  0  0  0  0  0  0
   19.6738    5.5788   34.0393 O   0  0  0  0  0  0  0  0  0  0  0  0
   19.9125    6.1639   31.5806 O   0  5  0  0  0  0  0  0  0  0  0  0
   18.8388    3.9840   32.2746 O   0  0  0  0  0  0  0  0  0  0  0  0
  1  3  1  6  0  0  0
  1 21  1  0  0  0  0
  1 22  1  0  0  0  0
  1 23  2  0  0  0  0
  2  3  1  0  0  0  0
  4  2  1  6  0  0  0
  4  5  1  0  0  0  0
  4  6  1  0  0  0  0
  6  7  1  1  0  0  0
  6  8  1  0  0  0  0
  8  9  1  0  0  0  0
  9  5  1  1  0  0  0
  9 20  1  0  0  0  0
 10 11  1  0  0  0  0
 10 16  1  0  0  0  0
 11 12  1  1  0  0  0
 11 13  1  0  0  0  0
 14 13  1  6  0  0  0
 14 15  1  0  0  0  0
 14 20  1  0  0  0  0
 15 16  1  1  0  0  0
 15 18  1  0  0  0  0
 16 17  2  0  0  0  0
 18 19  1  0  0  0  0
 20 19  1  1  0  0  0
M  CHG  1  22  -1
M  END
>  <CHROM.1>
173.28423301,65.18736168,175.63247851,-134.09152026,21.98318492,1.14208537
32.58445591,1.90969343,0.49441797,-0.36464937

>  <Name>
ligand

>  <RI>
0

>  <Rbt.Current_Directory>
/home/itssahil/PROJECTS/Mol_Feturizer/Test_systems_manuscript/rnas/3slm

>  <Rbt.Executable>
rbdock ($Id: //depot/dev/client3/rdock/2013.1/src/exe/rbdock.cxx#4 $)

>  <Rbt.Library>
libRbt.so (2013.1, Build901 2013/11/27)

>  <Rbt.Parameter_File>
/export/apps/rDock/src/rDock_2013.1_src/data/scripts/dock_solv.prm

>  <Rbt.Receptor>
prm/pocket_docking_7.prm

>  <SCORE>
-26.1678

>  <SCORE.INTER>
-20.7465

>  <SCORE.INTER.CONST>
1

>  <SCORE.INTER.POLAR>
0

>  <SCORE.INTER.ROT>
4

>  <SCORE.INTER.SOLV>
21.5093

>  <SCORE.INTER.VDW>
-27.2675

>  <SCORE.INTER.norm>
-0.902024

>  <SCORE.INTRA>
-5.4311

>  <SCORE.INTRA.DIHEDRAL>
-7.1299

>  <SCORE.INTRA.DIHEDRAL.0>
8.62657

>  <SCORE.INTRA.POLAR>
0

>  <SCORE.INTRA.POLAR.0>
0

>  <SCORE.INTRA.REPUL>
0

>  <SCORE.INTRA.REPUL.0>
0

>  <SCORE.INTRA.SOLV>
-0.0561992

>  <SCORE.INTRA.SOLV.lig_0>
-66.3641

>  <SCORE.INTRA.VDW>
-1.83806

>  <SCORE.INTRA.VDW.0>
0.452231

>  <SCORE.INTRA.norm>
-0.236135

>  <SCORE.RESTR>
0.00986905

>  <SCORE.RESTR.CAVITY>
0.00986905

>  <SCORE.RESTR.norm>
0.000429089

>  <SCORE.SYSTEM>
0

>  <SCORE.SYSTEM.CONST>
0

>  <SCORE.SYSTEM.DIHEDRAL>
0

>  <SCORE.SYSTEM.SOLV>
0

>  <SCORE.SYSTEM.norm>
0

>  <SCORE.heavy>
23

>  <SCORE.norm>
-1.13773

>  <RMSD>
8.214

$$$$
ligand
 OpenBabel02271912143D
libRbt.so/2013.1/901 2013/11/27
 23 25  0  0  0  0  0  0  0  0999 V2000
   19.7497    5.0083   32.6057 P   0  0  1  0  0  0  0  0  0  0  0  0
   21.5458    3.5833   31.3413 C   0  0  0  0  0  0  0  0  0  0  0  0
   21.1680    4.2520   32.5367 O   0  0  0  0  0  0  0  0  0  0  0  0
   22.9687    3.1049   31.5231 C   0  0  1  0  0  0  0  0  0  0  0  0
   23.0820    2.1433   32.5715 O   0  0  0  0  0  0  0  0  0  0  0  0
   23.4425    2.4496   30.2368 C   0  0  1  0  0  0  0  0  0  0  0  0
   24.7454    2.9708   29.9225 O   0  0  0  0  0  0  0  0  0  0  0  0
   23.4783    0.9563   30.5367 C   0  0  0  0  0  0  0  0  0  0  0  0
   23.5269    0.8800   32.0603 C   0  0  2  0  0  0  0  0  0  0  0  0
   22.9147   -3.7690   34.1921 N   0  0  0  0  0  0  0  0  0  0  0  0
   24.0616   -3.1639   33.8425 C   0  0  2  0  0  0  0  0  0  0  0  0
   25.2201   -3.8242   34.0737 N   0  0  0  0  0  0  0  0  0  0  0  0
   24.0583   -1.9287   33.2856 N   0  0  0  0  0  0  0  0  0  0  0  0
   22.8863   -1.2946   33.0759 C   0  0  2  0  0  0  0  0  0  0  0  0
   21.7005   -1.9027   33.4272 C   0  0  1  0  0  0  0  0  0  0  0  0
   21.7306   -3.1596   34.0009 C   0  0  0  0  0  0  0  0  0  0  0  0
   20.6666   -3.7255   34.3326 O   0  0  0  0  0  0  0  0  0  0  0  0
   20.6918   -1.0681   33.1076 N   0  0  0  0  0  0  0  0  0  0  0  0
   21.2409    0.0381   32.5756 C   0  0  0  0  0  0  0  0  0  0  0  0
   22.5692   -0.1159   32.5523 N   0  0  1  0  0  0  0  0  0  0  0  0
   19.5669    5.4740   34.0297 O   0  0  0  0  0  0  0  0  0  0  0  0
   19.8832    6.1254   31.5965 O   0  5  0  0  0  0  0  0  0  0  0  0
   18.7807    3.9321   32.1968 O   0  0  0  0  0  0  0  0  0  0  0  0
  1  3  1  6  0  0  0
  1 21  1  0  0  0  0
  1 22  1  0  0  0  0
  1 23  2  0  0  0  0
  2  3  1  0  0  0  0
  4  2  1  6  0  0  0
  4  5  1  0  0  0  0
  4  6  1  0  0  0  0
  6  7  1  1  0  0  0
  6  8  1  0  0  0  0
  8  9  1  0  0  0  0
  9  5  1  1  0  0  0
  9 20  1  0  0  0  0
 10 11  1  0  0  0  0
 10 16  1  0  0  0  0
 11 12  1  1  0  0  0
 11 13  1  0  0  0  0
 14 13  1  6  0  0  0
 14 15  1  0  0  0  0
 14 20  1  0  0  0  0
 15 16  1  1  0  0  0
 15 18  1  0  0  0  0
 16 17  2  0  0  0  0
 18 19  1  0  0  0  0
 20 19  1  1  0  0  0
M  CHG  1  22  -1
M  END
>  <CHROM.1>
173.54238077,63.69829394,173.96957905,-135.16251699,21.98257291,1.10965013
32.57542777,1.92355552,0.48010868,-0.36587900

>  <Name>
ligand

>  <RI>
0

>  <Rbt.Current_Directory>
/home/itssahil/PROJECTS/Mol_Feturizer/Test_systems_manuscript/rnas/3slm

>  <Rbt.Executable>
rbdock ($Id: //depot/dev/client3/rdock/2013.1/src/exe/rbdock.cxx#4 $)

>  <Rbt.Library>
libRbt.so (2013.1, Build901 2013/11/27)

>  <Rbt.Parameter_File>
/export/apps/rDock/src/rDock_2013.1_src/data/scripts/dock_solv.prm

>  <Rbt.Receptor>
prm/pocket_docking_8.prm

>  <SCORE>
-26.1954

>  <SCORE.INTER>
-20.7795

>  <SCORE.INTER.CONST>
1

>  <SCORE.INTER.POLAR>
0

>  <SCORE.INTER.ROT>
4

>  <SCORE.INTER.SOLV>
21.6637

>  <SCORE.INTER.VDW>
-27.3409

>  <SCORE.INTER.norm>
-0.903455

>  <SCORE.INTRA>
-5.4298

>  <SCORE.INTRA.DIHEDRAL>
-7.09615

>  <SCORE.INTRA.DIHEDRAL.0>
8.62657

>  <SCORE.INTRA.POLAR>
0

>  <SCORE.INTRA.POLAR.0>
0

>  <SCORE.INTRA.REPUL>
0

>  <SCORE.INTRA.REPUL.0>
0

>  <SCORE.INTRA.SOLV>
-0.0521384

>  <SCORE.INTRA.SOLV.lig_0>
-66.3641

>  <SCORE.INTRA.VDW>
-1.85565

>  <SCORE.INTRA.VDW.0>
0.452231

>  <SCORE.INTRA.norm>
-0.236078

>  <SCORE.RESTR>
0.013865

>  <SCORE.RESTR.CAVITY>
0.013865

>  <SCORE.RESTR.norm>
0.000602825

>  <SCORE.SYSTEM>
0

>  <SCORE.SYSTEM.CONST>
0

>  <SCORE.SYSTEM.DIHEDRAL>
0

>  <SCORE.SYSTEM.SOLV>
0

>  <SCORE.SYSTEM.norm>
0

>  <SCORE.heavy>
23

>  <SCORE.norm>
-1.13893

>  <RMSD>
8.217

$$$$
ligand
 OpenBabel02271912143D
libRbt.so/2013.1/901 2013/11/27
 23 25  0  0  0  0  0  0  0  0999 V2000
   19.7802    5.3073   32.4256 P   0  0  1  0  0  0  0  0  0  0  0  0
   21.6937    3.5259   32.2836 C   0  0  0  0  0  0  0  0  0  0  0  0
   21.0875    4.6834   31.7256 O   0  0  0  0  0  0  0  0  0  0  0  0
   22.9774    3.2788   31.5237 C   0  0  1  0  0  0  0  0  0  0  0  0
   23.7837    2.2772   32.1430 O   0  0  0  0  0  0  0  0  0  0  0  0
   22.6422    2.8046   30.1197 C   0  0  1  0  0  0  0  0  0  0  0  0
   23.4423    3.5559   29.1905 O   0  0  0  0  0  0  0  0  0  0  0  0
   22.9862    1.3204   30.1046 C   0  0  0  0  0  0  0  0  0  0  0  0
   23.9456    1.1450   31.2787 C   0  0  2  0  0  0  0  0  0  0  0  0
   25.2474   -3.6194   32.7409 N   0  0  0  0  0  0  0  0  0  0  0  0
   25.9084   -2.8008   31.9062 C   0  0  2  0  0  0  0  0  0  0  0  0
   27.0695   -3.2462   31.3724 N   0  0  0  0  0  0  0  0  0  0  0  0
   25.4324   -1.5657   31.6165 N   0  0  0  0  0  0  0  0  0  0  0  0
   24.2758   -1.1493   32.1719 C   0  0  2  0  0  0  0  0  0  0  0  0
   23.5844   -1.9781   33.0289 C   0  0  1  0  0  0  0  0  0  0  0  0
   24.0945   -3.2302   33.3148 C   0  0  0  0  0  0  0  0  0  0  0  0
   23.4861   -3.9945   34.0946 O   0  0  0  0  0  0  0  0  0  0  0  0
   22.4732   -1.3304   33.4314 N   0  0  0  0  0  0  0  0  0  0  0  0
   22.4788   -0.1218   32.8420 C   0  0  0  0  0  0  0  0  0  0  0  0
   23.5697   -0.0286   32.0739 N   0  0  1  0  0  0  0  0  0  0  0  0
   18.7341    4.2197   32.4553 O   0  0  0  0  0  0  0  0  0  0  0  0
   20.2685    5.7403   33.7887 O   0  5  0  0  0  0  0  0  0  0  0  0
   19.4307    6.4517   31.5131 O   0  0  0  0  0  0  0  0  0  0  0  0
  1  3  1  6  0  0  0
  1 21  1  0  0  0  0
  1 22  1  0  0  0  0
  1 23  2  0  0  0  0
  2  3  1  0  0  0  0
  4  2  1  1  0  0  0
  4  5  1  0  0  0  0
  4  6  1  0  0  0  0
  6  7  1  6  0  0  0
  6  8  1  0  0  0  0
  8  9  1  0  0  0  0
  9  5  1  1  0  0  0
  9 20  1  0  0  0  0
 10 11  1  0  0  0  0
 10 16  1  0  0  0  0
 11 12  1  1  0  0  0
 11 13  1  0  0  0  0
 14 13  1  6  0  0  0
 14 15  1  0  0  0  0
 14 20  1  0  0  0  0
 15 16  1  1  0  0  0
 15 18  1  0  0  0  0
 16 17  2  0  0  0  0
 18 19  1  0  0  0  0
 20 19  1  1  0  0  0
M  CHG  1  22  -1
M  END
>  <CHROM.1>
-57.87458511,170.04342651,-173.21424429,-131.77799511,22.71823560,1.30761194
32.06342778,2.27457950,0.67867927,-0.54884064

>  <Name>
ligand

>  <RI>
0

>  <Rbt.Current_Directory>
/home/itssahil/PROJECTS/Mol_Feturizer/Test_systems_manuscript/rnas/3slm

>  <Rbt.Executable>
rbdock ($Id: //depot/dev/client3/rdock/2013.1/src/exe/rbdock.cxx#4 $)

>  <Rbt.Library>
libRbt.so (2013.1, Build901 2013/11/27)

>  <Rbt.Parameter_File>
/export/apps/rDock/src/rDock_2013.1_src/data/scripts/dock_solv.prm

>  <Rbt.Receptor>
prm/pocket_docking_7.prm

>  <SCORE>
-22.1058

>  <SCORE.INTER>
-16.5934

>  <SCORE.INTER.CONST>
1

>  <SCORE.INTER.POLAR>
0

>  <SCORE.INTER.ROT>
4

>  <SCORE.INTER.SOLV>
19.8238

>  <SCORE.INTER.VDW>
-23.9368

>  <SCORE.INTER.norm>
-0.72145

>  <SCORE.INTRA>
-5.51242

>  <SCORE.INTRA.DIHEDRAL>
-6.80378

>  <SCORE.INTRA.DIHEDRAL.0>
8.62657

>  <SCORE.INTRA.POLAR>
0

>  <SCORE.INTRA.POLAR.0>
0

>  <SCORE.INTRA.REPUL>
0

>  <SCORE.INTRA.REPUL.0>
0

>  <SCORE.INTRA.SOLV>
-0.573996

>  <SCORE.INTRA.SOLV.lig_0>
-66.3641

>  <SCORE.INTRA.VDW>
-1.82353

>  <SCORE.INTRA.VDW.0>
0.452231

>  <SCORE.INTRA.norm>
-0.23967

>  <SCORE.RESTR>
0

>  <SCORE.RESTR.CAVITY>
0

>  <SCORE.RESTR.norm>
0

>  <SCORE.SYSTEM>
0

>  <SCORE.SYSTEM.CONST>
0

>  <SCORE.SYSTEM.DIHEDRAL>
0

>  <SCORE.SYSTEM.SOLV>
0

>  <SCORE.SYSTEM.norm>
0

>  <SCORE.heavy>
23

>  <SCORE.norm>
-0.96112

>  <RMSD>
8.218

$$$$
ligand
 OpenBabel02271912143D
libRbt.so/2013.1/901 2013/11/27
 23 25  0  0  0  0  0  0  0  0999 V2000
   19.7754    5.2670   32.4216 P   0  0  1  0  0  0  0  0  0  0  0  0
   21.6717    3.4685   32.2644 C   0  0  0  0  0  0  0  0  0  0  0  0
   21.1052    4.6640   31.7460 O   0  0  0  0  0  0  0  0  0  0  0  0
   22.9673    3.2258   31.5234 C   0  0  1  0  0  0  0  0  0  0  0  0
   23.7625    2.2186   32.1481 O   0  0  0  0  0  0  0  0  0  0  0  0
   22.6543    2.7625   30.1106 C   0  0  1  0  0  0  0  0  0  0  0  0
   23.4701    3.5200   29.2002 O   0  0  0  0  0  0  0  0  0  0  0  0
   22.9970    1.2782   30.0898 C   0  0  0  0  0  0  0  0  0  0  0  0
   23.9371    1.0927   31.2779 C   0  0  2  0  0  0  0  0  0  0  0  0
   25.2351   -3.6644   32.7668 N   0  0  0  0  0  0  0  0  0  0  0  0
   25.9143   -2.8376   31.9552 C   0  0  2  0  0  0  0  0  0  0  0  0
   27.0951   -3.2714   31.4562 N   0  0  0  0  0  0  0  0  0  0  0  0
   25.4366   -1.6059   31.6542 N   0  0  0  0  0  0  0  0  0  0  0  0
   24.2597   -1.2012   32.1748 C   0  0  2  0  0  0  0  0  0  0  0  0
   23.5496   -2.0385   33.0077 C   0  0  1  0  0  0  0  0  0  0  0  0
   24.0617   -3.2870   33.3060 C   0  0  0  0  0  0  0  0  0  0  0  0
   23.4362   -4.0589   34.0645 O   0  0  0  0  0  0  0  0  0  0  0  0
   22.4208   -1.4017   33.3775 N   0  0  0  0  0  0  0  0  0  0  0  0
   22.4340   -0.1913   32.7918 C   0  0  0  0  0  0  0  0  0  0  0  0
   23.5472   -0.0864   32.0580 N   0  0  1  0  0  0  0  0  0  0  0  0
   18.7103    4.2019   32.3267 O   0  0  0  0  0  0  0  0  0  0  0  0
   20.2022    5.5982   33.8332 O   0  5  0  0  0  0  0  0  0  0  0  0
   19.4924    6.4766   31.5724 O   0  0  0  0  0  0  0  0  0  0  0  0
  1  3  1  6  0  0  0
  1 21  1  0  0  0  0
  1 22  1  0  0  0  0
  1 23  2  0  0  0  0
  2  3  1  0  0  0  0
  4  2  1  1  0  0  0
  4  5  1  0  0  0  0
  4  6  1  0  0  0  0
  6  7  1  6  0  0  0
  6  8  1  0  0  0  0
  8  9  1  0  0  0  0
  9  5  1  1  0  0  0
  9 20  1  0  0  0  0
 10 11  1  0  0  0  0
 10 16  1  0  0  0  0
 11 12  1  1  0  0  0
 11 13  1  0  0  0  0
 14 13  1  6  0  0  0
 14 15  1  0  0  0  0
 14 20  1  0  0  0  0
 15 16  1  1  0  0  0
 15 18  1  0  0  0  0
 16 17  2  0  0  0  0
 18 19  1  0  0  0  0
 20 19  1  1  0  0  0
M  CHG  1  22  -1
M  END
>  <CHROM.1>
-58.65604624,167.50868901,-174.67930788,-130.72712820,22.70785422,1.25986912
32.06254122,2.26401129,0.66663552,-0.53588632

>  <Name>
ligand

>  <RI>
0

>  <Rbt.Current_Directory>
/home/itssahil/PROJECTS/Mol_Feturizer/Test_systems_manuscript/rnas/3slm

>  <Rbt.Executable>
rbdock ($Id: //depot/dev/client3/rdock/2013.1/src/exe/rbdock.cxx#4 $)

>  <Rbt.Library>
libRbt.so (2013.1, Build901 2013/11/27)

>  <Rbt.Parameter_File>
/export/apps/rDock/src/rDock_2013.1_src/data/scripts/dock_solv.prm

>  <Rbt.Receptor>
prm/pocket_docking_7.prm

>  <SCORE>
-22.1962

>  <SCORE.INTER>
-16.7074

>  <SCORE.INTER.CONST>
1

>  <SCORE.INTER.POLAR>
0

>  <SCORE.INTER.ROT>
4

>  <SCORE.INTER.SOLV>
20.0106

>  <SCORE.INTER.VDW>
-24.0751

>  <SCORE.INTER.norm>
-0.726407

>  <SCORE.INTRA>
-5.48881

>  <SCORE.INTRA.DIHEDRAL>
-6.70456

>  <SCORE.INTRA.DIHEDRAL.0>
8.62657

>  <SCORE.INTRA.POLAR>
0

>  <SCORE.INTRA.POLAR.0>
0

>  <SCORE.INTRA.REPUL>
0

>  <SCORE.INTRA.REPUL.0>
0

>  <SCORE.INTRA.SOLV>
-0.581874

>  <SCORE.INTRA.SOLV.lig_0>
-66.3641

>  <SCORE.INTRA.VDW>
-1.8456

>  <SCORE.INTRA.VDW.0>
0.452231

>  <SCORE.INTRA.norm>
-0.238644

>  <SCORE.RESTR>
0

>  <SCORE.RESTR.CAVITY>
0

>  <SCORE.RESTR.norm>
0

>  <SCORE.SYSTEM>
0

>  <SCORE.SYSTEM.CONST>
0

>  <SCORE.SYSTEM.DIHEDRAL>
0

>  <SCORE.SYSTEM.SOLV>
0

>  <SCORE.SYSTEM.norm>
0

>  <SCORE.heavy>
23

>  <SCORE.norm>
-0.965051

>  <RMSD>
8.222

$$$$
ligand
 OpenBabel02271912143D
libRbt.so/2013.1/901 2013/11/27
 23 25  0  0  0  0  0  0  0  0999 V2000
   19.8282    5.0815   32.5989 P   0  0  1  0  0  0  0  0  0  0  0  0
   21.5805    3.5987   31.3395 C   0  0  0  0  0  0  0  0  0  0  0  0
   21.2320    4.2989   32.5256 O   0  0  0  0  0  0  0  0  0  0  0  0
   22.9953    3.0941   31.5134 C   0  0  1  0  0  0  0  0  0  0  0  0
   23.0975    2.1339   32.5643 O   0  0  0  0  0  0  0  0  0  0  0  0
   23.4480    2.4258   30.2261 C   0  0  1  0  0  0  0  0  0  0  0  0
   24.7584    2.9211   29.9015 O   0  0  0  0  0  0  0  0  0  0  0  0
   23.4575    0.9330   30.5308 C   0  0  0  0  0  0  0  0  0  0  0  0
   23.5149    0.8607   32.0543 C   0  0  2  0  0  0  0  0  0  0  0  0
   22.8322   -3.7413   34.2651 N   0  0  0  0  0  0  0  0  0  0  0  0
   23.9888   -3.1556   33.9145 C   0  0  2  0  0  0  0  0  0  0  0  0
   25.1377   -3.8244   34.1677 N   0  0  0  0  0  0  0  0  0  0  0  0
   24.0041   -1.9309   33.3352 N   0  0  0  0  0  0  0  0  0  0  0  0
   22.8412   -1.2877   33.1037 C   0  0  2  0  0  0  0  0  0  0  0  0
   21.6457   -1.8759   33.4557 C   0  0  1  0  0  0  0  0  0  0  0  0
   21.6567   -3.1223   34.0525 C   0  0  0  0  0  0  0  0  0  0  0  0
   20.5836   -3.6703   34.3852 O   0  0  0  0  0  0  0  0  0  0  0  0
   20.6492   -1.0361   33.1122 N   0  0  0  0  0  0  0  0  0  0  0  0
   21.2152    0.0540   32.5649 C   0  0  0  0  0  0  0  0  0  0  0  0
   22.5419   -0.1152   32.5560 N   0  0  1  0  0  0  0  0  0  0  0  0
   19.7159    5.6569   33.9897 O   0  0  0  0  0  0  0  0  0  0  0  0
   19.9307    6.1164   31.5022 O   0  5  0  0  0  0  0  0  0  0  0  0
   18.8278    3.9935   32.3166 O   0  0  0  0  0  0  0  0  0  0  0  0
  1  3  1  6  0  0  0
  1 21  1  0  0  0  0
  1 22  1  0  0  0  0
  1 23  2  0  0  0  0
  2  3  1  0  0  0  0
  4  2  1  6  0  0  0
  4  5  1  0  0  0  0
  4  6  1  0  0  0  0
  6  7  1  1  0  0  0
  6  8  1  0  0  0  0
  8  9  1  0  0  0  0
  9  5  1  1  0  0  0
  9 20  1  0  0  0  0
 10 11  1  0  0  0  0
 10 16  1  0  0  0  0
 11 12  1  1  0  0  0
 11 13  1  0  0  0  0
 14 13  1  6  0  0  0
 14 15  1  0  0  0  0
 14 20  1  0  0  0  0
 15 16  1  1  0  0  0
 15 18  1  0  0  0  0
 16 17  2  0  0  0  0
 18 19  1  0  0  0  0
 20 19  1  1  0  0  0
M  CHG  1  22  -1
M  END
>  <CHROM.1>
177.15173008,64.71967152,174.20571883,-133.85984977,21.98144756,1.13276051
32.58865535,1.90469617,0.49202169,-0.36715841

>  <Name>
ligand

>  <RI>
0

>  <Rbt.Current_Directory>
/home/itssahil/PROJECTS/Mol_Feturizer/Test_systems_manuscript/rnas/3slm

>  <Rbt.Executable>
rbdock ($Id: //depot/dev/client3/rdock/2013.1/src/exe/rbdock.cxx#4 $)

>  <Rbt.Library>
libRbt.so (2013.1, Build901 2013/11/27)

>  <Rbt.Parameter_File>
/export/apps/rDock/src/rDock_2013.1_src/data/scripts/dock_solv.prm

>  <Rbt.Receptor>
prm/pocket_docking_8.prm

>  <SCORE>
-26.1593

>  <SCORE.INTER>
-20.7006

>  <SCORE.INTER.CONST>
1

>  <SCORE.INTER.POLAR>
0

>  <SCORE.INTER.ROT>
4

>  <SCORE.INTER.SOLV>
21.4446

>  <SCORE.INTER.VDW>
-27.2153

>  <SCORE.INTER.norm>
-0.900026

>  <SCORE.INTRA>
-5.47284

>  <SCORE.INTRA.DIHEDRAL>
-7.12991

>  <SCORE.INTRA.DIHEDRAL.0>
8.62657

>  <SCORE.INTRA.POLAR>
0

>  <SCORE.INTRA.POLAR.0>
0

>  <SCORE.INTRA.REPUL>
0

>  <SCORE.INTRA.REPUL.0>
0

>  <SCORE.INTRA.SOLV>
-0.0558783

>  <SCORE.INTRA.SOLV.lig_0>
-66.3641

>  <SCORE.INTRA.VDW>
-1.87994

>  <SCORE.INTRA.VDW.0>
0.452231

>  <SCORE.INTRA.norm>
-0.23795

>  <SCORE.RESTR>
0.0141475

>  <SCORE.RESTR.CAVITY>
0.0141475

>  <SCORE.RESTR.norm>
0.000615107

>  <SCORE.SYSTEM>
0

>  <SCORE.SYSTEM.CONST>
0

>  <SCORE.SYSTEM.DIHEDRAL>
0

>  <SCORE.SYSTEM.SOLV>
0

>  <SCORE.SYSTEM.norm>
0

>  <SCORE.heavy>
23

>  <SCORE.norm>
-1.13736

>  <RMSD>
8.226

$$$$
ligand
 OpenBabel02271912143D
libRbt.so/2013.1/901 2013/11/27
 23 25  0  0  0  0  0  0  0  0999 V2000
   19.8488    5.3112   32.4039 P   0  0  1  0  0  0  0  0  0  0  0  0
   21.7145    3.4773   32.2991 C   0  0  0  0  0  0  0  0  0  0  0  0
   21.1493    4.6487   31.7272 O   0  0  0  0  0  0  0  0  0  0  0  0
   23.0234    3.2155   31.5887 C   0  0  1  0  0  0  0  0  0  0  0  0
   23.7870    2.1939   32.2292 O   0  0  0  0  0  0  0  0  0  0  0  0
   22.7370    2.7610   30.1674 C   0  0  1  0  0  0  0  0  0  0  0  0
   23.5865    3.5075   29.2790 O   0  0  0  0  0  0  0  0  0  0  0  0
   23.0561    1.2714   30.1504 C   0  0  0  0  0  0  0  0  0  0  0  0
   23.9643    1.0676   31.3601 C   0  0  2  0  0  0  0  0  0  0  0  0
   25.1139   -3.7415   32.8034 N   0  0  0  0  0  0  0  0  0  0  0  0
   25.8199   -2.9273   32.0019 C   0  0  2  0  0  0  0  0  0  0  0  0
   26.9885   -3.3915   31.5013 N   0  0  0  0  0  0  0  0  0  0  0  0
   25.3805   -1.6788   31.7124 N   0  0  0  0  0  0  0  0  0  0  0  0
   24.2150   -1.2440   32.2342 C   0  0  2  0  0  0  0  0  0  0  0  0
   23.4777   -2.0679   33.0568 C   0  0  1  0  0  0  0  0  0  0  0  0
   23.9510   -3.3342   33.3435 C   0  0  0  0  0  0  0  0  0  0  0  0
   23.3004   -4.0945   34.0926 O   0  0  0  0  0  0  0  0  0  0  0  0
   22.3677   -1.4010   33.4304 N   0  0  0  0  0  0  0  0  0  0  0  0
   22.4189   -0.1857   32.8571 C   0  0  0  0  0  0  0  0  0  0  0  0
   23.5369   -0.1070   32.1272 N   0  0  1  0  0  0  0  0  0  0  0  0
   18.8119    4.2213   32.5272 O   0  0  0  0  0  0  0  0  0  0  0  0
   20.3560    5.8418   33.7250 O   0  5  0  0  0  0  0  0  0  0  0  0
   19.4753    6.3866   31.4198 O   0  0  0  0  0  0  0  0  0  0  0  0
  1  3  1  6  0  0  0
  1 21  1  0  0  0  0
  1 22  1  0  0  0  0
  1 23  2  0  0  0  0
  2  3  1  0  0  0  0
  4  2  1  1  0  0  0
  4  5  1  0  0  0  0
  4  6  1  0  0  0  0
  6  7  1  6  0  0  0
  6  8  1  0  0  0  0
  8  9  1  0  0  0  0
  9  5  1  1  0  0  0
  9 20  1  0  0  0  0
 10 11  1  0  0  0  0
 10 16  1  0  0  0  0
 11 12  1  1  0  0  0
 11 13  1  0  0  0  0
 14 13  1  6  0  0  0
 14 15  1  0  0  0  0
 14 20  1  0  0  0  0
 15 16  1  1  0  0  0
 15 18  1  0  0  0  0
 16 17  2  0  0  0  0
 18 19  1  0  0  0  0
 20 19  1  1  0  0  0
M  CHG  1  22  -1
M  END
>  <CHROM.1>
-53.20692451,170.18844850,-171.54576592,-132.25649605,22.71243312,1.24743991
32.09769744,2.22933996,0.66004307,-0.51006983

>  <Name>
ligand

>  <RI>
0

>  <Rbt.Current_Directory>
/home/itssahil/PROJECTS/Mol_Feturizer/Test_systems_manuscript/rnas/3slm

>  <Rbt.Executable>
rbdock ($Id: //depot/dev/client3/rdock/2013.1/src/exe/rbdock.cxx#4 $)

>  <Rbt.Library>
libRbt.so (2013.1, Build901 2013/11/27)

>  <Rbt.Parameter_File>
/export/apps/rDock/src/rDock_2013.1_src/data/scripts/dock_solv.prm

>  <Rbt.Receptor>
prm/pocket_docking_7.prm

>  <SCORE>
-22.1301

>  <SCORE.INTER>
-16.7022

>  <SCORE.INTER.CONST>
1

>  <SCORE.INTER.POLAR>
0

>  <SCORE.INTER.ROT>
4

>  <SCORE.INTER.SOLV>
19.6654

>  <SCORE.INTER.VDW>
-23.9566

>  <SCORE.INTER.norm>
-0.726184

>  <SCORE.INTRA>
-5.42792

>  <SCORE.INTRA.DIHEDRAL>
-6.61487

>  <SCORE.INTRA.DIHEDRAL.0>
8.62657

>  <SCORE.INTRA.POLAR>
0

>  <SCORE.INTRA.POLAR.0>
0

>  <SCORE.INTRA.REPUL>
0

>  <SCORE.INTRA.REPUL.0>
0

>  <SCORE.INTRA.SOLV>
-0.604986

>  <SCORE.INTRA.SOLV.lig_0>
-66.3641

>  <SCORE.INTRA.VDW>
-1.81799

>  <SCORE.INTRA.VDW.0>
0.452231

>  <SCORE.INTRA.norm>
-0.235996

>  <SCORE.RESTR>
0

>  <SCORE.RESTR.CAVITY>
0

>  <SCORE.RESTR.norm>
0

>  <SCORE.SYSTEM>
0

>  <SCORE.SYSTEM.CONST>
0

>  <SCORE.SYSTEM.DIHEDRAL>
0

>  <SCORE.SYSTEM.SOLV>
0

>  <SCORE.SYSTEM.norm>
0

>  <SCORE.heavy>
23

>  <SCORE.norm>
-0.96218

>  <RMSD>
8.232

$$$$
ligand
 OpenBabel02271912143D
libRbt.so/2013.1/901 2013/11/27
 23 25  0  0  0  0  0  0  0  0999 V2000
   19.7951    5.2858   32.4555 P   0  0  1  0  0  0  0  0  0  0  0  0
   21.7095    3.5045   32.3251 C   0  0  0  0  0  0  0  0  0  0  0  0
   21.1467    4.7018   31.8071 O   0  0  0  0  0  0  0  0  0  0  0  0
   23.0016    3.2550   31.5803 C   0  0  1  0  0  0  0  0  0  0  0  0
   23.7874    2.2346   32.1953 O   0  0  0  0  0  0  0  0  0  0  0  0
   22.6821    2.8069   30.1641 C   0  0  1  0  0  0  0  0  0  0  0  0
   23.5043    3.5638   29.2589 O   0  0  0  0  0  0  0  0  0  0  0  0
   23.0098    1.3194   30.1302 C   0  0  0  0  0  0  0  0  0  0  0  0
   23.9496    1.1144   31.3154 C   0  0  2  0  0  0  0  0  0  0  0  0
   25.2130   -3.6589   32.7819 N   0  0  0  0  0  0  0  0  0  0  0  0
   25.9012   -2.8310   31.9791 C   0  0  2  0  0  0  0  0  0  0  0  0
   27.0823   -3.2682   31.4839 N   0  0  0  0  0  0  0  0  0  0  0  0
   25.4320   -1.5948   31.6832 N   0  0  0  0  0  0  0  0  0  0  0  0
   24.2546   -1.1867   32.1998 C   0  0  2  0  0  0  0  0  0  0  0  0
   23.5353   -2.0252   33.0237 C   0  0  1  0  0  0  0  0  0  0  0  0
   24.0388   -3.2783   33.3170 C   0  0  0  0  0  0  0  0  0  0  0  0
   23.4049   -4.0513   34.0674 O   0  0  0  0  0  0  0  0  0  0  0  0
   22.4081   -1.3843   33.3913 N   0  0  0  0  0  0  0  0  0  0  0  0
   22.4311   -0.1705   32.8132 C   0  0  0  0  0  0  0  0  0  0  0  0
   23.5489   -0.0672   32.0861 N   0  0  1  0  0  0  0  0  0  0  0  0
   20.0497    5.4486   33.9343 O   0  0  0  0  0  0  0  0  0  0  0  0
   19.5674    6.5837   31.7154 O   0  5  0  0  0  0  0  0  0  0  0  0
   18.7855    4.2173   32.1340 O   0  0  0  0  0  0  0  0  0  0  0  0
  1  3  1  6  0  0  0
  1 21  1  0  0  0  0
  1 22  1  0  0  0  0
  1 23  2  0  0  0  0
  2  3  1  0  0  0  0
  4  2  1  1  0  0  0
  4  5  1  0  0  0  0
  4  6  1  0  0  0  0
  6  7  1  6  0  0  0
  6  8  1  0  0  0  0
  8  9  1  0  0  0  0
  9  5  1  1  0  0  0
  9 20  1  0  0  0  0
 10 11  1  0  0  0  0
 10 16  1  0  0  0  0
 11 12  1  1  0  0  0
 11 13  1  0  0  0  0
 14 13  1  6  0  0  0
 14 15  1  0  0  0  0
 14 20  1  0  0  0  0
 15 16  1  1  0  0  0
 15 18  1  0  0  0  0
 16 17  2  0  0  0  0
 18 19  1  0  0  0  0
 20 19  1  1  0  0  0
M  CHG  1  22  -1
M  END
>  <CHROM.1>
55.06065538,168.15274384,-176.65398956,-130.24298115,22.71360276,1.27666020
32.09398640,2.25561674,0.66192830,-0.52438825

>  <Name>
ligand

>  <RI>
0

>  <Rbt.Current_Directory>
/home/itssahil/PROJECTS/Mol_Feturizer/Test_systems_manuscript/rnas/3slm

>  <Rbt.Executable>
rbdock ($Id: //depot/dev/client3/rdock/2013.1/src/exe/rbdock.cxx#4 $)

>  <Rbt.Library>
libRbt.so (2013.1, Build901 2013/11/27)

>  <Rbt.Parameter_File>
/export/apps/rDock/src/rDock_2013.1_src/data/scripts/dock_solv.prm

>  <Rbt.Receptor>
prm/pocket_docking_8.prm

>  <SCORE>
-22.314

>  <SCORE.INTER>
-16.8208

>  <SCORE.INTER.CONST>
1

>  <SCORE.INTER.POLAR>
0

>  <SCORE.INTER.ROT>
4

>  <SCORE.INTER.SOLV>
19.7473

>  <SCORE.INTER.VDW>
-24.063

>  <SCORE.INTER.norm>
-0.73134

>  <SCORE.INTRA>
-5.49317

>  <SCORE.INTRA.DIHEDRAL>
-6.81627

>  <SCORE.INTRA.DIHEDRAL.0>
8.62657

>  <SCORE.INTRA.POLAR>
0

>  <SCORE.INTRA.POLAR.0>
0

>  <SCORE.INTRA.REPUL>
0

>  <SCORE.INTRA.REPUL.0>
0

>  <SCORE.INTRA.SOLV>
-0.561096

>  <SCORE.INTRA.SOLV.lig_0>
-66.3641

>  <SCORE.INTRA.VDW>
-1.80449

>  <SCORE.INTRA.VDW.0>
0.452231

>  <SCORE.INTRA.norm>
-0.238834

>  <SCORE.RESTR>
0

>  <SCORE.RESTR.CAVITY>
0

>  <SCORE.RESTR.norm>
0

>  <SCORE.SYSTEM>
0

>  <SCORE.SYSTEM.CONST>
0

>  <SCORE.SYSTEM.DIHEDRAL>
0

>  <SCORE.SYSTEM.SOLV>
0

>  <SCORE.SYSTEM.norm>
0

>  <SCORE.heavy>
23

>  <SCORE.norm>
-0.970174

>  <RMSD>
8.233

$$$$
ligand
 OpenBabel02271912143D
libRbt.so/2013.1/901 2013/11/27
 23 25  0  0  0  0  0  0  0  0999 V2000
   19.7525    5.0527   32.6249 P   0  0  1  0  0  0  0  0  0  0  0  0
   21.5044    3.5623   31.3741 C   0  0  0  0  0  0  0  0  0  0  0  0
   21.1724    4.3009   32.5416 O   0  0  0  0  0  0  0  0  0  0  0  0
   22.9301    3.0842   31.5337 C   0  0  1  0  0  0  0  0  0  0  0  0
   23.0607    2.1259   32.5832 O   0  0  0  0  0  0  0  0  0  0  0  0
   23.3823    2.4248   30.2418 C   0  0  1  0  0  0  0  0  0  0  0  0
   24.6799    2.9447   29.9042 O   0  0  0  0  0  0  0  0  0  0  0  0
   23.4228    0.9324   30.5457 C   0  0  0  0  0  0  0  0  0  0  0  0
   23.4968    0.8608   32.0686 C   0  0  2  0  0  0  0  0  0  0  0  0
   22.9191   -3.7834   34.2201 N   0  0  0  0  0  0  0  0  0  0  0  0
   24.0601   -3.1800   33.8489 C   0  0  2  0  0  0  0  0  0  0  0  0
   25.2220   -3.8408   34.0606 N   0  0  0  0  0  0  0  0  0  0  0  0
   24.0478   -1.9459   33.2897 N   0  0  0  0  0  0  0  0  0  0  0  0
   22.8727   -1.3113   33.0997 C   0  0  2  0  0  0  0  0  0  0  0  0
   21.6930   -1.9177   33.4733 C   0  0  1  0  0  0  0  0  0  0  0  0
   21.7323   -3.1734   34.0489 C   0  0  0  0  0  0  0  0  0  0  0  0
   20.6740   -3.7379   34.4006 O   0  0  0  0  0  0  0  0  0  0  0  0
   20.6793   -1.0829   33.1701 N   0  0  0  0  0  0  0  0  0  0  0  0
   21.2197    0.0219   32.6262 C   0  0  0  0  0  0  0  0  0  0  0  0
   22.5473   -0.1333   32.5795 N   0  0  1  0  0  0  0  0  0  0  0  0
   18.6855    4.0039   32.4262 O   0  0  0  0  0  0  0  0  0  0  0  0
   19.7560    5.6866   33.9969 O   0  5  0  0  0  0  0  0  0  0  0  0
   19.8368    6.0448   31.4966 O   0  0  0  0  0  0  0  0  0  0  0  0
  1  3  1  6  0  0  0
  1 21  1  0  0  0  0
  1 22  1  0  0  0  0
  1 23  2  0  0  0  0
  2  3  1  0  0  0  0
  4  2  1  6  0  0  0
  4  5  1  0  0  0  0
  4  6  1  0  0  0  0
  6  7  1  1  0  0  0
  6  8  1  0  0  0  0
  8  9  1  0  0  0  0
  9  5  1  1  0  0  0
  9 20  1  0  0  0  0
 10 11  1  0  0  0  0
 10 16  1  0  0  0  0
 11 12  1  1  0  0  0
 11 13  1  0  0  0  0
 14 13  1  6  0  0  0
 14 15  1  0  0  0  0
 14 20  1  0  0  0  0
 15 16  1  1  0  0  0
 15 18  1  0  0  0  0
 16 17  2  0  0  0  0
 18 19  1  0  0  0  0
 20 19  1  1  0  0  0
M  CHG  1  22  -1
M  END
>  <CHROM.1>
57.45286244,66.98324935,174.87057454,-135.26681085,21.96952575,1.11256477
32.59814790,1.92416707,0.49345544,-0.36921853

>  <Name>
ligand

>  <RI>
0

>  <Rbt.Current_Directory>
/home/itssahil/PROJECTS/Mol_Feturizer/Test_systems_manuscript/rnas/3slm

>  <Rbt.Executable>
rbdock ($Id: //depot/dev/client3/rdock/2013.1/src/exe/rbdock.cxx#4 $)

>  <Rbt.Library>
libRbt.so (2013.1, Build901 2013/11/27)

>  <Rbt.Parameter_File>
/export/apps/rDock/src/rDock_2013.1_src/data/scripts/dock_solv.prm

>  <Rbt.Receptor>
prm/pocket_docking_7.prm

>  <SCORE>
-26.3237

>  <SCORE.INTER>
-20.4963

>  <SCORE.INTER.CONST>
1

>  <SCORE.INTER.POLAR>
0

>  <SCORE.INTER.ROT>
4

>  <SCORE.INTER.SOLV>
22.4271

>  <SCORE.INTER.VDW>
-27.4066

>  <SCORE.INTER.norm>
-0.891143

>  <SCORE.INTRA>
-5.8319

>  <SCORE.INTRA.DIHEDRAL>
-7.06974

>  <SCORE.INTRA.DIHEDRAL.0>
8.62657

>  <SCORE.INTRA.POLAR>
0

>  <SCORE.INTRA.POLAR.0>
0

>  <SCORE.INTRA.REPUL>
0

>  <SCORE.INTRA.REPUL.0>
0

>  <SCORE.INTRA.SOLV>
-0.694521

>  <SCORE.INTRA.SOLV.lig_0>
-66.3641

>  <SCORE.INTRA.VDW>
-1.94976

>  <SCORE.INTRA.VDW.0>
0.452231

>  <SCORE.INTRA.norm>
-0.253561

>  <SCORE.RESTR>
0.00450839

>  <SCORE.RESTR.CAVITY>
0.00450839

>  <SCORE.RESTR.norm>
0.000196017

>  <SCORE.SYSTEM>
0

>  <SCORE.SYSTEM.CONST>
0

>  <SCORE.SYSTEM.DIHEDRAL>
0

>  <SCORE.SYSTEM.SOLV>
0

>  <SCORE.SYSTEM.norm>
0

>  <SCORE.heavy>
23

>  <SCORE.norm>
-1.14451

>  <RMSD>
8.236

$$$$
ligand
 OpenBabel02271912143D
libRbt.so/2013.1/901 2013/11/27
 23 25  0  0  0  0  0  0  0  0999 V2000
   19.8271    5.2773   32.4077 P   0  0  1  0  0  0  0  0  0  0  0  0
   21.6952    3.4483   32.2658 C   0  0  0  0  0  0  0  0  0  0  0  0
   21.1342    4.6356   31.7234 O   0  0  0  0  0  0  0  0  0  0  0  0
   22.9930    3.1884   31.5346 C   0  0  1  0  0  0  0  0  0  0  0  0
   23.7754    2.1789   32.1717 O   0  0  0  0  0  0  0  0  0  0  0  0
   22.6845    2.7172   30.1235 C   0  0  1  0  0  0  0  0  0  0  0  0
   23.5124    3.4604   29.2123 O   0  0  0  0  0  0  0  0  0  0  0  0
   23.0140    1.2297   30.1160 C   0  0  0  0  0  0  0  0  0  0  0  0
   23.9452    1.0450   31.3112 C   0  0  2  0  0  0  0  0  0  0  0  0
   25.1732   -3.7269   32.8122 N   0  0  0  0  0  0  0  0  0  0  0  0
   25.8616   -2.9144   31.9940 C   0  0  2  0  0  0  0  0  0  0  0  0
   27.0328   -3.3692   31.4909 N   0  0  0  0  0  0  0  0  0  0  0  0
   25.4025   -1.6762   31.6906 N   0  0  0  0  0  0  0  0  0  0  0  0
   24.2350   -1.2505   32.2154 C   0  0  2  0  0  0  0  0  0  0  0  0
   23.5156   -2.0729   33.0551 C   0  0  1  0  0  0  0  0  0  0  0  0
   24.0088   -3.3284   33.3557 C   0  0  0  0  0  0  0  0  0  0  0  0
   23.3747   -4.0871   34.1204 O   0  0  0  0  0  0  0  0  0  0  0  0
   22.3992   -1.4164   33.4280 N   0  0  0  0  0  0  0  0  0  0  0  0
   22.4290   -0.2086   32.8375 C   0  0  0  0  0  0  0  0  0  0  0  0
   23.5402   -0.1246   32.0978 N   0  0  1  0  0  0  0  0  0  0  0  0
   18.7595    4.2104   32.4064 O   0  0  0  0  0  0  0  0  0  0  0  0
   20.2997    5.6850   33.7842 O   0  5  0  0  0  0  0  0  0  0  0  0
   19.5165    6.4388   31.5028 O   0  0  0  0  0  0  0  0  0  0  0  0
  1  3  1  6  0  0  0
  1 21  1  0  0  0  0
  1 22  1  0  0  0  0
  1 23  2  0  0  0  0
  2  3  1  0  0  0  0
  4  2  1  1  0  0  0
  4  5  1  0  0  0  0
  4  6  1  0  0  0  0
  6  7  1  6  0  0  0
  6  8  1  0  0  0  0
  8  9  1  0  0  0  0
  9  5  1  1  0  0  0
  9 20  1  0  0  0  0
 10 11  1  0  0  0  0
 10 16  1  0  0  0  0
 11 12  1  1  0  0  0
 11 13  1  0  0  0  0
 14 13  1  6  0  0  0
 14 15  1  0  0  0  0
 14 20  1  0  0  0  0
 15 16  1  1  0  0  0
 15 18  1  0  0  0  0
 16 17  2  0  0  0  0
 18 19  1  0  0  0  0
 20 19  1  1  0  0  0
M  CHG  1  22  -1
M  END
>  <CHROM.1>
-56.89647682,168.22101634,-172.98930925,-131.51864139,22.71210962,1.22894698
32.08239070,2.24980277,0.67239998,-0.53367726

>  <Name>
ligand

>  <RI>
416

>  <Rbt.Current_Directory>
/home/itssahil/PROJECTS/Mol_Feturizer/Test_systems_manuscript/rnas/3slm

>  <Rbt.Executable>
rbdock ($Id: //depot/dev/client3/rdock/2013.1/src/exe/rbdock.cxx#4 $)

>  <Rbt.Library>
libRbt.so (2013.1, Build901 2013/11/27)

>  <Rbt.Parameter_File>
/export/apps/rDock/src/rDock_2013.1_src/data/scripts/dock_solv.prm

>  <Rbt.Receptor>
prm/pocket_docking_6.prm

>  <SCORE>
-22.1368

>  <SCORE.INTER>
-16.679

>  <SCORE.INTER.CONST>
1

>  <SCORE.INTER.POLAR>
0

>  <SCORE.INTER.ROT>
4

>  <SCORE.INTER.SOLV>
19.7754

>  <SCORE.INTER.VDW>
-23.9778

>  <SCORE.INTER.norm>
-0.725174

>  <SCORE.INTRA>
-5.45778

>  <SCORE.INTRA.DIHEDRAL>
-6.64401

>  <SCORE.INTRA.DIHEDRAL.0>
8.62657

>  <SCORE.INTRA.POLAR>
0

>  <SCORE.INTRA.POLAR.0>
0

>  <SCORE.INTRA.REPUL>
0

>  <SCORE.INTRA.REPUL.0>
0

>  <SCORE.INTRA.SOLV>
-0.589421

>  <SCORE.INTRA.SOLV.lig_0>
-66.3641

>  <SCORE.INTRA.VDW>
-1.84107

>  <SCORE.INTRA.VDW.0>
0.452231

>  <SCORE.INTRA.norm>
-0.237295

>  <SCORE.RESTR>
0

>  <SCORE.RESTR.CAVITY>
0

>  <SCORE.RESTR.norm>
0

>  <SCORE.SYSTEM>
0

>  <SCORE.SYSTEM.CONST>
0

>  <SCORE.SYSTEM.DIHEDRAL>
0

>  <SCORE.SYSTEM.SOLV>
0

>  <SCORE.SYSTEM.norm>
0

>  <SCORE.heavy>
23

>  <SCORE.norm>
-0.962469

>  <RMSD>
8.237

$$$$
ligand
 OpenBabel02271912143D
libRbt.so/2013.1/901 2013/11/27
 23 25  0  0  0  0  0  0  0  0999 V2000
   19.7241    4.9938   32.5761 P   0  0  1  0  0  0  0  0  0  0  0  0
   21.5221    3.5380   31.3500 C   0  0  0  0  0  0  0  0  0  0  0  0
   21.1394    4.2301   32.5304 O   0  0  0  0  0  0  0  0  0  0  0  0
   22.9473    3.0713   31.5433 C   0  0  1  0  0  0  0  0  0  0  0  0
   23.0615    2.1177   32.5990 O   0  0  0  0  0  0  0  0  0  0  0  0
   23.4334    2.4108   30.2643 C   0  0  1  0  0  0  0  0  0  0  0  0
   24.7344    2.9393   29.9541 O   0  0  0  0  0  0  0  0  0  0  0  0
   23.4783    0.9198   30.5746 C   0  0  0  0  0  0  0  0  0  0  0  0
   23.5186    0.8542   32.0990 C   0  0  2  0  0  0  0  0  0  0  0  0
   22.9256   -3.8077   34.2077 N   0  0  0  0  0  0  0  0  0  0  0  0
   24.0694   -3.1998   33.8531 C   0  0  2  0  0  0  0  0  0  0  0  0
   25.2301   -3.8606   34.0716 N   0  0  0  0  0  0  0  0  0  0  0  0
   24.0611   -1.9613   33.3036 N   0  0  0  0  0  0  0  0  0  0  0  0
   22.8871   -1.3268   33.1064 C   0  0  2  0  0  0  0  0  0  0  0  0
   21.7044   -1.9378   33.4630 C   0  0  1  0  0  0  0  0  0  0  0  0
   21.7397   -3.1980   34.0290 C   0  0  0  0  0  0  0  0  0  0  0  0
   20.6786   -3.7667   34.3653 O   0  0  0  0  0  0  0  0  0  0  0  0
   20.6927   -1.1021   33.1559 N   0  0  0  0  0  0  0  0  0  0  0  0
   21.2370    0.0077   32.6264 C   0  0  0  0  0  0  0  0  0  0  0  0
   22.5653   -0.1452   32.5922 N   0  0  1  0  0  0  0  0  0  0  0  0
   18.6545    3.9549   32.3420 O   0  0  0  0  0  0  0  0  0  0  0  0
   19.6934    5.6217   33.9505 O   0  5  0  0  0  0  0  0  0  0  0  0
   19.8493    5.9898   31.4551 O   0  0  0  0  0  0  0  0  0  0  0  0
  1  3  1  6  0  0  0
  1 21  1  0  0  0  0
  1 22  1  0  0  0  0
  1 23  2  0  0  0  0
  2  3  1  0  0  0  0
  4  2  1  6  0  0  0
  4  5  1  0  0  0  0
  4  6  1  0  0  0  0
  6  7  1  1  0  0  0
  6  8  1  0  0  0  0
  8  9  1  0  0  0  0
  9  5  1  1  0  0  0
  9 20  1  0  0  0  0
 10 11  1  0  0  0  0
 10 16  1  0  0  0  0
 11 12  1  1  0  0  0
 11 13  1  0  0  0  0
 14 13  1  6  0  0  0
 14 15  1  0  0  0  0
 14 20  1  0  0  0  0
 15 16  1  1  0  0  0
 15 18  1  0  0  0  0
 16 17  2  0  0  0  0
 18 19  1  0  0  0  0
 20 19  1  1  0  0  0
M  CHG  1  22  -1
M  END
>  <CHROM.1>
59.94746338,64.58420128,173.29834996,-136.28774797,21.97540672,1.08406947
32.58886094,1.92496641,0.47195293,-0.36753521

>  <Name>
ligand

>  <RI>
0

>  <Rbt.Current_Directory>
/home/itssahil/PROJECTS/Mol_Feturizer/Test_systems_manuscript/rnas/3slm

>  <Rbt.Executable>
rbdock ($Id: //depot/dev/client3/rdock/2013.1/src/exe/rbdock.cxx#4 $)

>  <Rbt.Library>
libRbt.so (2013.1, Build901 2013/11/27)

>  <Rbt.Parameter_File>
/export/apps/rDock/src/rDock_2013.1_src/data/scripts/dock_solv.prm

>  <Rbt.Receptor>
prm/pocket_docking_7.prm

>  <SCORE>
-26.2849

>  <SCORE.INTER>
-20.4591

>  <SCORE.INTER.CONST>
1

>  <SCORE.INTER.POLAR>
0

>  <SCORE.INTER.ROT>
4

>  <SCORE.INTER.SOLV>
22.4338

>  <SCORE.INTER.VDW>
-27.384

>  <SCORE.INTER.norm>
-0.889526

>  <SCORE.INTRA>
-5.82688

>  <SCORE.INTRA.DIHEDRAL>
-7.08298

>  <SCORE.INTRA.DIHEDRAL.0>
8.62657

>  <SCORE.INTRA.POLAR>
0

>  <SCORE.INTRA.POLAR.0>
0

>  <SCORE.INTRA.REPUL>
0

>  <SCORE.INTRA.REPUL.0>
0

>  <SCORE.INTRA.SOLV>
-0.662633

>  <SCORE.INTRA.SOLV.lig_0>
-66.3641

>  <SCORE.INTRA.VDW>
-1.95407

>  <SCORE.INTRA.VDW.0>
0.452231

>  <SCORE.INTRA.norm>
-0.253342

>  <SCORE.RESTR>
0.0010344

>  <SCORE.RESTR.CAVITY>
0.0010344

>  <SCORE.RESTR.norm>
4.49741e-05

>  <SCORE.SYSTEM>
0

>  <SCORE.SYSTEM.CONST>
0

>  <SCORE.SYSTEM.DIHEDRAL>
0

>  <SCORE.SYSTEM.SOLV>
0

>  <SCORE.SYSTEM.norm>
0

>  <SCORE.heavy>
23

>  <SCORE.norm>
-1.14282

>  <RMSD>
8.238

$$$$
ligand
 OpenBabel02271912143D
libRbt.so/2013.1/901 2013/11/27
 23 25  0  0  0  0  0  0  0  0999 V2000
   19.7887    5.2803   32.4718 P   0  0  1  0  0  0  0  0  0  0  0  0
   21.7024    3.4997   32.3235 C   0  0  0  0  0  0  0  0  0  0  0  0
   21.1444    4.7066   31.8228 O   0  0  0  0  0  0  0  0  0  0  0  0
   22.9822    3.2441   31.5597 C   0  0  1  0  0  0  0  0  0  0  0  0
   23.7800    2.2316   32.1722 O   0  0  0  0  0  0  0  0  0  0  0  0
   22.6396    2.7804   30.1539 C   0  0  1  0  0  0  0  0  0  0  0  0
   23.4451    3.5288   29.2270 O   0  0  0  0  0  0  0  0  0  0  0  0
   22.9693    1.2931   30.1305 C   0  0  0  0  0  0  0  0  0  0  0  0
   23.9293    1.1023   31.3017 C   0  0  2  0  0  0  0  0  0  0  0  0
   25.2249   -3.6535   32.7970 N   0  0  0  0  0  0  0  0  0  0  0  0
   25.8979   -2.8331   31.9737 C   0  0  2  0  0  0  0  0  0  0  0  0
   27.0711   -3.2741   31.4629 N   0  0  0  0  0  0  0  0  0  0  0  0
   25.4219   -1.6008   31.6727 N   0  0  0  0  0  0  0  0  0  0  0  0
   24.2529   -1.1889   32.2052 C   0  0  2  0  0  0  0  0  0  0  0  0
   23.5491   -2.0194   33.0502 C   0  0  1  0  0  0  0  0  0  0  0  0
   24.0595   -3.2687   33.3481 C   0  0  0  0  0  0  0  0  0  0  0  0
   23.4397   -4.0345   34.1174 O   0  0  0  0  0  0  0  0  0  0  0  0
   22.4274   -1.3763   33.4303 N   0  0  0  0  0  0  0  0  0  0  0  0
   22.4387   -0.1686   32.8390 C   0  0  0  0  0  0  0  0  0  0  0  0
   23.5437   -0.0716   32.0918 N   0  0  1  0  0  0  0  0  0  0  0  0
   20.0285    5.4043   33.9568 O   0  0  0  0  0  0  0  0  0  0  0  0
   19.5744    6.5976   31.7625 O   0  5  0  0  0  0  0  0  0  0  0  0
   18.7777    4.2250   32.1129 O   0  0  0  0  0  0  0  0  0  0  0  0
  1  3  1  6  0  0  0
  1 21  1  0  0  0  0
  1 22  1  0  0  0  0
  1 23  2  0  0  0  0
  2  3  1  0  0  0  0
  4  2  1  1  0  0  0
  4  5  1  0  0  0  0
  4  6  1  0  0  0  0
  6  7  1  6  0  0  0
  6  8  1  0  0  0  0
  8  9  1  0  0  0  0
  9  5  1  1  0  0  0
  9 20  1  0  0  0  0
 10 11  1  0  0  0  0
 10 16  1  0  0  0  0
 11 12  1  1  0  0  0
 11 13  1  0  0  0  0
 14 13  1  6  0  0  0
 14 15  1  0  0  0  0
 14 20  1  0  0  0  0
 15 16  1  1  0  0  0
 15 18  1  0  0  0  0
 16 17  2  0  0  0  0
 18 19  1  0  0  0  0
 20 19  1  1  0  0  0
M  CHG  1  22  -1
M  END
>  <CHROM.1>
54.54108086,166.87260227,-178.02701124,-130.26474317,22.70677531,1.27149151
32.10060164,2.26858629,0.67659208,-0.54299501

>  <Name>
ligand

>  <RI>
416

>  <Rbt.Current_Directory>
/home/itssahil/PROJECTS/Mol_Feturizer/Test_systems_manuscript/rnas/3slm

>  <Rbt.Executable>
rbdock ($Id: //depot/dev/client3/rdock/2013.1/src/exe/rbdock.cxx#4 $)

>  <Rbt.Library>
libRbt.so (2013.1, Build901 2013/11/27)

>  <Rbt.Parameter_File>
/export/apps/rDock/src/rDock_2013.1_src/data/scripts/dock_solv.prm

>  <Rbt.Receptor>
prm/pocket_docking_6.prm

>  <SCORE>
-22.2602

>  <SCORE.INTER>
-16.7987

>  <SCORE.INTER.CONST>
1

>  <SCORE.INTER.POLAR>
0

>  <SCORE.INTER.ROT>
4

>  <SCORE.INTER.SOLV>
19.6578

>  <SCORE.INTER.VDW>
-24.0184

>  <SCORE.INTER.norm>
-0.73038

>  <SCORE.INTRA>
-5.46149

>  <SCORE.INTRA.DIHEDRAL>
-6.73685

>  <SCORE.INTRA.DIHEDRAL.0>
8.62657

>  <SCORE.INTRA.POLAR>
0

>  <SCORE.INTRA.POLAR.0>
0

>  <SCORE.INTRA.REPUL>
0

>  <SCORE.INTRA.REPUL.0>
0

>  <SCORE.INTRA.SOLV>
-0.551114

>  <SCORE.INTRA.SOLV.lig_0>
-66.3641

>  <SCORE.INTRA.VDW>
-1.8175

>  <SCORE.INTRA.VDW.0>
0.452231

>  <SCORE.INTRA.norm>
-0.237456

>  <SCORE.RESTR>
0

>  <SCORE.RESTR.CAVITY>
0

>  <SCORE.RESTR.norm>
0

>  <SCORE.SYSTEM>
0

>  <SCORE.SYSTEM.CONST>
0

>  <SCORE.SYSTEM.DIHEDRAL>
0

>  <SCORE.SYSTEM.SOLV>
0

>  <SCORE.SYSTEM.norm>
0

>  <SCORE.heavy>
23

>  <SCORE.norm>
-0.967835

>  <RMSD>
8.239

$$$$
ligand
 OpenBabel02271912143D
libRbt.so/2013.1/901 2013/11/27
 23 25  0  0  0  0  0  0  0  0999 V2000
   19.7885    5.1139   32.6301 P   0  0  1  0  0  0  0  0  0  0  0  0
   21.5051    3.5679   31.3978 C   0  0  0  0  0  0  0  0  0  0  0  0
   21.1958    4.3382   32.5509 O   0  0  0  0  0  0  0  0  0  0  0  0
   22.9310    3.0869   31.5465 C   0  0  1  0  0  0  0  0  0  0  0  0
   23.0655    2.1192   32.5869 O   0  0  0  0  0  0  0  0  0  0  0  0
   23.3763    2.4383   30.2466 C   0  0  1  0  0  0  0  0  0  0  0  0
   24.6729    2.9597   29.9075 O   0  0  0  0  0  0  0  0  0  0  0  0
   23.4166    0.9433   30.5373 C   0  0  0  0  0  0  0  0  0  0  0  0
   23.4977    0.8583   32.0592 C   0  0  2  0  0  0  0  0  0  0  0  0
   22.9278   -3.7833   34.2186 N   0  0  0  0  0  0  0  0  0  0  0  0
   24.0684   -3.1751   33.8540 C   0  0  2  0  0  0  0  0  0  0  0  0
   25.2321   -3.8295   34.0757 N   0  0  0  0  0  0  0  0  0  0  0  0
   24.0540   -1.9425   33.2915 N   0  0  0  0  0  0  0  0  0  0  0  0
   22.8771   -1.3142   33.0915 C   0  0  2  0  0  0  0  0  0  0  0  0
   21.6977   -1.9255   33.4582 C   0  0  1  0  0  0  0  0  0  0  0  0
   21.7392   -3.1796   34.0373 C   0  0  0  0  0  0  0  0  0  0  0  0
   20.6812   -3.7484   34.3830 O   0  0  0  0  0  0  0  0  0  0  0  0
   20.6821   -1.0966   33.1456 N   0  0  0  0  0  0  0  0  0  0  0  0
   21.2209    0.0094   32.6027 C   0  0  0  0  0  0  0  0  0  0  0  0
   22.5495   -0.1392   32.5659 N   0  0  1  0  0  0  0  0  0  0  0  0
   18.7038    4.0784   32.4591 O   0  0  0  0  0  0  0  0  0  0  0  0
   19.8123    5.7735   33.9897 O   0  5  0  0  0  0  0  0  0  0  0  0
   19.8799    6.0829   31.4824 O   0  0  0  0  0  0  0  0  0  0  0  0
  1  3  1  6  0  0  0
  1 21  1  0  0  0  0
  1 22  1  0  0  0  0
  1 23  2  0  0  0  0
  2  3  1  0  0  0  0
  4  2  1  6  0  0  0
  4  5  1  0  0  0  0
  4  6  1  0  0  0  0
  6  7  1  1  0  0  0
  6  8  1  0  0  0  0
  8  9  1  0  0  0  0
  9  5  1  1  0  0  0
  9 20  1  0  0  0  0
 10 11  1  0  0  0  0
 10 16  1  0  0  0  0
 11 12  1  1  0  0  0
 11 13  1  0  0  0  0
 14 13  1  6  0  0  0
 14 15  1  0  0  0  0
 14 20  1  0  0  0  0
 15 16  1  1  0  0  0
 15 18  1  0  0  0  0
 16 17  2  0  0  0  0
 18 19  1  0  0  0  0
 20 19  1  1  0  0  0
M  CHG  1  22  -1
M  END
>  <CHROM.1>
57.19267223,69.09378559,174.12151453,-134.26336211,21.98143591,1.12930606
32.59723210,1.91951642,0.49624998,-0.36462141

>  <Name>
ligand

>  <RI>
0

>  <Rbt.Current_Directory>
/home/itssahil/PROJECTS/Mol_Feturizer/Test_systems_manuscript/rnas/3slm

>  <Rbt.Executable>
rbdock ($Id: //depot/dev/client3/rdock/2013.1/src/exe/rbdock.cxx#4 $)

>  <Rbt.Library>
libRbt.so (2013.1, Build901 2013/11/27)

>  <Rbt.Parameter_File>
/export/apps/rDock/src/rDock_2013.1_src/data/scripts/dock_solv.prm

>  <Rbt.Receptor>
prm/pocket_docking_7.prm

>  <SCORE>
-26.3918

>  <SCORE.INTER>
-20.6732

>  <SCORE.INTER.CONST>
1

>  <SCORE.INTER.POLAR>
0

>  <SCORE.INTER.ROT>
4

>  <SCORE.INTER.SOLV>
22.2183

>  <SCORE.INTER.VDW>
-27.4549

>  <SCORE.INTER.norm>
-0.898834

>  <SCORE.INTRA>
-5.72645

>  <SCORE.INTRA.DIHEDRAL>
-6.91041

>  <SCORE.INTRA.DIHEDRAL.0>
8.62657

>  <SCORE.INTRA.POLAR>
0

>  <SCORE.INTRA.POLAR.0>
0

>  <SCORE.INTRA.REPUL>
0

>  <SCORE.INTRA.REPUL.0>
0

>  <SCORE.INTRA.SOLV>
-0.704195

>  <SCORE.INTRA.SOLV.lig_0>
-66.3641

>  <SCORE.INTRA.VDW>
-1.91915

>  <SCORE.INTRA.VDW.0>
0.452231

>  <SCORE.INTRA.norm>
-0.248976

>  <SCORE.RESTR>
0.00784882

>  <SCORE.RESTR.CAVITY>
0.00784882

>  <SCORE.RESTR.norm>
0.000341253

>  <SCORE.SYSTEM>
0

>  <SCORE.SYSTEM.CONST>
0

>  <SCORE.SYSTEM.DIHEDRAL>
0

>  <SCORE.SYSTEM.SOLV>
0

>  <SCORE.SYSTEM.norm>
0

>  <SCORE.heavy>
23

>  <SCORE.norm>
-1.14747

>  <RMSD>
8.239

$$$$
ligand
 OpenBabel02271912143D
libRbt.so/2013.1/901 2013/11/27
 23 25  0  0  0  0  0  0  0  0999 V2000
   19.7384    5.0397   32.6055 P   0  0  1  0  0  0  0  0  0  0  0  0
   21.4973    3.5428   31.3723 C   0  0  0  0  0  0  0  0  0  0  0  0
   21.1527    4.2755   32.5398 O   0  0  0  0  0  0  0  0  0  0  0  0
   22.9249    3.0733   31.5401 C   0  0  1  0  0  0  0  0  0  0  0  0
   23.0546    2.1130   32.5878 O   0  0  0  0  0  0  0  0  0  0  0  0
   23.3898    2.4203   30.2494 C   0  0  1  0  0  0  0  0  0  0  0  0
   24.6864    2.9493   29.9219 O   0  0  0  0  0  0  0  0  0  0  0  0
   23.4378    0.9274   30.5496 C   0  0  0  0  0  0  0  0  0  0  0  0
   23.5022    0.8521   32.0728 C   0  0  2  0  0  0  0  0  0  0  0  0
   22.9401   -3.7985   34.2147 N   0  0  0  0  0  0  0  0  0  0  0  0
   24.0797   -3.1864   33.8537 C   0  0  2  0  0  0  0  0  0  0  0  0
   25.2446   -3.8390   34.0745 N   0  0  0  0  0  0  0  0  0  0  0  0
   24.0632   -1.9519   33.2957 N   0  0  0  0  0  0  0  0  0  0  0  0
   22.8852   -1.3255   33.0965 C   0  0  2  0  0  0  0  0  0  0  0  0
   21.7067   -1.9408   33.4596 C   0  0  1  0  0  0  0  0  0  0  0  0
   21.7503   -3.1968   34.0342 C   0  0  0  0  0  0  0  0  0  0  0  0
   20.6932   -3.7693   34.3765 O   0  0  0  0  0  0  0  0  0  0  0  0
   20.6897   -1.1130   33.1487 N   0  0  0  0  0  0  0  0  0  0  0  0
   21.2266   -0.0038   32.6105 C   0  0  0  0  0  0  0  0  0  0  0  0
   22.5556   -0.1493   32.5747 N   0  0  1  0  0  0  0  0  0  0  0  0
   18.6652    4.0013   32.3862 O   0  0  0  0  0  0  0  0  0  0  0  0
   19.7272    5.6674   33.9803 O   0  5  0  0  0  0  0  0  0  0  0  0
   19.8484    6.0360   31.4831 O   0  0  0  0  0  0  0  0  0  0  0  0
  1  3  1  6  0  0  0
  1 21  1  0  0  0  0
  1 22  1  0  0  0  0
  1 23  2  0  0  0  0
  2  3  1  0  0  0  0
  4  2  1  6  0  0  0
  4  5  1  0  0  0  0
  4  6  1  0  0  0  0
  6  7  1  1  0  0  0
  6  8  1  0  0  0  0
  8  9  1  0  0  0  0
  9  5  1  1  0  0  0
  9 20  1  0  0  0  0
 10 11  1  0  0  0  0
 10 16  1  0  0  0  0
 11 12  1  1  0  0  0
 11 13  1  0  0  0  0
 14 13  1  6  0  0  0
 14 15  1  0  0  0  0
 14 20  1  0  0  0  0
 15 16  1  1  0  0  0
 15 18  1  0  0  0  0
 16 17  2  0  0  0  0
 18 19  1  0  0  0  0
 20 19  1  1  0  0  0
M  CHG  1  22  -1
M  END
>  <CHROM.1>
57.65820271,66.95300202,173.79063248,-135.11945256,21.97279890,1.09896897
32.59170451,1.92635215,0.48498758,-0.36862270

>  <Name>
ligand

>  <RI>
0

>  <Rbt.Current_Directory>
/home/itssahil/PROJECTS/Mol_Feturizer/Test_systems_manuscript/rnas/3slm

>  <Rbt.Executable>
rbdock ($Id: //depot/dev/client3/rdock/2013.1/src/exe/rbdock.cxx#4 $)

>  <Rbt.Library>
libRbt.so (2013.1, Build901 2013/11/27)

>  <Rbt.Parameter_File>
/export/apps/rDock/src/rDock_2013.1_src/data/scripts/dock_solv.prm

>  <Rbt.Receptor>
prm/pocket_docking_7.prm

>  <SCORE>
-26.3112

>  <SCORE.INTER>
-20.5447

>  <SCORE.INTER.CONST>
1

>  <SCORE.INTER.POLAR>
0

>  <SCORE.INTER.ROT>
4

>  <SCORE.INTER.SOLV>
22.4299

>  <SCORE.INTER.VDW>
-27.4398

>  <SCORE.INTER.norm>
-0.893248

>  <SCORE.INTRA>
-5.76937

>  <SCORE.INTRA.DIHEDRAL>
-7.01329

>  <SCORE.INTRA.DIHEDRAL.0>
8.62657

>  <SCORE.INTRA.POLAR>
0

>  <SCORE.INTRA.POLAR.0>
0

>  <SCORE.INTRA.REPUL>
0

>  <SCORE.INTRA.REPUL.0>
0

>  <SCORE.INTRA.SOLV>
-0.690987

>  <SCORE.INTRA.SOLV.lig_0>
-66.3641

>  <SCORE.INTRA.VDW>
-1.91723

>  <SCORE.INTRA.VDW.0>
0.452231

>  <SCORE.INTRA.norm>
-0.250842

>  <SCORE.RESTR>
0.00288682

>  <SCORE.RESTR.CAVITY>
0.00288682

>  <SCORE.RESTR.norm>
0.000125514

>  <SCORE.SYSTEM>
0

>  <SCORE.SYSTEM.CONST>
0

>  <SCORE.SYSTEM.DIHEDRAL>
0

>  <SCORE.SYSTEM.SOLV>
0

>  <SCORE.SYSTEM.norm>
0

>  <SCORE.heavy>
23

>  <SCORE.norm>
-1.14397

>  <RMSD>
8.240

$$$$
ligand
 OpenBabel02271912143D
libRbt.so/2013.1/901 2013/11/27
 23 25  0  0  0  0  0  0  0  0999 V2000
   19.8078    5.2857   32.4598 P   0  0  1  0  0  0  0  0  0  0  0  0
   21.7054    3.4871   32.3204 C   0  0  0  0  0  0  0  0  0  0  0  0
   21.1378    4.6767   31.7900 O   0  0  0  0  0  0  0  0  0  0  0  0
   23.0013    3.2380   31.5820 C   0  0  1  0  0  0  0  0  0  0  0  0
   23.7847    2.2184   32.2013 O   0  0  0  0  0  0  0  0  0  0  0  0
   22.6890    2.7891   30.1644 C   0  0  1  0  0  0  0  0  0  0  0  0
   23.5150    3.5461   29.2630 O   0  0  0  0  0  0  0  0  0  0  0  0
   23.0177    1.3018   30.1329 C   0  0  0  0  0  0  0  0  0  0  0  0
   23.9518    1.0979   31.3227 C   0  0  2  0  0  0  0  0  0  0  0  0
   25.2095   -3.6752   32.7950 N   0  0  0  0  0  0  0  0  0  0  0  0
   25.9009   -2.8472   31.9948 C   0  0  2  0  0  0  0  0  0  0  0  0
   27.0841   -3.2845   31.5044 N   0  0  0  0  0  0  0  0  0  0  0  0
   25.4329   -1.6111   31.6968 N   0  0  0  0  0  0  0  0  0  0  0  0
   24.2534   -1.2031   32.2087 C   0  0  2  0  0  0  0  0  0  0  0  0
   23.5308   -2.0414   33.0298 C   0  0  1  0  0  0  0  0  0  0  0  0
   24.0331   -3.2944   33.3253 C   0  0  0  0  0  0  0  0  0  0  0  0
   23.3963   -4.0674   34.0732 O   0  0  0  0  0  0  0  0  0  0  0  0
   22.4021   -1.4006   33.3927 N   0  0  0  0  0  0  0  0  0  0  0  0
   22.4274   -0.1868   32.8145 C   0  0  0  0  0  0  0  0  0  0  0  0
   23.5481   -0.0836   32.0919 N   0  0  1  0  0  0  0  0  0  0  0  0
   20.0978    5.4678   33.9298 O   0  0  0  0  0  0  0  0  0  0  0  0
   19.5775    6.5748   31.7052 O   0  5  0  0  0  0  0  0  0  0  0  0
   18.7795    4.2239   32.1776 O   0  0  0  0  0  0  0  0  0  0  0  0
  1  3  1  6  0  0  0
  1 21  1  0  0  0  0
  1 22  1  0  0  0  0
  1 23  2  0  0  0  0
  2  3  1  0  0  0  0
  4  2  1  1  0  0  0
  4  5  1  0  0  0  0
  4  6  1  0  0  0  0
  6  7  1  6  0  0  0
  6  8  1  0  0  0  0
  8  9  1  0  0  0  0
  9  5  1  1  0  0  0
  9 20  1  0  0  0  0
 10 11  1  0  0  0  0
 10 16  1  0  0  0  0
 11 12  1  1  0  0  0
 11 13  1  0  0  0  0
 14 13  1  6  0  0  0
 14 15  1  0  0  0  0
 14 20  1  0  0  0  0
 15 16  1  1  0  0  0
 15 18  1  0  0  0  0
 16 17  2  0  0  0  0
 18 19  1  0  0  0  0
 20 19  1  1  0  0  0
M  CHG  1  22  -1
M  END
>  <CHROM.1>
54.54231687,168.71714614,-174.65534443,-130.30310826,22.71641473,1.26427666
32.09960358,2.25301661,0.66218158,-0.52331431

>  <Name>
ligand

>  <RI>
0

>  <Rbt.Current_Directory>
/home/itssahil/PROJECTS/Mol_Feturizer/Test_systems_manuscript/rnas/3slm

>  <Rbt.Executable>
rbdock ($Id: //depot/dev/client3/rdock/2013.1/src/exe/rbdock.cxx#4 $)

>  <Rbt.Library>
libRbt.so (2013.1, Build901 2013/11/27)

>  <Rbt.Parameter_File>
/export/apps/rDock/src/rDock_2013.1_src/data/scripts/dock_solv.prm

>  <Rbt.Receptor>
prm/pocket_docking_8.prm

>  <SCORE>
-22.2503

>  <SCORE.INTER>
-16.7728

>  <SCORE.INTER.CONST>
1

>  <SCORE.INTER.POLAR>
0

>  <SCORE.INTER.ROT>
4

>  <SCORE.INTER.SOLV>
19.8156

>  <SCORE.INTER.VDW>
-24.0537

>  <SCORE.INTER.norm>
-0.729252

>  <SCORE.INTRA>
-5.47749

>  <SCORE.INTRA.DIHEDRAL>
-6.76761

>  <SCORE.INTRA.DIHEDRAL.0>
8.62657

>  <SCORE.INTRA.POLAR>
0

>  <SCORE.INTRA.POLAR.0>
0

>  <SCORE.INTRA.REPUL>
0

>  <SCORE.INTRA.REPUL.0>
0

>  <SCORE.INTRA.SOLV>
-0.591678

>  <SCORE.INTRA.SOLV.lig_0>
-66.3641

>  <SCORE.INTRA.VDW>
-1.79784

>  <SCORE.INTRA.VDW.0>
0.452231

>  <SCORE.INTRA.norm>
-0.238152

>  <SCORE.RESTR>
0

>  <SCORE.RESTR.CAVITY>
0

>  <SCORE.RESTR.norm>
0

>  <SCORE.SYSTEM>
0

>  <SCORE.SYSTEM.CONST>
0

>  <SCORE.SYSTEM.DIHEDRAL>
0

>  <SCORE.SYSTEM.SOLV>
0

>  <SCORE.SYSTEM.norm>
0

>  <SCORE.heavy>
23

>  <SCORE.norm>
-0.967404

>  <RMSD>
8.240

$$$$
ligand
 OpenBabel02271912143D
libRbt.so/2013.1/901 2013/11/27
 23 25  0  0  0  0  0  0  0  0999 V2000
   19.7553    5.0177   32.5503 P   0  0  1  0  0  0  0  0  0  0  0  0
   21.5312    3.5125   31.3521 C   0  0  0  0  0  0  0  0  0  0  0  0
   21.1591    4.2325   32.5192 O   0  0  0  0  0  0  0  0  0  0  0  0
   22.9455    3.0190   31.5590 C   0  0  1  0  0  0  0  0  0  0  0  0
   23.0318    2.0647   32.6167 O   0  0  0  0  0  0  0  0  0  0  0  0
   23.4306    2.3477   30.2852 C   0  0  1  0  0  0  0  0  0  0  0  0
   24.7442    2.8509   29.9864 O   0  0  0  0  0  0  0  0  0  0  0  0
   23.4442    0.8566   30.5976 C   0  0  0  0  0  0  0  0  0  0  0  0
   23.4693    0.7921   32.1224 C   0  0  2  0  0  0  0  0  0  0  0  0
   22.7705   -3.8298   34.2860 N   0  0  0  0  0  0  0  0  0  0  0  0
   23.9296   -3.2409   33.9494 C   0  0  2  0  0  0  0  0  0  0  0  0
   25.0767   -3.9120   34.2051 N   0  0  0  0  0  0  0  0  0  0  0  0
   23.9492   -2.0109   33.3814 N   0  0  0  0  0  0  0  0  0  0  0  0
   22.7879   -1.3657   33.1472 C   0  0  2  0  0  0  0  0  0  0  0  0
   21.5899   -1.9572   33.4849 C   0  0  1  0  0  0  0  0  0  0  0  0
   21.5966   -3.2090   34.0703 C   0  0  0  0  0  0  0  0  0  0  0  0
   20.5211   -3.7599   34.3900 O   0  0  0  0  0  0  0  0  0  0  0  0
   20.5959   -1.1144   33.1416 N   0  0  0  0  0  0  0  0  0  0  0  0
   21.1659   -0.0193   32.6085 C   0  0  0  0  0  0  0  0  0  0  0  0
   22.4926   -0.1884   32.6079 N   0  0  1  0  0  0  0  0  0  0  0  0
   18.6701    3.9901   32.3394 O   0  0  0  0  0  0  0  0  0  0  0  0
   19.7358    5.6750   33.9111 O   0  5  0  0  0  0  0  0  0  0  0  0
   19.8936    5.9879   31.4084 O   0  0  0  0  0  0  0  0  0  0  0  0
  1  3  1  6  0  0  0
  1 21  1  0  0  0  0
  1 22  1  0  0  0  0
  1 23  2  0  0  0  0
  2  3  1  0  0  0  0
  4  2  1  6  0  0  0
  4  5  1  0  0  0  0
  4  6  1  0  0  0  0
  6  7  1  1  0  0  0
  6  8  1  0  0  0  0
  8  9  1  0  0  0  0
  9  5  1  1  0  0  0
  9 20  1  0  0  0  0
 10 11  1  0  0  0  0
 10 16  1  0  0  0  0
 11 12  1  1  0  0  0
 11 13  1  0  0  0  0
 14 13  1  6  0  0  0
 14 15  1  0  0  0  0
 14 20  1  0  0  0  0
 15 16  1  1  0  0  0
 15 18  1  0  0  0  0
 16 17  2  0  0  0  0
 18 19  1  0  0  0  0
 20 19  1  1  0  0  0
M  CHG  1  22  -1
M  END
>  <CHROM.1>
60.08984179,65.54385602,173.74568733,-135.07235754,21.92822299,1.06144867
32.60708704,1.90012523,0.46876314,-0.36367186

>  <Name>
ligand

>  <RI>
0

>  <Rbt.Current_Directory>
/home/itssahil/PROJECTS/Mol_Feturizer/Test_systems_manuscript/rnas/3slm

>  <Rbt.Executable>
rbdock ($Id: //depot/dev/client3/rdock/2013.1/src/exe/rbdock.cxx#4 $)

>  <Rbt.Library>
libRbt.so (2013.1, Build901 2013/11/27)

>  <Rbt.Parameter_File>
/export/apps/rDock/src/rDock_2013.1_src/data/scripts/dock_solv.prm

>  <Rbt.Receptor>
prm/pocket_docking_8.prm

>  <SCORE>
-26.2576

>  <SCORE.INTER>
-20.4492

>  <SCORE.INTER.CONST>
1

>  <SCORE.INTER.POLAR>
0

>  <SCORE.INTER.ROT>
4

>  <SCORE.INTER.SOLV>
21.8947

>  <SCORE.INTER.VDW>
-27.1977

>  <SCORE.INTER.norm>
-0.889095

>  <SCORE.INTRA>
-5.80946

>  <SCORE.INTRA.DIHEDRAL>
-7.07825

>  <SCORE.INTRA.DIHEDRAL.0>
8.62657

>  <SCORE.INTRA.POLAR>
0

>  <SCORE.INTRA.POLAR.0>
0

>  <SCORE.INTRA.REPUL>
0

>  <SCORE.INTRA.REPUL.0>
0

>  <SCORE.INTRA.SOLV>
-0.666325

>  <SCORE.INTRA.SOLV.lig_0>
-66.3641

>  <SCORE.INTRA.VDW>
-1.93718

>  <SCORE.INTRA.VDW.0>
0.452231

>  <SCORE.INTRA.norm>
-0.252585

>  <SCORE.RESTR>
0.00103611

>  <SCORE.RESTR.CAVITY>
0.00103611

>  <SCORE.RESTR.norm>
4.50484e-05

>  <SCORE.SYSTEM>
0

>  <SCORE.SYSTEM.CONST>
0

>  <SCORE.SYSTEM.DIHEDRAL>
0

>  <SCORE.SYSTEM.SOLV>
0

>  <SCORE.SYSTEM.norm>
0

>  <SCORE.heavy>
23

>  <SCORE.norm>
-1.14163

>  <RMSD>
8.242

$$$$
ligand
 OpenBabel02271912143D
libRbt.so/2013.1/901 2013/11/27
 23 25  0  0  0  0  0  0  0  0999 V2000
   19.5424    1.8259   27.0993 P   0  0  1  0  0  0  0  0  0  0  0  0
   20.3228    3.7782   28.6597 C   0  0  0  0  0  0  0  0  0  0  0  0
   20.2083    2.3766   28.4563 O   0  0  0  0  0  0  0  0  0  0  0  0
   21.1557    3.9863   29.9045 C   0  0  1  0  0  0  0  0  0  0  0  0
   21.2504    5.3645   30.2629 O   0  0  0  0  0  0  0  0  0  0  0  0
   20.5114    3.2465   31.0648 C   0  0  1  0  0  0  0  0  0  0  0  0
   21.5367    2.5032   31.7462 O   0  0  0  0  0  0  0  0  0  0  0  0
   19.9066    4.3318   31.9465 C   0  0  0  0  0  0  0  0  0  0  0  0
   20.6512    5.6018   31.5435 C   0  0  2  0  0  0  0  0  0  0  0  0
   19.4306   10.4459   32.7994 N   0  0  0  0  0  0  0  0  0  0  0  0
   20.4599    9.7093   33.2485 C   0  0  2  0  0  0  0  0  0  0  0  0
   21.3076   10.2822   34.1344 N   0  0  0  0  0  0  0  0  0  0  0  0
   20.6481    8.4376   32.8206 N   0  0  0  0  0  0  0  0  0  0  0  0
   19.7890    7.8990   31.9309 C   0  0  2  0  0  0  0  0  0  0  0  0
   18.7266    8.6410   31.4618 C   0  0  1  0  0  0  0  0  0  0  0  0
   18.5606    9.9385   31.9074 C   0  0  0  0  0  0  0  0  0  0  0  0
   17.6072   10.6303   31.4893 O   0  0  0  0  0  0  0  0  0  0  0  0
   18.0281    7.8739   30.6016 N   0  0  0  0  0  0  0  0  0  0  0  0
   18.6487    6.6828   30.5328 C   0  0  0  0  0  0  0  0  0  0  0  0
   19.7070    6.7073   31.3501 N   0  0  1  0  0  0  0  0  0  0  0  0
   19.2361    0.3645   27.3197 O   0  0  0  0  0  0  0  0  0  0  0  0
   18.3220    2.6976   26.9125 O   0  5  0  0  0  0  0  0  0  0  0  0
   20.6229    2.0657   26.0797 O   0  0  0  0  0  0  0  0  0  0  0  0
  1  3  1  1  0  0  0
  1 21  1  0  0  0  0
  1 22  1  0  0  0  0
  1 23  2  0  0  0  0
  2  3  1  0  0  0  0
  4  2  1  6  0  0  0
  4  5  1  0  0  0  0
  4  6  1  0  0  0  0
  6  7  1  1  0  0  0
  6  8  1  0  0  0  0
  8  9  1  0  0  0  0
  9  5  1  6  0  0  0
  9 20  1  0  0  0  0
 10 11  1  0  0  0  0
 10 16  1  0  0  0  0
 11 12  1  6  0  0  0
 11 13  1  0  0  0  0
 14 13  1  1  0  0  0
 14 15  1  0  0  0  0
 14 20  1  0  0  0  0
 15 16  1  6  0  0  0
 15 18  1  0  0  0  0
 16 17  2  0  0  0  0
 18 19  1  0  0  0  0
 20 19  1  6  0  0  0
M  CHG  1  22  -1
M  END
>  <CHROM.1>
-165.67423397,-175.52361747,-171.92718288,-116.80845637,19.82842850,5.52987241
30.29597226,1.51363167,0.83083419,-2.53175423

>  <Name>
ligand

>  <RI>
0

>  <Rbt.Current_Directory>
/home/itssahil/PROJECTS/Mol_Feturizer/Test_systems_manuscript/rnas/3slm

>  <Rbt.Executable>
rbdock ($Id: //depot/dev/client3/rdock/2013.1/src/exe/rbdock.cxx#4 $)

>  <Rbt.Library>
libRbt.so (2013.1, Build901 2013/11/27)

>  <Rbt.Parameter_File>
/export/apps/rDock/src/rDock_2013.1_src/data/scripts/dock_solv.prm

>  <Rbt.Receptor>
prm/pocket_docking_8.prm

>  <SCORE>
-18.6821

>  <SCORE.INTER>
-14.122

>  <SCORE.INTER.CONST>
1

>  <SCORE.INTER.POLAR>
0

>  <SCORE.INTER.ROT>
4

>  <SCORE.INTER.SOLV>
18.2168

>  <SCORE.INTER.VDW>
-21.7536

>  <SCORE.INTER.norm>
-0.614002

>  <SCORE.INTRA>
-4.56029

>  <SCORE.INTRA.DIHEDRAL>
-6.69728

>  <SCORE.INTRA.DIHEDRAL.0>
8.62657

>  <SCORE.INTRA.POLAR>
0

>  <SCORE.INTRA.POLAR.0>
0

>  <SCORE.INTRA.REPUL>
0

>  <SCORE.INTRA.REPUL.0>
0

>  <SCORE.INTRA.SOLV>
0.127637

>  <SCORE.INTRA.SOLV.lig_0>
-66.3641

>  <SCORE.INTRA.VDW>
-1.27547

>  <SCORE.INTRA.VDW.0>
0.452231

>  <SCORE.INTRA.norm>
-0.198274

>  <SCORE.RESTR>
0.000201581

>  <SCORE.RESTR.CAVITY>
0.000201581

>  <SCORE.RESTR.norm>
8.76441e-06

>  <SCORE.SYSTEM>
0

>  <SCORE.SYSTEM.CONST>
0

>  <SCORE.SYSTEM.DIHEDRAL>
0

>  <SCORE.SYSTEM.SOLV>
0

>  <SCORE.SYSTEM.norm>
0

>  <SCORE.heavy>
23

>  <SCORE.norm>
-0.812266

>  <RMSD>
8.243

$$$$
ligand
 OpenBabel02271912143D
libRbt.so/2013.1/901 2013/11/27
 23 25  0  0  0  0  0  0  0  0999 V2000
   19.7489    5.0317   32.6060 P   0  0  1  0  0  0  0  0  0  0  0  0
   21.5131    3.5446   31.3686 C   0  0  0  0  0  0  0  0  0  0  0  0
   21.1692    4.2793   32.5350 O   0  0  0  0  0  0  0  0  0  0  0  0
   22.9404    3.0742   31.5369 C   0  0  1  0  0  0  0  0  0  0  0  0
   23.0702    2.1187   32.5890 O   0  0  0  0  0  0  0  0  0  0  0  0
   23.4030    2.4145   30.2487 C   0  0  1  0  0  0  0  0  0  0  0  0
   24.6998    2.9405   29.9172 O   0  0  0  0  0  0  0  0  0  0  0  0
   23.4496    0.9230   30.5560 C   0  0  0  0  0  0  0  0  0  0  0  0
   23.5157    0.8549   32.0794 C   0  0  2  0  0  0  0  0  0  0  0  0
   22.9488   -3.8005   34.2095 N   0  0  0  0  0  0  0  0  0  0  0  0
   24.0882   -3.1936   33.8392 C   0  0  2  0  0  0  0  0  0  0  0  0
   25.2514   -3.8537   34.0457 N   0  0  0  0  0  0  0  0  0  0  0  0
   24.0730   -1.9569   33.2860 N   0  0  0  0  0  0  0  0  0  0  0  0
   22.8967   -1.3230   33.1012 C   0  0  2  0  0  0  0  0  0  0  0  0
   21.7185   -1.9330   33.4739 C   0  0  1  0  0  0  0  0  0  0  0  0
   21.7607   -3.1915   34.0434 C   0  0  0  0  0  0  0  0  0  0  0  0
   20.7039   -3.7592   34.3943 O   0  0  0  0  0  0  0  0  0  0  0  0
   20.7030   -1.0983   33.1766 N   0  0  0  0  0  0  0  0  0  0  0  0
   21.2408    0.0099   32.6371 C   0  0  0  0  0  0  0  0  0  0  0  0
   22.5685   -0.1430   32.5872 N   0  0  1  0  0  0  0  0  0  0  0  0
   18.6837    3.9849   32.3877 O   0  0  0  0  0  0  0  0  0  0  0  0
   19.7363    5.6568   33.9820 O   0  5  0  0  0  0  0  0  0  0  0  0
   19.8475    6.0308   31.4851 O   0  0  0  0  0  0  0  0  0  0  0  0
  1  3  1  6  0  0  0
  1 21  1  0  0  0  0
  1 22  1  0  0  0  0
  1 23  2  0  0  0  0
  2  3  1  0  0  0  0
  4  2  1  6  0  0  0
  4  5  1  0  0  0  0
  4  6  1  0  0  0  0
  6  7  1  1  0  0  0
  6  8  1  0  0  0  0
  8  9  1  0  0  0  0
  9  5  1  1  0  0  0
  9 20  1  0  0  0  0
 10 11  1  0  0  0  0
 10 16  1  0  0  0  0
 11 12  1  1  0  0  0
 11 13  1  0  0  0  0
 14 13  1  6  0  0  0
 14 15  1  0  0  0  0
 14 20  1  0  0  0  0
 15 16  1  1  0  0  0
 15 18  1  0  0  0  0
 16 17  2  0  0  0  0
 18 19  1  0  0  0  0
 20 19  1  1  0  0  0
M  CHG  1  22  -1
M  END
>  <CHROM.1>
57.26467794,66.75555169,174.44181998,-135.87535897,21.98451963,1.09780219
32.59394149,1.92712311,0.48718430,-0.36976016

>  <Name>
ligand

>  <RI>
0

>  <Rbt.Current_Directory>
/home/itssahil/PROJECTS/Mol_Feturizer/Test_systems_manuscript/rnas/3slm

>  <Rbt.Executable>
rbdock ($Id: //depot/dev/client3/rdock/2013.1/src/exe/rbdock.cxx#4 $)

>  <Rbt.Library>
libRbt.so (2013.1, Build901 2013/11/27)

>  <Rbt.Parameter_File>
/export/apps/rDock/src/rDock_2013.1_src/data/scripts/dock_solv.prm

>  <Rbt.Receptor>
prm/pocket_docking_8.prm

>  <SCORE>
-26.3207

>  <SCORE.INTER>
-20.5008

>  <SCORE.INTER.CONST>
1

>  <SCORE.INTER.POLAR>
0

>  <SCORE.INTER.ROT>
4

>  <SCORE.INTER.SOLV>
22.403

>  <SCORE.INTER.VDW>
-27.4015

>  <SCORE.INTER.norm>
-0.891338

>  <SCORE.INTRA>
-5.82442

>  <SCORE.INTRA.DIHEDRAL>
-7.05602

>  <SCORE.INTRA.DIHEDRAL.0>
8.62657

>  <SCORE.INTRA.POLAR>
0

>  <SCORE.INTRA.POLAR.0>
0

>  <SCORE.INTRA.REPUL>
0

>  <SCORE.INTRA.REPUL.0>
0

>  <SCORE.INTRA.SOLV>
-0.694345

>  <SCORE.INTRA.SOLV.lig_0>
-66.3641

>  <SCORE.INTRA.VDW>
-1.94924

>  <SCORE.INTRA.VDW.0>
0.452231

>  <SCORE.INTRA.norm>
-0.253236

>  <SCORE.RESTR>
0.00447162

>  <SCORE.RESTR.CAVITY>
0.00447162

>  <SCORE.RESTR.norm>
0.000194418

>  <SCORE.SYSTEM>
0

>  <SCORE.SYSTEM.CONST>
0

>  <SCORE.SYSTEM.DIHEDRAL>
0

>  <SCORE.SYSTEM.SOLV>
0

>  <SCORE.SYSTEM.norm>
0

>  <SCORE.heavy>
23

>  <SCORE.norm>
-1.14438

>  <RMSD>
8.243

$$$$
ligand
 OpenBabel02271912143D
libRbt.so/2013.1/901 2013/11/27
 23 25  0  0  0  0  0  0  0  0999 V2000
   19.8191    5.2772   32.3965 P   0  0  1  0  0  0  0  0  0  0  0  0
   21.7171    3.4757   32.3087 C   0  0  0  0  0  0  0  0  0  0  0  0
   21.1720    4.6723   31.7703 O   0  0  0  0  0  0  0  0  0  0  0  0
   23.0207    3.2111   31.5896 C   0  0  1  0  0  0  0  0  0  0  0  0
   23.7886    2.1915   32.2281 O   0  0  0  0  0  0  0  0  0  0  0  0
   22.7239    2.7519   30.1720 C   0  0  1  0  0  0  0  0  0  0  0  0
   23.5671    3.4951   29.2750 O   0  0  0  0  0  0  0  0  0  0  0  0
   23.0423    1.2621   30.1578 C   0  0  0  0  0  0  0  0  0  0  0  0
   23.9593    1.0622   31.3616 C   0  0  2  0  0  0  0  0  0  0  0  0
   25.1300   -3.7331   32.8335 N   0  0  0  0  0  0  0  0  0  0  0  0
   25.8325   -2.9207   32.0271 C   0  0  2  0  0  0  0  0  0  0  0  0
   27.0031   -3.3827   31.5293 N   0  0  0  0  0  0  0  0  0  0  0  0
   25.3876   -1.6758   31.7302 N   0  0  0  0  0  0  0  0  0  0  0  0
   24.2202   -1.2431   32.2495 C   0  0  2  0  0  0  0  0  0  0  0  0
   23.4865   -2.0652   33.0771 C   0  0  1  0  0  0  0  0  0  0  0  0
   23.9654   -3.3277   33.3713 C   0  0  0  0  0  0  0  0  0  0  0  0
   23.3182   -4.0864   34.1250 O   0  0  0  0  0  0  0  0  0  0  0  0
   22.3736   -1.4010   33.4468 N   0  0  0  0  0  0  0  0  0  0  0  0
   22.4195   -0.1889   32.8662 C   0  0  0  0  0  0  0  0  0  0  0  0
   23.5370   -0.1097   32.1357 N   0  0  1  0  0  0  0  0  0  0  0  0
   20.0589    5.4553   33.8760 O   0  0  0  0  0  0  0  0  0  0  0  0
   19.6124    6.5683   31.6384 O   0  5  0  0  0  0  0  0  0  0  0  0
   18.8027    4.2148   32.0765 O   0  0  0  0  0  0  0  0  0  0  0  0
  1  3  1  6  0  0  0
  1 21  1  0  0  0  0
  1 22  1  0  0  0  0
  1 23  2  0  0  0  0
  2  3  1  0  0  0  0
  4  2  1  1  0  0  0
  4  5  1  0  0  0  0
  4  6  1  0  0  0  0
  6  7  1  6  0  0  0
  6  8  1  0  0  0  0
  8  9  1  0  0  0  0
  9  5  1  1  0  0  0
  9 20  1  0  0  0  0
 10 11  1  0  0  0  0
 10 16  1  0  0  0  0
 11 12  1  1  0  0  0
 11 13  1  0  0  0  0
 14 13  1  6  0  0  0
 14 15  1  0  0  0  0
 14 20  1  0  0  0  0
 15 16  1  1  0  0  0
 15 18  1  0  0  0  0
 16 17  2  0  0  0  0
 18 19  1  0  0  0  0
 20 19  1  1  0  0  0
M  CHG  1  22  -1
M  END
>  <CHROM.1>
55.07380380,168.11040404,-176.18149587,-131.74246212,22.70484194,1.23520794
32.10509541,2.23686238,0.65853748,-0.51964876

>  <Name>
ligand

>  <RI>
0

>  <Rbt.Current_Directory>
/home/itssahil/PROJECTS/Mol_Feturizer/Test_systems_manuscript/rnas/3slm

>  <Rbt.Executable>
rbdock ($Id: //depot/dev/client3/rdock/2013.1/src/exe/rbdock.cxx#4 $)

>  <Rbt.Library>
libRbt.so (2013.1, Build901 2013/11/27)

>  <Rbt.Parameter_File>
/export/apps/rDock/src/rDock_2013.1_src/data/scripts/dock_solv.prm

>  <Rbt.Receptor>
prm/pocket_docking_7.prm

>  <SCORE>
-22.2236

>  <SCORE.INTER>
-16.7368

>  <SCORE.INTER.CONST>
1

>  <SCORE.INTER.POLAR>
0

>  <SCORE.INTER.ROT>
4

>  <SCORE.INTER.SOLV>
19.5761

>  <SCORE.INTER.VDW>
-23.9499

>  <SCORE.INTER.norm>
-0.727685

>  <SCORE.INTRA>
-5.48686

>  <SCORE.INTRA.DIHEDRAL>
-6.79273

>  <SCORE.INTRA.DIHEDRAL.0>
8.62657

>  <SCORE.INTRA.POLAR>
0

>  <SCORE.INTRA.POLAR.0>
0

>  <SCORE.INTRA.REPUL>
0

>  <SCORE.INTRA.REPUL.0>
0

>  <SCORE.INTRA.SOLV>
-0.568586

>  <SCORE.INTRA.SOLV.lig_0>
-66.3641

>  <SCORE.INTRA.VDW>
-1.8062

>  <SCORE.INTRA.VDW.0>
0.452231

>  <SCORE.INTRA.norm>
-0.238559

>  <SCORE.RESTR>
0

>  <SCORE.RESTR.CAVITY>
0

>  <SCORE.RESTR.norm>
0

>  <SCORE.SYSTEM>
0

>  <SCORE.SYSTEM.CONST>
0

>  <SCORE.SYSTEM.DIHEDRAL>
0

>  <SCORE.SYSTEM.SOLV>
0

>  <SCORE.SYSTEM.norm>
0

>  <SCORE.heavy>
23

>  <SCORE.norm>
-0.966245

>  <RMSD>
8.247

$$$$
ligand
 OpenBabel02271912143D
libRbt.so/2013.1/901 2013/11/27
 23 25  0  0  0  0  0  0  0  0999 V2000
   19.7873    5.1066   32.6209 P   0  0  1  0  0  0  0  0  0  0  0  0
   21.5099    3.5589   31.3991 C   0  0  0  0  0  0  0  0  0  0  0  0
   21.2090    4.3586   32.5344 O   0  0  0  0  0  0  0  0  0  0  0  0
   22.9341    3.0748   31.5537 C   0  0  1  0  0  0  0  0  0  0  0  0
   23.0628    2.1096   32.5971 O   0  0  0  0  0  0  0  0  0  0  0  0
   23.3820    2.4216   30.2571 C   0  0  1  0  0  0  0  0  0  0  0  0
   24.6810    2.9389   29.9207 O   0  0  0  0  0  0  0  0  0  0  0  0
   23.4176    0.9273   30.5519 C   0  0  0  0  0  0  0  0  0  0  0  0
   23.4936    0.8462   32.0742 C   0  0  2  0  0  0  0  0  0  0  0  0
   22.9057   -3.7830   34.2551 N   0  0  0  0  0  0  0  0  0  0  0  0
   24.0491   -3.1780   33.8941 C   0  0  2  0  0  0  0  0  0  0  0  0
   25.2107   -3.8325   34.1264 N   0  0  0  0  0  0  0  0  0  0  0  0
   24.0394   -1.9485   33.3249 N   0  0  0  0  0  0  0  0  0  0  0  0
   22.8645   -1.3201   33.1144 C   0  0  2  0  0  0  0  0  0  0  0  0
   21.6822   -1.9282   33.4774 C   0  0  1  0  0  0  0  0  0  0  0  0
   21.7189   -3.1791   34.0634 C   0  0  0  0  0  0  0  0  0  0  0  0
   20.6582   -3.7450   34.4058 O   0  0  0  0  0  0  0  0  0  0  0  0
   20.6694   -1.0999   33.1542 N   0  0  0  0  0  0  0  0  0  0  0  0
   21.2126    0.0027   32.6086 C   0  0  0  0  0  0  0  0  0  0  0  0
   22.5413   -0.1475   32.5806 N   0  0  1  0  0  0  0  0  0  0  0  0
   18.7218    4.0452   32.4934 O   0  0  0  0  0  0  0  0  0  0  0  0
   19.8209    5.7982   33.9643 O   0  5  0  0  0  0  0  0  0  0  0  0
   19.8382    6.0501   31.4498 O   0  0  0  0  0  0  0  0  0  0  0  0
  1  3  1  6  0  0  0
  1 21  1  0  0  0  0
  1 22  1  0  0  0  0
  1 23  2  0  0  0  0
  2  3  1  0  0  0  0
  4  2  1  6  0  0  0
  4  5  1  0  0  0  0
  4  6  1  0  0  0  0
  6  7  1  1  0  0  0
  6  8  1  0  0  0  0
  8  9  1  0  0  0  0
  9  5  1  1  0  0  0
  9 20  1  0  0  0  0
 10 11  1  0  0  0  0
 10 16  1  0  0  0  0
 11 12  1  1  0  0  0
 11 13  1  0  0  0  0
 14 13  1  6  0  0  0
 14 15  1  0  0  0  0
 14 20  1  0  0  0  0
 15 16  1  1  0  0  0
 15 18  1  0  0  0  0
 16 17  2  0  0  0  0
 18 19  1  0  0  0  0
 20 19  1  1  0  0  0
M  CHG  1  22  -1
M  END
>  <CHROM.1>
56.66528338,70.40943071,175.98446362,-134.02617805,21.97489856,1.12233000
32.60853294,1.91617090,0.49326187,-0.36693665

>  <Name>
ligand

>  <RI>
0

>  <Rbt.Current_Directory>
/home/itssahil/PROJECTS/Mol_Feturizer/Test_systems_manuscript/rnas/3slm

>  <Rbt.Executable>
rbdock ($Id: //depot/dev/client3/rdock/2013.1/src/exe/rbdock.cxx#4 $)

>  <Rbt.Library>
libRbt.so (2013.1, Build901 2013/11/27)

>  <Rbt.Parameter_File>
/export/apps/rDock/src/rDock_2013.1_src/data/scripts/dock_solv.prm

>  <Rbt.Receptor>
prm/pocket_docking_8.prm

>  <SCORE>
-26.3228

>  <SCORE.INTER>
-20.5892

>  <SCORE.INTER.CONST>
1

>  <SCORE.INTER.POLAR>
0

>  <SCORE.INTER.ROT>
4

>  <SCORE.INTER.SOLV>
22.0783

>  <SCORE.INTER.VDW>
-27.3523

>  <SCORE.INTER.norm>
-0.895185

>  <SCORE.INTRA>
-5.73357

>  <SCORE.INTRA.DIHEDRAL>
-6.90739

>  <SCORE.INTRA.DIHEDRAL.0>
8.62657

>  <SCORE.INTRA.POLAR>
0

>  <SCORE.INTRA.POLAR.0>
0

>  <SCORE.INTRA.REPUL>
0

>  <SCORE.INTRA.REPUL.0>
0

>  <SCORE.INTRA.SOLV>
-0.716539

>  <SCORE.INTRA.SOLV.lig_0>
-66.3641

>  <SCORE.INTRA.VDW>
-1.92161

>  <SCORE.INTRA.VDW.0>
0.452231

>  <SCORE.INTRA.norm>
-0.249286

>  <SCORE.RESTR>
0

>  <SCORE.RESTR.CAVITY>
0

>  <SCORE.RESTR.norm>
0

>  <SCORE.SYSTEM>
0

>  <SCORE.SYSTEM.CONST>
0

>  <SCORE.SYSTEM.DIHEDRAL>
0

>  <SCORE.SYSTEM.SOLV>
0

>  <SCORE.SYSTEM.norm>
0

>  <SCORE.heavy>
23

>  <SCORE.norm>
-1.14447

>  <RMSD>
8.249

$$$$
ligand
 OpenBabel02271912143D
libRbt.so/2013.1/901 2013/11/27
 23 25  0  0  0  0  0  0  0  0999 V2000
   19.7175    4.9685   32.5743 P   0  0  1  0  0  0  0  0  0  0  0  0
   21.5109    3.5023   31.3541 C   0  0  0  0  0  0  0  0  0  0  0  0
   21.1312    4.2017   32.5310 O   0  0  0  0  0  0  0  0  0  0  0  0
   22.9350    3.0326   31.5487 C   0  0  1  0  0  0  0  0  0  0  0  0
   23.0468    2.0817   32.6071 O   0  0  0  0  0  0  0  0  0  0  0  0
   23.4195    2.3672   30.2716 C   0  0  1  0  0  0  0  0  0  0  0  0
   24.7217    2.8916   29.9599 O   0  0  0  0  0  0  0  0  0  0  0  0
   23.4607    0.8771   30.5862 C   0  0  0  0  0  0  0  0  0  0  0  0
   23.5007    0.8157   32.1107 C   0  0  2  0  0  0  0  0  0  0  0  0
   22.8968   -3.8338   34.2436 N   0  0  0  0  0  0  0  0  0  0  0  0
   24.0423   -3.2291   33.8889 C   0  0  2  0  0  0  0  0  0  0  0  0
   25.2016   -3.8899   34.1145 N   0  0  0  0  0  0  0  0  0  0  0  0
   24.0368   -1.9937   33.3325 N   0  0  0  0  0  0  0  0  0  0  0  0
   22.8641   -1.3591   33.1285 C   0  0  2  0  0  0  0  0  0  0  0  0
   21.6797   -1.9668   33.4850 C   0  0  1  0  0  0  0  0  0  0  0  0
   21.7120   -3.2239   34.0582 C   0  0  0  0  0  0  0  0  0  0  0  0
   20.6494   -3.7896   34.3946 O   0  0  0  0  0  0  0  0  0  0  0  0
   20.6698   -1.1317   33.1704 N   0  0  0  0  0  0  0  0  0  0  0  0
   21.2168   -0.0255   32.6363 C   0  0  0  0  0  0  0  0  0  0  0  0
   22.5450   -0.1800   32.6068 N   0  0  1  0  0  0  0  0  0  0  0  0
   18.6476    3.9365   32.3126 O   0  0  0  0  0  0  0  0  0  0  0  0
   19.6741    5.5745   33.9582 O   0  5  0  0  0  0  0  0  0  0  0  0
   19.8569    5.9820   31.4708 O   0  0  0  0  0  0  0  0  0  0  0  0
  1  3  1  6  0  0  0
  1 21  1  0  0  0  0
  1 22  1  0  0  0  0
  1 23  2  0  0  0  0
  2  3  1  0  0  0  0
  4  2  1  6  0  0  0
  4  5  1  0  0  0  0
  4  6  1  0  0  0  0
  6  7  1  1  0  0  0
  6  8  1  0  0  0  0
  8  9  1  0  0  0  0
  9  5  1  1  0  0  0
  9 20  1  0  0  0  0
 10 11  1  0  0  0  0
 10 16  1  0  0  0  0
 11 12  1  1  0  0  0
 11 13  1  0  0  0  0
 14 13  1  6  0  0  0
 14 15  1  0  0  0  0
 14 20  1  0  0  0  0
 15 16  1  1  0  0  0
 15 18  1  0  0  0  0
 16 17  2  0  0  0  0
 18 19  1  0  0  0  0
 20 19  1  1  0  0  0
M  CHG  1  22  -1
M  END
>  <CHROM.1>
58.53825492,64.73749261,173.35442862,-136.04621189,21.95854131,1.05255047
32.60190242,1.92216596,0.47258316,-0.37031758

>  <Name>
ligand

>  <RI>
0

>  <Rbt.Current_Directory>
/home/itssahil/PROJECTS/Mol_Feturizer/Test_systems_manuscript/rnas/3slm

>  <Rbt.Executable>
rbdock ($Id: //depot/dev/client3/rdock/2013.1/src/exe/rbdock.cxx#4 $)

>  <Rbt.Library>
libRbt.so (2013.1, Build901 2013/11/27)

>  <Rbt.Parameter_File>
/export/apps/rDock/src/rDock_2013.1_src/data/scripts/dock_solv.prm

>  <Rbt.Receptor>
prm/pocket_docking_8.prm

>  <SCORE>
-26.3207

>  <SCORE.INTER>
-20.486

>  <SCORE.INTER.CONST>
1

>  <SCORE.INTER.POLAR>
0

>  <SCORE.INTER.ROT>
4

>  <SCORE.INTER.SOLV>
22.3962

>  <SCORE.INTER.VDW>
-27.3894

>  <SCORE.INTER.norm>
-0.890698

>  <SCORE.INTRA>
-5.83907

>  <SCORE.INTRA.DIHEDRAL>
-7.08086

>  <SCORE.INTRA.DIHEDRAL.0>
8.62657

>  <SCORE.INTRA.POLAR>
0

>  <SCORE.INTRA.POLAR.0>
0

>  <SCORE.INTRA.REPUL>
0

>  <SCORE.INTRA.REPUL.0>
0

>  <SCORE.INTRA.SOLV>
-0.67419

>  <SCORE.INTRA.SOLV.lig_0>
-66.3641

>  <SCORE.INTRA.VDW>
-1.96155

>  <SCORE.INTRA.VDW.0>
0.452231

>  <SCORE.INTRA.norm>
-0.253873

>  <SCORE.RESTR>
0.00443085

>  <SCORE.RESTR.CAVITY>
0.00443085

>  <SCORE.RESTR.norm>
0.000192646

>  <SCORE.SYSTEM>
0

>  <SCORE.SYSTEM.CONST>
0

>  <SCORE.SYSTEM.DIHEDRAL>
0

>  <SCORE.SYSTEM.SOLV>
0

>  <SCORE.SYSTEM.norm>
0

>  <SCORE.heavy>
23

>  <SCORE.norm>
-1.14438

>  <RMSD>
8.251

$$$$
ligand
 OpenBabel02271912143D
libRbt.so/2013.1/901 2013/11/27
 23 25  0  0  0  0  0  0  0  0999 V2000
   19.8751    5.5293   31.7470 P   0  0  1  0  0  0  0  0  0  0  0  0
   21.5467    3.5722   32.2276 C   0  0  0  0  0  0  0  0  0  0  0  0
   21.2236    4.7083   31.4378 O   0  0  0  0  0  0  0  0  0  0  0  0
   22.9086    3.0875   31.7839 C   0  0  1  0  0  0  0  0  0  0  0  0
   23.3694    1.9885   32.5691 O   0  0  0  0  0  0  0  0  0  0  0  0
   22.8268    2.6256   30.3387 C   0  0  1  0  0  0  0  0  0  0  0  0
   23.9339    3.1992   29.6222 O   0  0  0  0  0  0  0  0  0  0  0  0
   22.9070    1.1053   30.3982 C   0  0  0  0  0  0  0  0  0  0  0  0
   23.5288    0.8147   31.7616 C   0  0  2  0  0  0  0  0  0  0  0  0
   23.7428   -3.9140   33.7927 N   0  0  0  0  0  0  0  0  0  0  0  0
   24.7250   -3.2305   33.1829 C   0  0  2  0  0  0  0  0  0  0  0  0
   25.9374   -3.8230   33.0805 N   0  0  0  0  0  0  0  0  0  0  0  0
   24.5106   -1.9847   32.6953 N   0  0  0  0  0  0  0  0  0  0  0  0
   23.2922   -1.4196   32.8209 C   0  0  2  0  0  0  0  0  0  0  0  0
   22.2731   -2.1085   33.4422 C   0  0  1  0  0  0  0  0  0  0  0  0
   22.5188   -3.3748   33.9383 C   0  0  0  0  0  0  0  0  0  0  0  0
   21.6098   -4.0136   34.5109 O   0  0  0  0  0  0  0  0  0  0  0  0
   21.1727   -1.3306   33.4275 N   0  0  0  0  0  0  0  0  0  0  0  0
   21.5042   -0.1797   32.8161 C   0  0  0  0  0  0  0  0  0  0  0  0
   22.7870   -0.2504   32.4443 N   0  0  1  0  0  0  0  0  0  0  0  0
   18.7568    4.5203   31.8445 O   0  0  0  0  0  0  0  0  0  0  0  0
   20.1771    6.2523   33.0394 O   0  5  0  0  0  0  0  0  0  0  0  0
   19.7606    6.4389   30.5537 O   0  0  0  0  0  0  0  0  0  0  0  0
  1  3  1  6  0  0  0
  1 21  1  0  0  0  0
  1 22  1  0  0  0  0
  1 23  2  0  0  0  0
  2  3  1  0  0  0  0
  4  2  1  1  0  0  0
  4  5  1  0  0  0  0
  4  6  1  0  0  0  0
  6  7  1  6  0  0  0
  6  8  1  0  0  0  0
  8  9  1  0  0  0  0
  9  5  1  1  0  0  0
  9 20  1  0  0  0  0
 10 11  1  0  0  0  0
 10 16  1  0  0  0  0
 11 12  1  1  0  0  0
 11 13  1  0  0  0  0
 14 13  1  6  0  0  0
 14 15  1  0  0  0  0
 14 20  1  0  0  0  0
 15 16  1  1  0  0  0
 15 18  1  0  0  0  0
 16 17  2  0  0  0  0
 18 19  1  0  0  0  0
 20 19  1  1  0  0  0
M  CHG  1  22  -1
M  END
>  <CHROM.1>
-49.05248988,176.59828612,-175.31320873,-124.46124422,22.19495171,1.20283569
32.26239851,1.96940954,0.47979689,-0.41668580

>  <Name>
ligand

>  <RI>
0

>  <Rbt.Current_Directory>
/home/itssahil/PROJECTS/Mol_Feturizer/Test_systems_manuscript/rnas/3slm

>  <Rbt.Executable>
rbdock ($Id: //depot/dev/client3/rdock/2013.1/src/exe/rbdock.cxx#4 $)

>  <Rbt.Library>
libRbt.so (2013.1, Build901 2013/11/27)

>  <Rbt.Parameter_File>
/export/apps/rDock/src/rDock_2013.1_src/data/scripts/dock_solv.prm

>  <Rbt.Receptor>
prm/pocket_docking_7.prm

>  <SCORE>
-22.716

>  <SCORE.INTER>
-17.1551

>  <SCORE.INTER.CONST>
1

>  <SCORE.INTER.POLAR>
0

>  <SCORE.INTER.ROT>
4

>  <SCORE.INTER.SOLV>
15.6472

>  <SCORE.INTER.VDW>
-22.9192

>  <SCORE.INTER.norm>
-0.745876

>  <SCORE.INTRA>
-5.56087

>  <SCORE.INTRA.DIHEDRAL>
-7.04971

>  <SCORE.INTRA.DIHEDRAL.0>
8.62657

>  <SCORE.INTRA.POLAR>
0

>  <SCORE.INTRA.POLAR.0>
0

>  <SCORE.INTRA.REPUL>
0

>  <SCORE.INTRA.REPUL.0>
0

>  <SCORE.INTRA.SOLV>
-0.613239

>  <SCORE.INTRA.SOLV.lig_0>
-66.3641

>  <SCORE.INTRA.VDW>
-1.72939

>  <SCORE.INTRA.VDW.0>
0.452231

>  <SCORE.INTRA.norm>
-0.241777

>  <SCORE.RESTR>
0

>  <SCORE.RESTR.CAVITY>
0

>  <SCORE.RESTR.norm>
0

>  <SCORE.SYSTEM>
0

>  <SCORE.SYSTEM.CONST>
0

>  <SCORE.SYSTEM.DIHEDRAL>
0

>  <SCORE.SYSTEM.SOLV>
0

>  <SCORE.SYSTEM.norm>
0

>  <SCORE.heavy>
23

>  <SCORE.norm>
-0.987652

>  <RMSD>
8.264

$$$$
ligand
 OpenBabel02271912143D
libRbt.so/2013.1/901 2013/11/27
 23 25  0  0  0  0  0  0  0  0999 V2000
   19.7207    5.0131   32.5803 P   0  0  1  0  0  0  0  0  0  0  0  0
   21.4666    3.4534   31.4078 C   0  0  0  0  0  0  0  0  0  0  0  0
   21.1362    4.2497   32.5372 O   0  0  0  0  0  0  0  0  0  0  0  0
   22.8892    2.9759   31.5938 C   0  0  1  0  0  0  0  0  0  0  0  0
   23.0016    2.0214   32.6489 O   0  0  0  0  0  0  0  0  0  0  0  0
   23.3637    2.3117   30.3124 C   0  0  1  0  0  0  0  0  0  0  0  0
   24.6670    2.8303   29.9954 O   0  0  0  0  0  0  0  0  0  0  0  0
   23.3988    0.8205   30.6225 C   0  0  0  0  0  0  0  0  0  0  0  0
   23.4464    0.7545   32.1466 C   0  0  2  0  0  0  0  0  0  0  0  0
   22.8306   -3.8876   34.2923 N   0  0  0  0  0  0  0  0  0  0  0  0
   23.9777   -3.2863   33.9368 C   0  0  2  0  0  0  0  0  0  0  0  0
   25.1354   -3.9490   34.1652 N   0  0  0  0  0  0  0  0  0  0  0  0
   23.9754   -2.0525   33.3769 N   0  0  0  0  0  0  0  0  0  0  0  0
   22.8042   -1.4159   33.1701 C   0  0  2  0  0  0  0  0  0  0  0  0
   21.6183   -2.0201   33.5274 C   0  0  1  0  0  0  0  0  0  0  0  0
   21.6474   -3.2756   34.1041 C   0  0  0  0  0  0  0  0  0  0  0  0
   20.5832   -3.8381   34.4413 O   0  0  0  0  0  0  0  0  0  0  0  0
   20.6104   -1.1838   33.2096 N   0  0  0  0  0  0  0  0  0  0  0  0
   21.1602   -0.0802   32.6727 C   0  0  0  0  0  0  0  0  0  0  0  0
   22.4881   -0.2377   32.6447 N   0  0  1  0  0  0  0  0  0  0  0  0
   18.6497    3.9681   32.3823 O   0  0  0  0  0  0  0  0  0  0  0  0
   19.7041    5.6732   33.9397 O   0  5  0  0  0  0  0  0  0  0  0  0
   19.8327    5.9825   31.4348 O   0  0  0  0  0  0  0  0  0  0  0  0
  1  3  1  6  0  0  0
  1 21  1  0  0  0  0
  1 22  1  0  0  0  0
  1 23  2  0  0  0  0
  2  3  1  0  0  0  0
  4  2  1  6  0  0  0
  4  5  1  0  0  0  0
  4  6  1  0  0  0  0
  6  7  1  1  0  0  0
  6  8  1  0  0  0  0
  8  9  1  0  0  0  0
  9  5  1  1  0  0  0
  9 20  1  0  0  0  0
 10 11  1  0  0  0  0
 10 16  1  0  0  0  0
 11 12  1  1  0  0  0
 11 13  1  0  0  0  0
 14 13  1  6  0  0  0
 14 15  1  0  0  0  0
 14 20  1  0  0  0  0
 15 16  1  1  0  0  0
 15 18  1  0  0  0  0
 16 17  2  0  0  0  0
 18 19  1  0  0  0  0
 20 19  1  1  0  0  0
M  CHG  1  22  -1
M  END
>  <CHROM.1>
55.54843616,69.71857440,174.84038293,-135.54347922,21.91767061,1.02478731
32.63432305,1.91167809,0.47587399,-0.36739585

>  <Name>
ligand

>  <RI>
0

>  <Rbt.Current_Directory>
/home/itssahil/PROJECTS/Mol_Feturizer/Test_systems_manuscript/rnas/3slm

>  <Rbt.Executable>
rbdock ($Id: //depot/dev/client3/rdock/2013.1/src/exe/rbdock.cxx#4 $)

>  <Rbt.Library>
libRbt.so (2013.1, Build901 2013/11/27)

>  <Rbt.Parameter_File>
/export/apps/rDock/src/rDock_2013.1_src/data/scripts/dock_solv.prm

>  <Rbt.Receptor>
prm/pocket_docking_8.prm

>  <SCORE>
-26.2836

>  <SCORE.INTER>
-20.5571

>  <SCORE.INTER.CONST>
1

>  <SCORE.INTER.POLAR>
0

>  <SCORE.INTER.ROT>
4

>  <SCORE.INTER.SOLV>
21.9364

>  <SCORE.INTER.VDW>
-27.2835

>  <SCORE.INTER.norm>
-0.893788

>  <SCORE.INTRA>
-5.72682

>  <SCORE.INTRA.DIHEDRAL>
-6.88877

>  <SCORE.INTRA.DIHEDRAL.0>
8.62657

>  <SCORE.INTRA.POLAR>
0

>  <SCORE.INTRA.POLAR.0>
0

>  <SCORE.INTRA.REPUL>
0

>  <SCORE.INTRA.REPUL.0>
0

>  <SCORE.INTRA.SOLV>
-0.720609

>  <SCORE.INTRA.SOLV.lig_0>
-66.3641

>  <SCORE.INTRA.VDW>
-1.92214

>  <SCORE.INTRA.VDW.0>
0.452231

>  <SCORE.INTRA.norm>
-0.248992

>  <SCORE.RESTR>
0.000326216

>  <SCORE.RESTR.CAVITY>
0.000326216

>  <SCORE.RESTR.norm>
1.41833e-05

>  <SCORE.SYSTEM>
0

>  <SCORE.SYSTEM.CONST>
0

>  <SCORE.SYSTEM.DIHEDRAL>
0

>  <SCORE.SYSTEM.SOLV>
0

>  <SCORE.SYSTEM.norm>
0

>  <SCORE.heavy>
23

>  <SCORE.norm>
-1.14277

>  <RMSD>
8.277

$$$$
ligand
 OpenBabel02271912143D
libRbt.so/2013.1/901 2013/11/27
 23 25  0  0  0  0  0  0  0  0999 V2000
   19.7206    5.0943   32.5623 P   0  0  1  0  0  0  0  0  0  0  0  0
   21.4516    3.4942   31.4226 C   0  0  0  0  0  0  0  0  0  0  0  0
   21.1289    4.3168   32.5353 O   0  0  0  0  0  0  0  0  0  0  0  0
   22.8799    3.0320   31.6033 C   0  0  1  0  0  0  0  0  0  0  0  0
   23.0050    2.0719   32.6518 O   0  0  0  0  0  0  0  0  0  0  0  0
   23.3600    2.3818   30.3167 C   0  0  1  0  0  0  0  0  0  0  0  0
   24.6568    2.9176   30.0012 O   0  0  0  0  0  0  0  0  0  0  0  0
   23.4129    0.8891   30.6169 C   0  0  0  0  0  0  0  0  0  0  0  0
   23.4637    0.8136   32.1405 C   0  0  2  0  0  0  0  0  0  0  0  0
   22.9060   -3.8392   34.2789 N   0  0  0  0  0  0  0  0  0  0  0  0
   24.0458   -3.2210   33.9289 C   0  0  2  0  0  0  0  0  0  0  0  0
   25.2120   -3.8671   34.1616 N   0  0  0  0  0  0  0  0  0  0  0  0
   24.0280   -1.9868   33.3702 N   0  0  0  0  0  0  0  0  0  0  0  0
   22.8486   -1.3670   33.1590 C   0  0  2  0  0  0  0  0  0  0  0  0
   21.6700   -1.9887   33.5106 C   0  0  1  0  0  0  0  0  0  0  0  0
   21.7148   -3.2442   34.0862 C   0  0  0  0  0  0  0  0  0  0  0  0
   20.6575   -3.8224   34.4182 O   0  0  0  0  0  0  0  0  0  0  0  0
   20.6515   -1.1666   33.1893 N   0  0  0  0  0  0  0  0  0  0  0  0
   21.1876   -0.0547   32.6559 C   0  0  0  0  0  0  0  0  0  0  0  0
   22.5177   -0.1929   32.6335 N   0  0  1  0  0  0  0  0  0  0  0  0
   18.6379    4.0507   32.4323 O   0  0  0  0  0  0  0  0  0  0  0  0
   19.7310    5.8204   33.8878 O   0  5  0  0  0  0  0  0  0  0  0  0
   19.8228    6.0054   31.3690 O   0  0  0  0  0  0  0  0  0  0  0  0
  1  3  1  6  0  0  0
  1 21  1  0  0  0  0
  1 22  1  0  0  0  0
  1 23  2  0  0  0  0
  2  3  1  0  0  0  0
  4  2  1  6  0  0  0
  4  5  1  0  0  0  0
  4  6  1  0  0  0  0
  6  7  1  1  0  0  0
  6  8  1  0  0  0  0
  8  9  1  0  0  0  0
  9  5  1  1  0  0  0
  9 20  1  0  0  0  0
 10 11  1  0  0  0  0
 10 16  1  0  0  0  0
 11 12  1  1  0  0  0
 11 13  1  0  0  0  0
 14 13  1  6  0  0  0
 14 15  1  0  0  0  0
 14 20  1  0  0  0  0
 15 16  1  1  0  0  0
 15 18  1  0  0  0  0
 16 17  2  0  0  0  0
 18 19  1  0  0  0  0
 20 19  1  1  0  0  0
M  CHG  1  22  -1
M  END
>  <CHROM.1>
57.40635347,71.67588920,173.61139645,-135.05044253,21.94135954,1.08382020
32.62464117,1.91841050,0.47087436,-0.36797879

>  <Name>
ligand

>  <RI>
0

>  <Rbt.Current_Directory>
/home/itssahil/PROJECTS/Mol_Feturizer/Test_systems_manuscript/rnas/3slm

>  <Rbt.Executable>
rbdock ($Id: //depot/dev/client3/rdock/2013.1/src/exe/rbdock.cxx#4 $)

>  <Rbt.Library>
libRbt.so (2013.1, Build901 2013/11/27)

>  <Rbt.Parameter_File>
/export/apps/rDock/src/rDock_2013.1_src/data/scripts/dock_solv.prm

>  <Rbt.Receptor>
prm/pocket_docking_7.prm

>  <SCORE>
-26.1867

>  <SCORE.INTER>
-20.5854

>  <SCORE.INTER.CONST>
1

>  <SCORE.INTER.POLAR>
0

>  <SCORE.INTER.ROT>
4

>  <SCORE.INTER.SOLV>
21.7293

>  <SCORE.INTER.VDW>
-27.2334

>  <SCORE.INTER.norm>
-0.895018

>  <SCORE.INTRA>
-5.60125

>  <SCORE.INTRA.DIHEDRAL>
-6.69505

>  <SCORE.INTRA.DIHEDRAL.0>
8.62657

>  <SCORE.INTRA.POLAR>
0

>  <SCORE.INTRA.POLAR.0>
0

>  <SCORE.INTRA.REPUL>
0

>  <SCORE.INTRA.REPUL.0>
0

>  <SCORE.INTRA.SOLV>
-0.712857

>  <SCORE.INTRA.SOLV.lig_0>
-66.3641

>  <SCORE.INTRA.VDW>
-1.8973

>  <SCORE.INTRA.VDW.0>
0.452231

>  <SCORE.INTRA.norm>
-0.243533

>  <SCORE.RESTR>
0

>  <SCORE.RESTR.CAVITY>
0

>  <SCORE.RESTR.norm>
0

>  <SCORE.SYSTEM>
0

>  <SCORE.SYSTEM.CONST>
0

>  <SCORE.SYSTEM.DIHEDRAL>
0

>  <SCORE.SYSTEM.SOLV>
0

>  <SCORE.SYSTEM.norm>
0

>  <SCORE.heavy>
23

>  <SCORE.norm>
-1.13855

>  <RMSD>
8.281

$$$$
ligand
 OpenBabel02271912143D
libRbt.so/2013.1/901 2013/11/27
 23 25  0  0  0  0  0  0  0  0999 V2000
   19.7424    5.0739   32.5658 P   0  0  1  0  0  0  0  0  0  0  0  0
   21.4513    3.4455   31.4329 C   0  0  0  0  0  0  0  0  0  0  0  0
   21.1391    4.2756   32.5429 O   0  0  0  0  0  0  0  0  0  0  0  0
   22.8779    2.9759   31.6086 C   0  0  1  0  0  0  0  0  0  0  0  0
   23.0024    2.0189   32.6601 O   0  0  0  0  0  0  0  0  0  0  0  0
   23.3483    2.3184   30.3222 C   0  0  1  0  0  0  0  0  0  0  0  0
   24.6466    2.8457   29.9988 O   0  0  0  0  0  0  0  0  0  0  0  0
   23.3942    0.8265   30.6275 C   0  0  0  0  0  0  0  0  0  0  0  0
   23.4516    0.7562   32.1512 C   0  0  2  0  0  0  0  0  0  0  0  0
   22.8762   -3.9000   34.2773 N   0  0  0  0  0  0  0  0  0  0  0  0
   24.0174   -3.2914   33.9152 C   0  0  2  0  0  0  0  0  0  0  0  0
   25.1801   -3.9498   34.1301 N   0  0  0  0  0  0  0  0  0  0  0  0
   24.0044   -2.0547   33.3619 N   0  0  0  0  0  0  0  0  0  0  0  0
   22.8285   -1.4226   33.1685 C   0  0  2  0  0  0  0  0  0  0  0  0
   21.6485   -2.0343   33.5328 C   0  0  1  0  0  0  0  0  0  0  0  0
   21.6885   -3.2927   34.1025 C   0  0  0  0  0  0  0  0  0  0  0  0
   20.6300   -3.8620   34.4458 O   0  0  0  0  0  0  0  0  0  0  0  0
   20.6340   -1.2011   33.2280 N   0  0  0  0  0  0  0  0  0  0  0  0
   21.1741   -0.0922   32.6924 C   0  0  0  0  0  0  0  0  0  0  0  0
   22.5023   -0.2431   32.6522 N   0  0  1  0  0  0  0  0  0  0  0  0
   18.6447    4.0462   32.4351 O   0  0  0  0  0  0  0  0  0  0  0  0
   19.7607    5.8018   33.8902 O   0  5  0  0  0  0  0  0  0  0  0  0
   19.8606    5.9815   31.3714 O   0  0  0  0  0  0  0  0  0  0  0  0
  1  3  1  6  0  0  0
  1 21  1  0  0  0  0
  1 22  1  0  0  0  0
  1 23  2  0  0  0  0
  2  3  1  0  0  0  0
  4  2  1  6  0  0  0
  4  5  1  0  0  0  0
  4  6  1  0  0  0  0
  6  7  1  1  0  0  0
  6  8  1  0  0  0  0
  8  9  1  0  0  0  0
  9  5  1  1  0  0  0
  9 20  1  0  0  0  0
 10 11  1  0  0  0  0
 10 16  1  0  0  0  0
 11 12  1  1  0  0  0
 11 13  1  0  0  0  0
 14 13  1  6  0  0  0
 14 15  1  0  0  0  0
 14 20  1  0  0  0  0
 15 16  1  1  0  0  0
 15 18  1  0  0  0  0
 16 17  2  0  0  0  0
 18 19  1  0  0  0  0
 20 19  1  1  0  0  0
M  CHG  1  22  -1
M  END
>  <CHROM.1>
57.33816258,71.76558061,172.95520306,-135.74413618,21.93490312,1.03741708
32.63208484,1.91306965,0.47756894,-0.36625490

>  <Name>
ligand

>  <RI>
0

>  <Rbt.Current_Directory>
/home/itssahil/PROJECTS/Mol_Feturizer/Test_systems_manuscript/rnas/3slm

>  <Rbt.Executable>
rbdock ($Id: //depot/dev/client3/rdock/2013.1/src/exe/rbdock.cxx#4 $)

>  <Rbt.Library>
libRbt.so (2013.1, Build901 2013/11/27)

>  <Rbt.Parameter_File>
/export/apps/rDock/src/rDock_2013.1_src/data/scripts/dock_solv.prm

>  <Rbt.Receptor>
prm/pocket_docking_8.prm

>  <SCORE>
-26.2277

>  <SCORE.INTER>
-20.6532

>  <SCORE.INTER.CONST>
1

>  <SCORE.INTER.POLAR>
0

>  <SCORE.INTER.ROT>
4

>  <SCORE.INTER.SOLV>
21.4284

>  <SCORE.INTER.VDW>
-27.1783

>  <SCORE.INTER.norm>
-0.897965

>  <SCORE.INTRA>
-5.57453

>  <SCORE.INTRA.DIHEDRAL>
-6.64343

>  <SCORE.INTRA.DIHEDRAL.0>
8.62657

>  <SCORE.INTRA.POLAR>
0

>  <SCORE.INTRA.POLAR.0>
0

>  <SCORE.INTRA.REPUL>
0

>  <SCORE.INTRA.REPUL.0>
0

>  <SCORE.INTRA.SOLV>
-0.712556

>  <SCORE.INTRA.SOLV.lig_0>
-66.3641

>  <SCORE.INTRA.VDW>
-1.89654

>  <SCORE.INTRA.VDW.0>
0.452231

>  <SCORE.INTRA.norm>
-0.242371

>  <SCORE.RESTR>
0

>  <SCORE.RESTR.CAVITY>
0

>  <SCORE.RESTR.norm>
0

>  <SCORE.SYSTEM>
0

>  <SCORE.SYSTEM.CONST>
0

>  <SCORE.SYSTEM.DIHEDRAL>
0

>  <SCORE.SYSTEM.SOLV>
0

>  <SCORE.SYSTEM.norm>
0

>  <SCORE.heavy>
23

>  <SCORE.norm>
-1.14034

>  <RMSD>
8.288

$$$$
ligand
 OpenBabel02271912143D
libRbt.so/2013.1/901 2013/11/27
 23 25  0  0  0  0  0  0  0  0999 V2000
   20.0049    5.7268   32.1636 P   0  0  1  0  0  0  0  0  0  0  0  0
   21.5016    3.5804   32.2542 C   0  0  0  0  0  0  0  0  0  0  0  0
   21.3033    4.8841   31.7251 O   0  0  0  0  0  0  0  0  0  0  0  0
   22.8716    3.1182   31.8118 C   0  0  1  0  0  0  0  0  0  0  0  0
   23.3466    2.0220   32.5926 O   0  0  0  0  0  0  0  0  0  0  0  0
   22.8005    2.6625   30.3640 C   0  0  1  0  0  0  0  0  0  0  0  0
   23.9009    3.2561   29.6534 O   0  0  0  0  0  0  0  0  0  0  0  0
   22.9030    1.1433   30.4160 C   0  0  0  0  0  0  0  0  0  0  0  0
   23.5255    0.8549   31.7795 C   0  0  2  0  0  0  0  0  0  0  0  0
   23.7919   -3.8990   33.7443 N   0  0  0  0  0  0  0  0  0  0  0  0
   24.7634   -3.2005   33.1346 C   0  0  2  0  0  0  0  0  0  0  0  0
   25.9789   -3.7829   33.0127 N   0  0  0  0  0  0  0  0  0  0  0  0
   24.5357   -1.9497   32.6660 N   0  0  0  0  0  0  0  0  0  0  0  0
   23.3146   -1.3951   32.8107 C   0  0  2  0  0  0  0  0  0  0  0  0
   22.3063   -2.0995   33.4323 C   0  0  1  0  0  0  0  0  0  0  0  0
   22.5656   -3.3705   33.9088 C   0  0  0  0  0  0  0  0  0  0  0  0
   21.6666   -4.0235   34.4813 O   0  0  0  0  0  0  0  0  0  0  0  0
   21.2004   -1.3293   33.4386 N   0  0  0  0  0  0  0  0  0  0  0  0
   21.5181   -0.1680   32.8397 C   0  0  0  0  0  0  0  0  0  0  0  0
   22.7977   -0.2245   32.4548 N   0  0  1  0  0  0  0  0  0  0  0  0
   19.9490    5.6982   33.6717 O   0  0  0  0  0  0  0  0  0  0  0  0
   20.2445    7.0978   31.5743 O   0  5  0  0  0  0  0  0  0  0  0  0
   18.8822    4.9704   31.5067 O   0  0  0  0  0  0  0  0  0  0  0  0
  1  3  1  6  0  0  0
  1 21  1  0  0  0  0
  1 22  1  0  0  0  0
  1 23  2  0  0  0  0
  2  3  1  0  0  0  0
  4  2  1  1  0  0  0
  4  5  1  0  0  0  0
  4  6  1  0  0  0  0
  6  7  1  6  0  0  0
  6  8  1  0  0  0  0
  8  9  1  0  0  0  0
  9  5  1  1  0  0  0
  9 20  1  0  0  0  0
 10 11  1  0  0  0  0
 10 16  1  0  0  0  0
 11 12  1  1  0  0  0
 11 13  1  0  0  0  0
 14 13  1  6  0  0  0
 14 15  1  0  0  0  0
 14 20  1  0  0  0  0
 15 16  1  1  0  0  0
 15 18  1  0  0  0  0
 16 17  2  0  0  0  0
 18 19  1  0  0  0  0
 20 19  1  1  0  0  0
M  CHG  1  22  -1
M  END
>  <CHROM.1>
50.64226342,162.34759917,-172.77333131,-125.41759642,22.23571396,1.27264240
32.37370175,1.97722626,0.55018700,-0.39692041

>  <Name>
ligand

>  <RI>
0

>  <Rbt.Current_Directory>
/home/itssahil/PROJECTS/Mol_Feturizer/Test_systems_manuscript/rnas/3slm

>  <Rbt.Executable>
rbdock ($Id: //depot/dev/client3/rdock/2013.1/src/exe/rbdock.cxx#4 $)

>  <Rbt.Library>
libRbt.so (2013.1, Build901 2013/11/27)

>  <Rbt.Parameter_File>
/export/apps/rDock/src/rDock_2013.1_src/data/scripts/dock_solv.prm

>  <Rbt.Receptor>
prm/pocket_docking_7.prm

>  <SCORE>
-22.4215

>  <SCORE.INTER>
-17.2842

>  <SCORE.INTER.CONST>
1

>  <SCORE.INTER.POLAR>
0

>  <SCORE.INTER.ROT>
4

>  <SCORE.INTER.SOLV>
17.8851

>  <SCORE.INTER.VDW>
-23.7512

>  <SCORE.INTER.norm>
-0.751489

>  <SCORE.INTRA>
-5.13724

>  <SCORE.INTRA.DIHEDRAL>
-5.97908

>  <SCORE.INTRA.DIHEDRAL.0>
8.62657

>  <SCORE.INTRA.POLAR>
0

>  <SCORE.INTRA.POLAR.0>
0

>  <SCORE.INTRA.REPUL>
0

>  <SCORE.INTRA.REPUL.0>
0

>  <SCORE.INTRA.SOLV>
-0.690138

>  <SCORE.INTRA.SOLV.lig_0>
-66.3641

>  <SCORE.INTRA.VDW>
-1.80263

>  <SCORE.INTRA.VDW.0>
0.452231

>  <SCORE.INTRA.norm>
-0.223358

>  <SCORE.RESTR>
0

>  <SCORE.RESTR.CAVITY>
0

>  <SCORE.RESTR.norm>
0

>  <SCORE.SYSTEM>
0

>  <SCORE.SYSTEM.CONST>
0

>  <SCORE.SYSTEM.DIHEDRAL>
0

>  <SCORE.SYSTEM.SOLV>
0

>  <SCORE.SYSTEM.norm>
0

>  <SCORE.heavy>
23

>  <SCORE.norm>
-0.974847

>  <RMSD>
8.293

$$$$
ligand
 OpenBabel02271912143D
libRbt.so/2013.1/901 2013/11/27
 23 25  0  0  0  0  0  0  0  0999 V2000
   20.0400    5.7561   32.0992 P   0  0  1  0  0  0  0  0  0  0  0  0
   21.5309    3.6091   32.2522 C   0  0  0  0  0  0  0  0  0  0  0  0
   21.3212    4.8856   31.6644 O   0  0  0  0  0  0  0  0  0  0  0  0
   22.8952    3.1287   31.8115 C   0  0  1  0  0  0  0  0  0  0  0  0
   23.3569    2.0298   32.5965 O   0  0  0  0  0  0  0  0  0  0  0  0
   22.8185    2.6685   30.3655 C   0  0  1  0  0  0  0  0  0  0  0  0
   23.9259    3.2460   29.6526 O   0  0  0  0  0  0  0  0  0  0  0  0
   22.9026    1.1484   30.4231 C   0  0  0  0  0  0  0  0  0  0  0  0
   23.5216    0.8576   31.7877 C   0  0  2  0  0  0  0  0  0  0  0  0
   23.7282   -3.8953   33.7622 N   0  0  0  0  0  0  0  0  0  0  0  0
   24.7076   -3.2113   33.1487 C   0  0  2  0  0  0  0  0  0  0  0  0
   25.9148   -3.8105   33.0251 N   0  0  0  0  0  0  0  0  0  0  0  0
   24.4958   -1.9586   32.6779 N   0  0  0  0  0  0  0  0  0  0  0  0
   23.2827   -1.3871   32.8243 C   0  0  2  0  0  0  0  0  0  0  0  0
   22.2664   -2.0765   33.4498 C   0  0  1  0  0  0  0  0  0  0  0  0
   22.5096   -3.3499   33.9285 C   0  0  0  0  0  0  0  0  0  0  0  0
   21.6032   -3.9894   34.5045 O   0  0  0  0  0  0  0  0  0  0  0  0
   21.1711   -1.2914   33.4570 N   0  0  0  0  0  0  0  0  0  0  0  0
   21.5030   -0.1357   32.8548 C   0  0  0  0  0  0  0  0  0  0  0  0
   22.7808   -0.2104   32.4670 N   0  0  1  0  0  0  0  0  0  0  0  0
   20.1453    7.0824   31.3865 O   0  0  0  0  0  0  0  0  0  0  0  0
   18.8629    4.9100   31.6717 O   0  5  0  0  0  0  0  0  0  0  0  0
   20.2029    5.8617   33.5914 O   0  0  0  0  0  0  0  0  0  0  0  0
  1  3  1  6  0  0  0
  1 21  1  0  0  0  0
  1 22  1  0  0  0  0
  1 23  2  0  0  0  0
  2  3  1  0  0  0  0
  4  2  1  1  0  0  0
  4  5  1  0  0  0  0
  4  6  1  0  0  0  0
  6  7  1  6  0  0  0
  6  8  1  0  0  0  0
  8  9  1  0  0  0  0
  9  5  1  1  0  0  0
  9 20  1  0  0  0  0
 10 11  1  0  0  0  0
 10 16  1  0  0  0  0
 11 12  1  1  0  0  0
 11 13  1  0  0  0  0
 14 13  1  6  0  0  0
 14 15  1  0  0  0  0
 14 20  1  0  0  0  0
 15 16  1  1  0  0  0
 15 18  1  0  0  0  0
 16 17  2  0  0  0  0
 18 19  1  0  0  0  0
 20 19  1  1  0  0  0
M  CHG  1  22  -1
M  END
>  <CHROM.1>
176.07834892,165.14344943,-171.81018139,-125.60125759,22.23161203,1.28649484
32.36777675,1.96370970,0.54475829,-0.39394397

>  <Name>
ligand

>  <RI>
0

>  <Rbt.Current_Directory>
/home/itssahil/PROJECTS/Mol_Feturizer/Test_systems_manuscript/rnas/3slm

>  <Rbt.Executable>
rbdock ($Id: //depot/dev/client3/rdock/2013.1/src/exe/rbdock.cxx#4 $)

>  <Rbt.Library>
libRbt.so (2013.1, Build901 2013/11/27)

>  <Rbt.Parameter_File>
/export/apps/rDock/src/rDock_2013.1_src/data/scripts/dock_solv.prm

>  <Rbt.Receptor>
prm/pocket_docking_7.prm

>  <SCORE>
-20.706

>  <SCORE.INTER>
-15.8915

>  <SCORE.INTER.CONST>
1

>  <SCORE.INTER.POLAR>
0

>  <SCORE.INTER.ROT>
4

>  <SCORE.INTER.SOLV>
20.7925

>  <SCORE.INTER.VDW>
-23.7918

>  <SCORE.INTER.norm>
-0.690935

>  <SCORE.INTRA>
-4.81449

>  <SCORE.INTRA.DIHEDRAL>
-6.30418

>  <SCORE.INTRA.DIHEDRAL.0>
8.62657

>  <SCORE.INTRA.POLAR>
0

>  <SCORE.INTRA.POLAR.0>
0

>  <SCORE.INTRA.REPUL>
0

>  <SCORE.INTRA.REPUL.0>
0

>  <SCORE.INTRA.SOLV>
0.0466468

>  <SCORE.INTRA.SOLV.lig_0>
-66.3641

>  <SCORE.INTRA.VDW>
-1.68572

>  <SCORE.INTRA.VDW.0>
0.452231

>  <SCORE.INTRA.norm>
-0.209326

>  <SCORE.RESTR>
0

>  <SCORE.RESTR.CAVITY>
0

>  <SCORE.RESTR.norm>
0

>  <SCORE.SYSTEM>
0

>  <SCORE.SYSTEM.CONST>
0

>  <SCORE.SYSTEM.DIHEDRAL>
0

>  <SCORE.SYSTEM.SOLV>
0

>  <SCORE.SYSTEM.norm>
0

>  <SCORE.heavy>
23

>  <SCORE.norm>
-0.900261

>  <RMSD>
8.296

$$$$
ligand
 OpenBabel02271912143D
libRbt.so/2013.1/901 2013/11/27
 23 25  0  0  0  0  0  0  0  0999 V2000
   19.9637    5.7386   32.2059 P   0  0  1  0  0  0  0  0  0  0  0  0
   21.4621    3.5927   32.2763 C   0  0  0  0  0  0  0  0  0  0  0  0
   21.2675    4.9046   31.7667 O   0  0  0  0  0  0  0  0  0  0  0  0
   22.8360    3.1381   31.8375 C   0  0  1  0  0  0  0  0  0  0  0  0
   23.3143    2.0437   32.6188 O   0  0  0  0  0  0  0  0  0  0  0  0
   22.7717    2.6836   30.3892 C   0  0  1  0  0  0  0  0  0  0  0  0
   23.8711    3.2837   29.6825 O   0  0  0  0  0  0  0  0  0  0  0  0
   22.8821    1.1649   30.4399 C   0  0  0  0  0  0  0  0  0  0  0  0
   23.5019    0.8784   31.8050 C   0  0  2  0  0  0  0  0  0  0  0  0
   23.7827   -3.8831   33.7494 N   0  0  0  0  0  0  0  0  0  0  0  0
   24.7516   -3.1797   33.1409 C   0  0  2  0  0  0  0  0  0  0  0  0
   25.9682   -3.7589   33.0144 N   0  0  0  0  0  0  0  0  0  0  0  0
   24.5202   -1.9276   32.6779 N   0  0  0  0  0  0  0  0  0  0  0  0
   23.2980   -1.3764   32.8272 C   0  0  2  0  0  0  0  0  0  0  0  0
   22.2925   -2.0858   33.4475 C   0  0  1  0  0  0  0  0  0  0  0  0
   22.5556   -3.3582   33.9182 C   0  0  0  0  0  0  0  0  0  0  0  0
   21.6590   -4.0157   34.4895 O   0  0  0  0  0  0  0  0  0  0  0  0
   21.1848   -1.3182   33.4589 N   0  0  0  0  0  0  0  0  0  0  0  0
   21.4987   -0.1536   32.8644 C   0  0  0  0  0  0  0  0  0  0  0  0
   22.7778   -0.2055   32.4770 N   0  0  1  0  0  0  0  0  0  0  0  0
   19.9201    5.7270   33.7146 O   0  0  0  0  0  0  0  0  0  0  0  0
   20.1839    7.1051   31.5989 O   0  5  0  0  0  0  0  0  0  0  0  0
   18.8439    4.9626   31.5669 O   0  0  0  0  0  0  0  0  0  0  0  0
  1  3  1  6  0  0  0
  1 21  1  0  0  0  0
  1 22  1  0  0  0  0
  1 23  2  0  0  0  0
  2  3  1  0  0  0  0
  4  2  1  1  0  0  0
  4  5  1  0  0  0  0
  4  6  1  0  0  0  0
  6  7  1  6  0  0  0
  6  8  1  0  0  0  0
  8  9  1  0  0  0  0
  9  5  1  1  0  0  0
  9 20  1  0  0  0  0
 10 11  1  0  0  0  0
 10 16  1  0  0  0  0
 11 12  1  1  0  0  0
 11 13  1  0  0  0  0
 14 13  1  6  0  0  0
 14 15  1  0  0  0  0
 14 20  1  0  0  0  0
 15 16  1  1  0  0  0
 15 18  1  0  0  0  0
 16 17  2  0  0  0  0
 18 19  1  0  0  0  0
 20 19  1  1  0  0  0
M  CHG  1  22  -1
M  END
>  <CHROM.1>
52.63411646,161.38848862,-172.89530662,-125.79064815,22.20968978,1.28918101
32.39838422,1.98142505,0.55067805,-0.39600106

>  <Name>
ligand

>  <RI>
416

>  <Rbt.Current_Directory>
/home/itssahil/PROJECTS/Mol_Feturizer/Test_systems_manuscript/rnas/3slm

>  <Rbt.Executable>
rbdock ($Id: //depot/dev/client3/rdock/2013.1/src/exe/rbdock.cxx#4 $)

>  <Rbt.Library>
libRbt.so (2013.1, Build901 2013/11/27)

>  <Rbt.Parameter_File>
/export/apps/rDock/src/rDock_2013.1_src/data/scripts/dock_solv.prm

>  <Rbt.Receptor>
prm/pocket_docking_6.prm

>  <SCORE>
-22.4699

>  <SCORE.INTER>
-17.3542

>  <SCORE.INTER.CONST>
1

>  <SCORE.INTER.POLAR>
0

>  <SCORE.INTER.ROT>
4

>  <SCORE.INTER.SOLV>
18.0842

>  <SCORE.INTER.VDW>
-23.8642

>  <SCORE.INTER.norm>
-0.754533

>  <SCORE.INTRA>
-5.11664

>  <SCORE.INTRA.DIHEDRAL>
-5.92863

>  <SCORE.INTRA.DIHEDRAL.0>
8.62657

>  <SCORE.INTRA.POLAR>
0

>  <SCORE.INTRA.POLAR.0>
0

>  <SCORE.INTRA.REPUL>
0

>  <SCORE.INTRA.REPUL.0>
0

>  <SCORE.INTRA.SOLV>
-0.679827

>  <SCORE.INTRA.SOLV.lig_0>
-66.3641

>  <SCORE.INTRA.VDW>
-1.81241

>  <SCORE.INTRA.VDW.0>
0.452231

>  <SCORE.INTRA.norm>
-0.222462

>  <SCORE.RESTR>
0.000999898

>  <SCORE.RESTR.CAVITY>
0.000999898

>  <SCORE.RESTR.norm>
4.34738e-05

>  <SCORE.SYSTEM>
0

>  <SCORE.SYSTEM.CONST>
0

>  <SCORE.SYSTEM.DIHEDRAL>
0

>  <SCORE.SYSTEM.SOLV>
0

>  <SCORE.SYSTEM.norm>
0

>  <SCORE.heavy>
23

>  <SCORE.norm>
-0.976952

>  <RMSD>
8.300

$$$$
ligand
 OpenBabel02271912143D
libRbt.so/2013.1/901 2013/11/27
 23 25  0  0  0  0  0  0  0  0999 V2000
   20.0233    5.7285   32.1433 P   0  0  1  0  0  0  0  0  0  0  0  0
   21.5020    3.5698   32.2352 C   0  0  0  0  0  0  0  0  0  0  0  0
   21.3069    4.8690   31.6941 O   0  0  0  0  0  0  0  0  0  0  0  0
   22.8754    3.1047   31.8064 C   0  0  1  0  0  0  0  0  0  0  0  0
   23.3421    2.0104   32.5948 O   0  0  0  0  0  0  0  0  0  0  0  0
   22.8167    2.6448   30.3595 C   0  0  1  0  0  0  0  0  0  0  0  0
   23.9240    3.2350   29.6569 O   0  0  0  0  0  0  0  0  0  0  0  0
   22.9171    1.1256   30.4169 C   0  0  0  0  0  0  0  0  0  0  0  0
   23.5270    0.8407   31.7868 C   0  0  2  0  0  0  0  0  0  0  0  0
   23.7761   -3.8989   33.7883 N   0  0  0  0  0  0  0  0  0  0  0  0
   24.7548   -3.2021   33.1881 C   0  0  2  0  0  0  0  0  0  0  0  0
   25.9733   -3.7823   33.0881 N   0  0  0  0  0  0  0  0  0  0  0  0
   24.5309   -1.9552   32.7074 N   0  0  0  0  0  0  0  0  0  0  0  0
   23.3064   -1.4027   32.8304 C   0  0  2  0  0  0  0  0  0  0  0  0
   22.2909   -2.1054   33.4420 C   0  0  1  0  0  0  0  0  0  0  0  0
   22.5463   -3.3724   33.9311 C   0  0  0  0  0  0  0  0  0  0  0  0
   21.6405   -4.0237   34.4949 O   0  0  0  0  0  0  0  0  0  0  0  0
   21.1831   -1.3380   33.4267 N   0  0  0  0  0  0  0  0  0  0  0  0
   21.5067   -0.1800   32.8244 C   0  0  0  0  0  0  0  0  0  0  0  0
   22.7920   -0.2359   32.4588 N   0  0  1  0  0  0  0  0  0  0  0  0
   20.0206    5.7619   33.6523 O   0  0  0  0  0  0  0  0  0  0  0  0
   20.2394    7.0742   31.4902 O   0  5  0  0  0  0  0  0  0  0  0  0
   18.8794    4.9453   31.5580 O   0  0  0  0  0  0  0  0  0  0  0  0
  1  3  1  6  0  0  0
  1 21  1  0  0  0  0
  1 22  1  0  0  0  0
  1 23  2  0  0  0  0
  2  3  1  0  0  0  0
  4  2  1  1  0  0  0
  4  5  1  0  0  0  0
  4  6  1  0  0  0  0
  6  7  1  6  0  0  0
  6  8  1  0  0  0  0
  8  9  1  0  0  0  0
  9  5  1  1  0  0  0
  9 20  1  0  0  0  0
 10 11  1  0  0  0  0
 10 16  1  0  0  0  0
 11 12  1  1  0  0  0
 11 13  1  0  0  0  0
 14 13  1  6  0  0  0
 14 15  1  0  0  0  0
 14 20  1  0  0  0  0
 15 16  1  1  0  0  0
 15 18  1  0  0  0  0
 16 17  2  0  0  0  0
 18 19  1  0  0  0  0
 20 19  1  1  0  0  0
M  CHG  1  22  -1
M  END
>  <CHROM.1>
52.74560352,162.66975966,-171.32738777,-124.96759172,22.23737708,1.26628323
32.37746833,1.97144115,0.54452983,-0.39762857

>  <Name>
ligand

>  <RI>
0

>  <Rbt.Current_Directory>
/home/itssahil/PROJECTS/Mol_Feturizer/Test_systems_manuscript/rnas/3slm

>  <Rbt.Executable>
rbdock ($Id: //depot/dev/client3/rdock/2013.1/src/exe/rbdock.cxx#4 $)

>  <Rbt.Library>
libRbt.so (2013.1, Build901 2013/11/27)

>  <Rbt.Parameter_File>
/export/apps/rDock/src/rDock_2013.1_src/data/scripts/dock_solv.prm

>  <Rbt.Receptor>
prm/pocket_docking_7.prm

>  <SCORE>
-22.4312

>  <SCORE.INTER>
-17.3089

>  <SCORE.INTER.CONST>
1

>  <SCORE.INTER.POLAR>
0

>  <SCORE.INTER.ROT>
4

>  <SCORE.INTER.SOLV>
17.8709

>  <SCORE.INTER.VDW>
-23.7629

>  <SCORE.INTER.norm>
-0.752559

>  <SCORE.INTRA>
-5.12229

>  <SCORE.INTRA.DIHEDRAL>
-5.95776

>  <SCORE.INTRA.DIHEDRAL.0>
8.62657

>  <SCORE.INTRA.POLAR>
0

>  <SCORE.INTRA.POLAR.0>
0

>  <SCORE.INTRA.REPUL>
0

>  <SCORE.INTRA.REPUL.0>
0

>  <SCORE.INTRA.SOLV>
-0.685783

>  <SCORE.INTRA.SOLV.lig_0>
-66.3641

>  <SCORE.INTRA.VDW>
-1.80052

>  <SCORE.INTRA.VDW.0>
0.452231

>  <SCORE.INTRA.norm>
-0.222708

>  <SCORE.RESTR>
0

>  <SCORE.RESTR.CAVITY>
0

>  <SCORE.RESTR.norm>
0

>  <SCORE.SYSTEM>
0

>  <SCORE.SYSTEM.CONST>
0

>  <SCORE.SYSTEM.DIHEDRAL>
0

>  <SCORE.SYSTEM.SOLV>
0

>  <SCORE.SYSTEM.norm>
0

>  <SCORE.heavy>
23

>  <SCORE.norm>
-0.975267

>  <RMSD>
8.304

$$$$
ligand
 OpenBabel02271912143D
libRbt.so/2013.1/901 2013/11/27
 23 25  0  0  0  0  0  0  0  0999 V2000
   19.9662  -11.1863   16.8452 P   0  0  1  0  0  0  0  0  0  0  0  0
   21.3127   -8.9860   16.3968 C   0  0  0  0  0  0  0  0  0  0  0  0
   20.3389   -9.9124   15.9360 O   0  0  0  0  0  0  0  0  0  0  0  0
   21.3823   -7.8647   15.3847 C   0  0  1  0  0  0  0  0  0  0  0  0
   20.1841   -7.0897   15.3588 O   0  0  0  0  0  0  0  0  0  0  0  0
   22.5295   -6.9367   15.7469 C   0  0  1  0  0  0  0  0  0  0  0  0
   23.2912   -6.6801   14.5544 O   0  0  0  0  0  0  0  0  0  0  0  0
   21.8693   -5.6752   16.2892 C   0  0  0  0  0  0  0  0  0  0  0  0
   20.4436   -5.7344   15.7475 C   0  0  2  0  0  0  0  0  0  0  0  0
   19.1945   -6.3896   20.7016 N   0  0  0  0  0  0  0  0  0  0  0  0
   20.2445   -6.9012   20.0387 C   0  0  2  0  0  0  0  0  0  0  0  0
   21.1076   -7.6823   20.7290 N   0  0  0  0  0  0  0  0  0  0  0  0
   20.4377   -6.6355   18.7242 N   0  0  0  0  0  0  0  0  0  0  0  0
   19.5626   -5.8465   18.0674 C   0  0  2  0  0  0  0  0  0  0  0  0
   18.4789   -5.3153   18.7327 C   0  0  1  0  0  0  0  0  0  0  0  0
   18.3080   -5.5946   20.0753 C   0  0  0  0  0  0  0  0  0  0  0  0
   17.3352   -5.1173   20.6985 O   0  0  0  0  0  0  0  0  0  0  0  0
   17.7681   -4.5805   17.8546 N   0  0  0  0  0  0  0  0  0  0  0  0
   18.4017   -4.6486   16.6705 C   0  0  0  0  0  0  0  0  0  0  0  0
   19.4807   -5.4265   16.8100 N   0  0  1  0  0  0  0  0  0  0  0  0
   19.1310  -12.1088   15.9910 O   0  0  0  0  0  0  0  0  0  0  0  0
   21.3087  -11.7527   17.2463 O   0  5  0  0  0  0  0  0  0  0  0  0
   19.2024  -10.5673   17.9845 O   0  0  0  0  0  0  0  0  0  0  0  0
  1  3  1  6  0  0  0
  1 21  1  0  0  0  0
  1 22  1  0  0  0  0
  1 23  2  0  0  0  0
  2  3  1  0  0  0  0
  4  2  1  1  0  0  0
  4  5  1  0  0  0  0
  4  6  1  0  0  0  0
  6  7  1  6  0  0  0
  6  8  1  0  0  0  0
  8  9  1  0  0  0  0
  9  5  1  1  0  0  0
  9 20  1  0  0  0  0
 10 11  1  0  0  0  0
 10 16  1  0  0  0  0
 11 12  1  1  0  0  0
 11 13  1  0  0  0  0
 14 13  1  6  0  0  0
 14 15  1  0  0  0  0
 14 20  1  0  0  0  0
 15 16  1  1  0  0  0
 15 18  1  0  0  0  0
 16 17  2  0  0  0  0
 18 19  1  0  0  0  0
 20 19  1  1  0  0  0
M  CHG  1  22  -1
M  END
>  <CHROM.1>
-169.04096972,67.44044692,-176.40601233,75.89467488,20.07253254,-7.64709194
17.42355273,1.01908348,-0.99261112,3.13834252

>  <Name>
ligand

>  <RI>
0

>  <Rbt.Current_Directory>
/home/itssahil/PROJECTS/Mol_Feturizer/Test_systems_manuscript/rnas/3slm

>  <Rbt.Executable>
rbdock ($Id: //depot/dev/client3/rdock/2013.1/src/exe/rbdock.cxx#4 $)

>  <Rbt.Library>
libRbt.so (2013.1, Build901 2013/11/27)

>  <Rbt.Parameter_File>
/export/apps/rDock/src/rDock_2013.1_src/data/scripts/dock_solv.prm

>  <Rbt.Receptor>
prm/blind_docking_80.prm

>  <SCORE>
-12.2633

>  <SCORE.INTER>
-6.94324

>  <SCORE.INTER.CONST>
1

>  <SCORE.INTER.POLAR>
0

>  <SCORE.INTER.ROT>
4

>  <SCORE.INTER.SOLV>
9.64924

>  <SCORE.INTER.VDW>
-14.1119

>  <SCORE.INTER.norm>
-0.30188

>  <SCORE.INTRA>
-5.32008

>  <SCORE.INTRA.DIHEDRAL>
-6.91065

>  <SCORE.INTRA.DIHEDRAL.0>
8.62657

>  <SCORE.INTRA.POLAR>
0

>  <SCORE.INTRA.POLAR.0>
0

>  <SCORE.INTRA.REPUL>
0

>  <SCORE.INTRA.REPUL.0>
0

>  <SCORE.INTRA.SOLV>
0.322591

>  <SCORE.INTRA.SOLV.lig_0>
-66.3641

>  <SCORE.INTRA.VDW>
-2.02605

>  <SCORE.INTRA.VDW.0>
0.452231

>  <SCORE.INTRA.norm>
-0.231308

>  <SCORE.RESTR>
0

>  <SCORE.RESTR.CAVITY>
0

>  <SCORE.RESTR.norm>
0

>  <SCORE.SYSTEM>
0

>  <SCORE.SYSTEM.CONST>
0

>  <SCORE.SYSTEM.DIHEDRAL>
0

>  <SCORE.SYSTEM.SOLV>
0

>  <SCORE.SYSTEM.norm>
0

>  <SCORE.heavy>
23

>  <SCORE.norm>
-0.533188

>  <RMSD>
14.128

$$$$
ligand
 OpenBabel02271912143D
libRbt.so/2013.1/901 2013/11/27
 23 25  0  0  0  0  0  0  0  0999 V2000
   11.7225  -10.7163   25.2315 P   0  0  1  0  0  0  0  0  0  0  0  0
   11.0161   -8.1970   25.3292 C   0  0  0  0  0  0  0  0  0  0  0  0
   10.6134   -9.5518   25.1842 O   0  0  0  0  0  0  0  0  0  0  0  0
    9.9930   -7.3439   24.6136 C   0  0  1  0  0  0  0  0  0  0  0  0
    8.8105   -7.1583   25.3908 O   0  0  0  0  0  0  0  0  0  0  0  0
   10.5902   -5.9738   24.3399 C   0  0  1  0  0  0  0  0  0  0  0  0
   10.3201   -5.6336   22.9690 O   0  0  0  0  0  0  0  0  0  0  0  0
    9.8943   -5.0309   25.3134 C   0  0  0  0  0  0  0  0  0  0  0  0
    8.6219   -5.7739   25.7118 C   0  0  2  0  0  0  0  0  0  0  0  0
   10.4691   -7.1517   30.3185 N   0  0  0  0  0  0  0  0  0  0  0  0
   10.9681   -7.4437   29.1063 C   0  0  2  0  0  0  0  0  0  0  0  0
   12.1015   -8.1812   29.0506 N   0  0  0  0  0  0  0  0  0  0  0  0
   10.3612   -7.0055   27.9769 N   0  0  0  0  0  0  0  0  0  0  0  0
    9.2369   -6.2656   28.0678 C   0  0  2  0  0  0  0  0  0  0  0  0
    8.7110   -5.9590   29.3042 C   0  0  1  0  0  0  0  0  0  0  0  0
    9.3528   -6.4110   30.4415 C   0  0  0  0  0  0  0  0  0  0  0  0
    8.8956   -6.1383   31.5725 O   0  0  0  0  0  0  0  0  0  0  0  0
    7.5963   -5.2258   29.1143 N   0  0  0  0  0  0  0  0  0  0  0  0
    7.4379   -5.0744   27.7876 C   0  0  0  0  0  0  0  0  0  0  0  0
    8.4316   -5.7174   27.1649 N   0  0  1  0  0  0  0  0  0  0  0  0
   10.9855  -12.0311   25.1537 O   0  0  0  0  0  0  0  0  0  0  0  0
   12.6067  -10.4256   24.0407 O   0  5  0  0  0  0  0  0  0  0  0  0
   12.3926  -10.4811   26.5582 O   0  0  0  0  0  0  0  0  0  0  0  0
  1  3  1  6  0  0  0
  1 21  1  0  0  0  0
  1 22  1  0  0  0  0
  1 23  2  0  0  0  0
  2  3  1  0  0  0  0
  4  2  1  1  0  0  0
  4  5  1  0  0  0  0
  4  6  1  0  0  0  0
  6  7  1  6  0  0  0
  6  8  1  0  0  0  0
  8  9  1  0  0  0  0
  9  5  1  1  0  0  0
  9 20  1  0  0  0  0
 10 11  1  0  0  0  0
 10 16  1  0  0  0  0
 11 12  1  1  0  0  0
 11 13  1  0  0  0  0
 14 13  1  6  0  0  0
 14 15  1  0  0  0  0
 14 20  1  0  0  0  0
 15 16  1  1  0  0  0
 15 18  1  0  0  0  0
 16 17  2  0  0  0  0
 18 19  1  0  0  0  0
 20 19  1  1  0  0  0
M  CHG  1  22  -1
M  END
>  <CHROM.1>
175.91138620,79.09053475,153.24377229,51.67636915,10.18703828,-7.61110275
26.77356676,-0.64550209,-1.03600501,1.65812376

>  <Name>
ligand

>  <RI>
0

>  <Rbt.Current_Directory>
/home/itssahil/PROJECTS/Mol_Feturizer/Test_systems_manuscript/rnas/3slm

>  <Rbt.Executable>
rbdock ($Id: //depot/dev/client3/rdock/2013.1/src/exe/rbdock.cxx#4 $)

>  <Rbt.Library>
libRbt.so (2013.1, Build901 2013/11/27)

>  <Rbt.Parameter_File>
/export/apps/rDock/src/rDock_2013.1_src/data/scripts/dock_solv.prm

>  <Rbt.Receptor>
prm/blind_docking_60.prm

>  <SCORE>
-15.9489

>  <SCORE.INTER>
-12.899

>  <SCORE.INTER.CONST>
1

>  <SCORE.INTER.POLAR>
0

>  <SCORE.INTER.ROT>
4

>  <SCORE.INTER.SOLV>
12.7303

>  <SCORE.INTER.VDW>
-19.1094

>  <SCORE.INTER.norm>
-0.560825

>  <SCORE.INTRA>
-3.05668

>  <SCORE.INTRA.DIHEDRAL>
-3.22488

>  <SCORE.INTRA.DIHEDRAL.0>
8.62657

>  <SCORE.INTRA.POLAR>
0

>  <SCORE.INTRA.POLAR.0>
0

>  <SCORE.INTRA.REPUL>
0

>  <SCORE.INTRA.REPUL.0>
0

>  <SCORE.INTRA.SOLV>
2.59647

>  <SCORE.INTRA.SOLV.lig_0>
-66.3641

>  <SCORE.INTRA.VDW>
-2.74248

>  <SCORE.INTRA.VDW.0>
0.452231

>  <SCORE.INTRA.norm>
-0.132899

>  <SCORE.RESTR>
0.00673495

>  <SCORE.RESTR.CAVITY>
0.00673495

>  <SCORE.RESTR.norm>
0.000292824

>  <SCORE.SYSTEM>
0

>  <SCORE.SYSTEM.CONST>
0

>  <SCORE.SYSTEM.DIHEDRAL>
0

>  <SCORE.SYSTEM.SOLV>
0

>  <SCORE.SYSTEM.norm>
0

>  <SCORE.heavy>
23

>  <SCORE.norm>
-0.693431

>  <RMSD>
14.727

$$$$
ligand
 OpenBabel02271912143D
libRbt.so/2013.1/901 2013/11/27
 23 25  0  0  0  0  0  0  0  0999 V2000
    5.6075   -4.3839   28.4508 P   0  0  1  0  0  0  0  0  0  0  0  0
    7.4800   -6.2113   28.5497 C   0  0  0  0  0  0  0  0  0  0  0  0
    6.5263   -5.4304   29.2564 O   0  0  0  0  0  0  0  0  0  0  0  0
    8.1699   -7.1015   29.5587 C   0  0  1  0  0  0  0  0  0  0  0  0
    8.9794   -8.0960   28.9322 O   0  0  0  0  0  0  0  0  0  0  0  0
    9.0724   -6.2523   30.4379 C   0  0  1  0  0  0  0  0  0  0  0  0
    8.8371   -6.6201   31.8081 O   0  0  0  0  0  0  0  0  0  0  0  0
   10.4916   -6.5797   29.9909 C   0  0  0  0  0  0  0  0  0  0  0  0
   10.3603   -7.9218   29.2759 C   0  0  2  0  0  0  0  0  0  0  0  0
   10.3929   -6.2829   24.3928 N   0  0  0  0  0  0  0  0  0  0  0  0
    9.4399   -6.0982   25.3209 C   0  0  2  0  0  0  0  0  0  0  0  0
    8.3425   -5.3897   24.9670 N   0  0  0  0  0  0  0  0  0  0  0  0
    9.5780   -6.5971   26.5730 N   0  0  0  0  0  0  0  0  0  0  0  0
   10.6882   -7.2923   26.8954 C   0  0  2  0  0  0  0  0  0  0  0  0
   11.6745   -7.4923   25.9539 C   0  0  1  0  0  0  0  0  0  0  0  0
   11.5139   -6.9667   24.6860 C   0  0  0  0  0  0  0  0  0  0  0  0
   12.3997   -7.1313   23.8196 O   0  0  0  0  0  0  0  0  0  0  0  0
   12.6580   -8.2149   26.5256 N   0  0  0  0  0  0  0  0  0  0  0  0
   12.2927   -8.4522   27.7978 C   0  0  0  0  0  0  0  0  0  0  0  0
   11.0936   -7.8975   28.0061 N   0  0  1  0  0  0  0  0  0  0  0  0
    6.5314   -3.3404   27.8714 O   0  0  0  0  0  0  0  0  0  0  0  0
    4.9040   -5.2356   27.4194 O   0  5  0  0  0  0  0  0  0  0  0  0
    4.6961   -3.8503   29.5227 O   0  0  0  0  0  0  0  0  0  0  0  0
  1  3  1  1  0  0  0
  1 21  1  0  0  0  0
  1 22  1  0  0  0  0
  1 23  2  0  0  0  0
  2  3  1  0  0  0  0
  4  2  1  6  0  0  0
  4  5  1  0  0  0  0
  4  6  1  0  0  0  0
  6  7  1  1  0  0  0
  6  8  1  0  0  0  0
  8  9  1  0  0  0  0
  9  5  1  6  0  0  0
  9 20  1  0  0  0  0
 10 11  1  0  0  0  0
 10 16  1  0  0  0  0
 11 12  1  1  0  0  0
 11 13  1  0  0  0  0
 14 13  1  6  0  0  0
 14 15  1  0  0  0  0
 14 20  1  0  0  0  0
 15 16  1  1  0  0  0
 15 18  1  0  0  0  0
 16 17  2  0  0  0  0
 18 19  1  0  0  0  0
 20 19  1  1  0  0  0
M  CHG  1  22  -1
M  END
>  <CHROM.1>
-63.95804004,169.60778728,-179.31058615,40.15949037,8.90222361,-6.30577589
27.74866696,2.80221899,-0.53181254,1.80021457

>  <Name>
ligand

>  <RI>
0

>  <Rbt.Current_Directory>
/home/itssahil/PROJECTS/Mol_Feturizer/Test_systems_manuscript/rnas/3slm

>  <Rbt.Executable>
rbdock ($Id: //depot/dev/client3/rdock/2013.1/src/exe/rbdock.cxx#4 $)

>  <Rbt.Library>
libRbt.so (2013.1, Build901 2013/11/27)

>  <Rbt.Parameter_File>
/export/apps/rDock/src/rDock_2013.1_src/data/scripts/dock_solv.prm

>  <Rbt.Receptor>
prm/blind_docking_100.prm

>  <SCORE>
-17.6405

>  <SCORE.INTER>
-12.4066

>  <SCORE.INTER.CONST>
1

>  <SCORE.INTER.POLAR>
0

>  <SCORE.INTER.ROT>
4

>  <SCORE.INTER.SOLV>
13.4032

>  <SCORE.INTER.VDW>
-19.0055

>  <SCORE.INTER.norm>
-0.539419

>  <SCORE.INTRA>
-5.23388

>  <SCORE.INTRA.DIHEDRAL>
-7.07611

>  <SCORE.INTRA.DIHEDRAL.0>
8.62657

>  <SCORE.INTRA.POLAR>
0

>  <SCORE.INTRA.POLAR.0>
0

>  <SCORE.INTRA.REPUL>
0

>  <SCORE.INTRA.REPUL.0>
0

>  <SCORE.INTRA.SOLV>
1.40801

>  <SCORE.INTRA.SOLV.lig_0>
-66.3641

>  <SCORE.INTRA.VDW>
-2.39983

>  <SCORE.INTRA.VDW.0>
0.452231

>  <SCORE.INTRA.norm>
-0.22756

>  <SCORE.RESTR>
0

>  <SCORE.RESTR.CAVITY>
0

>  <SCORE.RESTR.norm>
0

>  <SCORE.SYSTEM>
0

>  <SCORE.SYSTEM.CONST>
0

>  <SCORE.SYSTEM.DIHEDRAL>
0

>  <SCORE.SYSTEM.SOLV>
0

>  <SCORE.SYSTEM.norm>
0

>  <SCORE.heavy>
23

>  <SCORE.norm>
-0.76698

>  <RMSD>
14.784

$$$$
ligand
 OpenBabel02271912143D
libRbt.so/2013.1/901 2013/11/27
 23 25  0  0  0  0  0  0  0  0999 V2000
    5.4359   -4.4092   28.4532 P   0  0  1  0  0  0  0  0  0  0  0  0
    7.3334   -6.2095   28.5691 C   0  0  0  0  0  0  0  0  0  0  0  0
    6.3430   -5.4630   29.2624 O   0  0  0  0  0  0  0  0  0  0  0  0
    8.0305   -7.0859   29.5853 C   0  0  1  0  0  0  0  0  0  0  0  0
    8.8698   -8.0610   28.9675 O   0  0  0  0  0  0  0  0  0  0  0  0
    8.9027   -6.2183   30.4770 C   0  0  1  0  0  0  0  0  0  0  0  0
    8.6587   -6.5938   31.8436 O   0  0  0  0  0  0  0  0  0  0  0  0
   10.3344   -6.5132   30.0473 C   0  0  0  0  0  0  0  0  0  0  0  0
   10.2420   -7.8566   29.3286 C   0  0  2  0  0  0  0  0  0  0  0  0
   10.2732   -6.2586   24.4319 N   0  0  0  0  0  0  0  0  0  0  0  0
    9.3015   -6.1044   25.3461 C   0  0  2  0  0  0  0  0  0  0  0  0
    8.1814   -5.4433   24.9720 N   0  0  0  0  0  0  0  0  0  0  0  0
    9.4430   -6.5869   26.6043 N   0  0  0  0  0  0  0  0  0  0  0  0
   10.5757   -7.2344   26.9470 C   0  0  2  0  0  0  0  0  0  0  0  0
   11.5815   -7.4026   26.0200 C   0  0  1  0  0  0  0  0  0  0  0  0
   11.4166   -6.8945   24.7455 C   0  0  0  0  0  0  0  0  0  0  0  0
   12.3196   -7.0309   23.8920 O   0  0  0  0  0  0  0  0  0  0  0  0
   12.5855   -8.0806   26.6106 N   0  0  0  0  0  0  0  0  0  0  0  0
   12.2132   -8.3216   27.8801 C   0  0  0  0  0  0  0  0  0  0  0  0
   10.9904   -7.8135   28.0681 N   0  0  1  0  0  0  0  0  0  0  0  0
    6.3737   -3.3935   27.8474 O   0  0  0  0  0  0  0  0  0  0  0  0
    4.7019   -5.2607   27.4431 O   0  5  0  0  0  0  0  0  0  0  0  0
    4.5494   -3.8415   29.5286 O   0  0  0  0  0  0  0  0  0  0  0  0
  1  3  1  1  0  0  0
  1 21  1  0  0  0  0
  1 22  1  0  0  0  0
  1 23  2  0  0  0  0
  2  3  1  0  0  0  0
  4  2  1  6  0  0  0
  4  5  1  0  0  0  0
  4  6  1  0  0  0  0
  6  7  1  1  0  0  0
  6  8  1  0  0  0  0
  8  9  1  0  0  0  0
  9  5  1  6  0  0  0
  9 20  1  0  0  0  0
 10 11  1  0  0  0  0
 10 16  1  0  0  0  0
 11 12  1  1  0  0  0
 11 13  1  0  0  0  0
 14 13  1  6  0  0  0
 14 15  1  0  0  0  0
 14 20  1  0  0  0  0
 15 16  1  1  0  0  0
 15 18  1  0  0  0  0
 16 17  2  0  0  0  0
 18 19  1  0  0  0  0
 20 19  1  1  0  0  0
M  CHG  1  22  -1
M  END
>  <CHROM.1>
-59.77674498,168.92929968,179.01796387,38.99053726,8.76522572,-6.27768987
27.78301488,2.80358116,-0.50915253,1.79496212

>  <Name>
ligand

>  <RI>
0

>  <Rbt.Current_Directory>
/home/itssahil/PROJECTS/Mol_Feturizer/Test_systems_manuscript/rnas/3slm

>  <Rbt.Executable>
rbdock ($Id: //depot/dev/client3/rdock/2013.1/src/exe/rbdock.cxx#4 $)

>  <Rbt.Library>
libRbt.so (2013.1, Build901 2013/11/27)

>  <Rbt.Parameter_File>
/export/apps/rDock/src/rDock_2013.1_src/data/scripts/dock_solv.prm

>  <Rbt.Receptor>
prm/blind_docking_60.prm

>  <SCORE>
-17.688

>  <SCORE.INTER>
-12.3939

>  <SCORE.INTER.CONST>
1

>  <SCORE.INTER.POLAR>
0

>  <SCORE.INTER.ROT>
4

>  <SCORE.INTER.SOLV>
13.4123

>  <SCORE.INTER.VDW>
-19

>  <SCORE.INTER.norm>
-0.538866

>  <SCORE.INTRA>
-5.29404

>  <SCORE.INTRA.DIHEDRAL>
-7.04375

>  <SCORE.INTRA.DIHEDRAL.0>
8.62657

>  <SCORE.INTRA.POLAR>
0

>  <SCORE.INTRA.POLAR.0>
0

>  <SCORE.INTRA.REPUL>
0

>  <SCORE.INTRA.REPUL.0>
0

>  <SCORE.INTRA.SOLV>
1.31404

>  <SCORE.INTRA.SOLV.lig_0>
-66.3641

>  <SCORE.INTRA.VDW>
-2.42919

>  <SCORE.INTRA.VDW.0>
0.452231

>  <SCORE.INTRA.norm>
-0.230176

>  <SCORE.RESTR>
0

>  <SCORE.RESTR.CAVITY>
0

>  <SCORE.RESTR.norm>
0

>  <SCORE.SYSTEM>
0

>  <SCORE.SYSTEM.CONST>
0

>  <SCORE.SYSTEM.DIHEDRAL>
0

>  <SCORE.SYSTEM.SOLV>
0

>  <SCORE.SYSTEM.norm>
0

>  <SCORE.heavy>
23

>  <SCORE.norm>
-0.769041

>  <RMSD>
14.875

$$$$
ligand
 OpenBabel02271912143D
libRbt.so/2013.1/901 2013/11/27
 23 25  0  0  0  0  0  0  0  0999 V2000
   11.3815   10.8551   24.7787 P   0  0  1  0  0  0  0  0  0  0  0  0
   11.1991   10.8879   27.3904 C   0  0  0  0  0  0  0  0  0  0  0  0
   10.7180   11.3797   26.1472 O   0  0  0  0  0  0  0  0  0  0  0  0
   10.4306   11.5964   28.4830 C   0  0  1  0  0  0  0  0  0  0  0  0
    9.0191   11.5049   28.2926 O   0  0  0  0  0  0  0  0  0  0  0  0
   10.7625   10.9571   29.8208 C   0  0  1  0  0  0  0  0  0  0  0  0
   11.0516   12.0076   30.7594 O   0  0  0  0  0  0  0  0  0  0  0  0
    9.5183   10.1675   30.2080 C   0  0  0  0  0  0  0  0  0  0  0  0
    8.4033   10.7888   29.3711 C   0  0  2  0  0  0  0  0  0  0  0  0
    6.2097    6.1660   29.9621 N   0  0  0  0  0  0  0  0  0  0  0  0
    6.9654    6.8416   30.8431 C   0  0  2  0  0  0  0  0  0  0  0  0
    7.1909    6.2716   32.0497 N   0  0  0  0  0  0  0  0  0  0  0  0
    7.4767    8.0583   30.5365 N   0  0  0  0  0  0  0  0  0  0  0  0
    7.2263    8.6017   29.3275 C   0  0  2  0  0  0  0  0  0  0  0  0
    6.4543    7.9204   28.4115 C   0  0  1  0  0  0  0  0  0  0  0  0
    5.9376    6.6844   28.7508 C   0  0  0  0  0  0  0  0  0  0  0  0
    5.2297    6.0532   27.9367 O   0  0  0  0  0  0  0  0  0  0  0  0
    6.3669    8.6725   27.2965 N   0  0  0  0  0  0  0  0  0  0  0  0
    7.0642    9.8005   27.5190 C   0  0  0  0  0  0  0  0  0  0  0  0
    7.5883    9.7407   28.7480 N   0  0  1  0  0  0  0  0  0  0  0  0
   11.2542    9.3512   24.7747 O   0  0  0  0  0  0  0  0  0  0  0  0
   10.5862   11.5511   23.6982 O   0  5  0  0  0  0  0  0  0  0  0  0
   12.8023   11.3371   24.8940 O   0  0  0  0  0  0  0  0  0  0  0  0
  1  3  1  1  0  0  0
  1 21  1  0  0  0  0
  1 22  1  0  0  0  0
  1 23  2  0  0  0  0
  2  3  1  0  0  0  0
  4  2  1  6  0  0  0
  4  5  1  0  0  0  0
  4  6  1  0  0  0  0
  6  7  1  1  0  0  0
  6  8  1  0  0  0  0
  8  9  1  0  0  0  0
  9  5  1  6  0  0  0
  9 20  1  0  0  0  0
 10 11  1  0  0  0  0
 10 16  1  0  0  0  0
 11 12  1  1  0  0  0
 11 13  1  0  0  0  0
 14 13  1  6  0  0  0
 14 15  1  0  0  0  0
 14 20  1  0  0  0  0
 15 16  1  1  0  0  0
 15 18  1  0  0  0  0
 16 17  2  0  0  0  0
 18 19  1  0  0  0  0
 20 19  1  1  0  0  0
M  CHG  1  22  -1
M  END
>  <CHROM.1>
56.65081139,52.23962059,177.74008586,155.62157156,8.96912170,9.58398219,27.99167771
0.50991776,-0.75073660,-1.69849824

>  <Name>
ligand

>  <RI>
0

>  <Rbt.Current_Directory>
/home/itssahil/PROJECTS/Mol_Feturizer/Test_systems_manuscript/rnas/3slm

>  <Rbt.Executable>
rbdock ($Id: //depot/dev/client3/rdock/2013.1/src/exe/rbdock.cxx#4 $)

>  <Rbt.Library>
libRbt.so (2013.1, Build901 2013/11/27)

>  <Rbt.Parameter_File>
/export/apps/rDock/src/rDock_2013.1_src/data/scripts/dock_solv.prm

>  <Rbt.Receptor>
prm/blind_docking_40.prm

>  <SCORE>
-22.9921

>  <SCORE.INTER>
-18.0325

>  <SCORE.INTER.CONST>
1

>  <SCORE.INTER.POLAR>
0

>  <SCORE.INTER.ROT>
4

>  <SCORE.INTER.SOLV>
14.3243

>  <SCORE.INTER.VDW>
-23.0631

>  <SCORE.INTER.norm>
-0.784022

>  <SCORE.INTRA>
-4.95962

>  <SCORE.INTRA.DIHEDRAL>
-7.23027

>  <SCORE.INTRA.DIHEDRAL.0>
8.62657

>  <SCORE.INTRA.POLAR>
0

>  <SCORE.INTRA.POLAR.0>
0

>  <SCORE.INTRA.REPUL>
0

>  <SCORE.INTRA.REPUL.0>
0

>  <SCORE.INTRA.SOLV>
-0.66165

>  <SCORE.INTRA.SOLV.lig_0>
-66.3641

>  <SCORE.INTRA.VDW>
-1.01367

>  <SCORE.INTRA.VDW.0>
0.452231

>  <SCORE.INTRA.norm>
-0.215636

>  <SCORE.RESTR>
6.54515e-05

>  <SCORE.RESTR.CAVITY>
6.54515e-05

>  <SCORE.RESTR.norm>
2.84572e-06

>  <SCORE.SYSTEM>
0

>  <SCORE.SYSTEM.CONST>
0

>  <SCORE.SYSTEM.DIHEDRAL>
0

>  <SCORE.SYSTEM.SOLV>
0

>  <SCORE.SYSTEM.norm>
0

>  <SCORE.heavy>
23

>  <SCORE.norm>
-0.999655

>  <RMSD>
14.934

$$$$
ligand
 OpenBabel02271912143D
libRbt.so/2013.1/901 2013/11/27
 23 25  0  0  0  0  0  0  0  0999 V2000
   11.5907  -10.6247   24.5852 P   0  0  1  0  0  0  0  0  0  0  0  0
   10.7283   -8.1726   24.8997 C   0  0  0  0  0  0  0  0  0  0  0  0
   10.5346   -9.4454   24.2986 O   0  0  0  0  0  0  0  0  0  0  0  0
    9.8469   -7.1883   24.1644 C   0  0  1  0  0  0  0  0  0  0  0  0
    8.4619   -7.4013   24.4354 O   0  0  0  0  0  0  0  0  0  0  0  0
   10.1967   -5.7778   24.6081 C   0  0  1  0  0  0  0  0  0  0  0  0
   10.3341   -4.9601   23.4332 O   0  0  0  0  0  0  0  0  0  0  0  0
    9.0328   -5.3326   25.4847 C   0  0  0  0  0  0  0  0  0  0  0  0
    7.8884   -6.2627   25.0910 C   0  0  2  0  0  0  0  0  0  0  0  0
    8.3106   -7.2839   30.1220 N   0  0  0  0  0  0  0  0  0  0  0  0
    9.2465   -6.7854   29.2978 C   0  0  2  0  0  0  0  0  0  0  0  0
   10.4597   -6.4942   29.8222 N   0  0  0  0  0  0  0  0  0  0  0  0
    8.9807   -6.5722   27.9864 N   0  0  0  0  0  0  0  0  0  0  0  0
    7.7584   -6.8659   27.4972 C   0  0  2  0  0  0  0  0  0  0  0  0
    6.7876   -7.3800   28.3293 C   0  0  1  0  0  0  0  0  0  0  0  0
    7.0807   -7.5810   29.6648 C   0  0  0  0  0  0  0  0  0  0  0  0
    6.2121   -8.0402   30.4375 O   0  0  0  0  0  0  0  0  0  0  0  0
    5.6763   -7.5894   27.5962 N   0  0  0  0  0  0  0  0  0  0  0  0
    5.9497   -7.2062   26.3365 C   0  0  0  0  0  0  0  0  0  0  0  0
    7.2166   -6.7802   26.2875 N   0  0  1  0  0  0  0  0  0  0  0  0
   11.0880  -11.8519   23.8645 O   0  0  0  0  0  0  0  0  0  0  0  0
   12.8969  -10.0808   24.0539 O   0  5  0  0  0  0  0  0  0  0  0  0
   11.5487  -10.7493   26.0842 O   0  0  0  0  0  0  0  0  0  0  0  0
  1  3  1  6  0  0  0
  1 21  1  0  0  0  0
  1 22  1  0  0  0  0
  1 23  2  0  0  0  0
  2  3  1  0  0  0  0
  4  2  1  1  0  0  0
  4  5  1  0  0  0  0
  4  6  1  0  0  0  0
  6  7  1  6  0  0  0
  6  8  1  0  0  0  0
  8  9  1  0  0  0  0
  9  5  1  1  0  0  0
  9 20  1  0  0  0  0
 10 11  1  0  0  0  0
 10 16  1  0  0  0  0
 11 12  1  1  0  0  0
 11 13  1  0  0  0  0
 14 13  1  6  0  0  0
 14 15  1  0  0  0  0
 14 20  1  0  0  0  0
 15 16  1  1  0  0  0
 15 18  1  0  0  0  0
 16 17  2  0  0  0  0
 18 19  1  0  0  0  0
 20 19  1  1  0  0  0
M  CHG  1  22  -1
M  END
>  <CHROM.1>
177.66402804,70.31753036,164.24201241,93.08541286,9.25595077,-7.89555262
26.27188988,-0.26047535,-0.87976148,2.25285808

>  <Name>
ligand

>  <RI>
0

>  <Rbt.Current_Directory>
/home/itssahil/PROJECTS/Mol_Feturizer/Test_systems_manuscript/rnas/3slm

>  <Rbt.Executable>
rbdock ($Id: //depot/dev/client3/rdock/2013.1/src/exe/rbdock.cxx#4 $)

>  <Rbt.Library>
libRbt.so (2013.1, Build901 2013/11/27)

>  <Rbt.Parameter_File>
/export/apps/rDock/src/rDock_2013.1_src/data/scripts/dock_solv.prm

>  <Rbt.Receptor>
prm/blind_docking_100.prm

>  <SCORE>
-16.3947

>  <SCORE.INTER>
-12.6074

>  <SCORE.INTER.CONST>
1

>  <SCORE.INTER.POLAR>
0

>  <SCORE.INTER.ROT>
4

>  <SCORE.INTER.SOLV>
18.4517

>  <SCORE.INTER.VDW>
-20.8221

>  <SCORE.INTER.norm>
-0.548146

>  <SCORE.INTRA>
-3.78982

>  <SCORE.INTRA.DIHEDRAL>
-5.82653

>  <SCORE.INTRA.DIHEDRAL.0>
8.62657

>  <SCORE.INTRA.POLAR>
0

>  <SCORE.INTRA.POLAR.0>
0

>  <SCORE.INTRA.REPUL>
0

>  <SCORE.INTRA.REPUL.0>
0

>  <SCORE.INTRA.SOLV>
-0.0591253

>  <SCORE.INTRA.SOLV.lig_0>
-66.3641

>  <SCORE.INTRA.VDW>
-0.846989

>  <SCORE.INTRA.VDW.0>
0.452231

>  <SCORE.INTRA.norm>
-0.164775

>  <SCORE.RESTR>
0.00246013

>  <SCORE.RESTR.CAVITY>
0.00246013

>  <SCORE.RESTR.norm>
0.000106962

>  <SCORE.SYSTEM>
0

>  <SCORE.SYSTEM.CONST>
0

>  <SCORE.SYSTEM.DIHEDRAL>
0

>  <SCORE.SYSTEM.SOLV>
0

>  <SCORE.SYSTEM.norm>
0

>  <SCORE.heavy>
23

>  <SCORE.norm>
-0.712814

>  <RMSD>
15.541

$$$$
ligand
 OpenBabel02271912143D
libRbt.so/2013.1/901 2013/11/27
 23 25  0  0  0  0  0  0  0  0999 V2000
   11.5158   11.6594   26.2539 P   0  0  1  0  0  0  0  0  0  0  0  0
    9.3258   11.2794   27.6376 C   0  0  0  0  0  0  0  0  0  0  0  0
   10.7257   11.5218   27.6486 O   0  0  0  0  0  0  0  0  0  0  0  0
    8.8332   11.4189   29.0605 C   0  0  1  0  0  0  0  0  0  0  0  0
    7.4828   10.9809   29.2065 O   0  0  0  0  0  0  0  0  0  0  0  0
    9.7000   10.5684   29.9737 C   0  0  1  0  0  0  0  0  0  0  0  0
   10.0698   11.3670   31.1111 O   0  0  0  0  0  0  0  0  0  0  0  0
    8.8279    9.3818   30.3642 C   0  0  0  0  0  0  0  0  0  0  0  0
    7.4030    9.8573   30.0933 C   0  0  2  0  0  0  0  0  0  0  0  0
    4.8009    5.4274   30.4635 N   0  0  0  0  0  0  0  0  0  0  0  0
    5.4195    6.1076   31.4425 C   0  0  2  0  0  0  0  0  0  0  0  0
    5.3642    5.6007   32.6961 N   0  0  0  0  0  0  0  0  0  0  0  0
    6.0690    7.2683   31.1841 N   0  0  0  0  0  0  0  0  0  0  0  0
    6.0984    7.7501   29.9245 C   0  0  2  0  0  0  0  0  0  0  0  0
    5.4703    7.0631   28.9083 C   0  0  1  0  0  0  0  0  0  0  0  0
    4.8078    5.8856   29.1986 C   0  0  0  0  0  0  0  0  0  0  0  0
    4.2264    5.2508   28.2923 O   0  0  0  0  0  0  0  0  0  0  0  0
    5.6564    7.7484   27.7628 N   0  0  0  0  0  0  0  0  0  0  0  0
    6.3789    8.8419   28.0635 C   0  0  0  0  0  0  0  0  0  0  0  0
    6.6490    8.8259   29.3732 N   0  0  1  0  0  0  0  0  0  0  0  0
   11.0959   12.9712   25.6365 O   0  0  0  0  0  0  0  0  0  0  0  0
   12.9722   11.5957   26.6525 O   0  5  0  0  0  0  0  0  0  0  0  0
   11.0425   10.4553   25.4854 O   0  0  0  0  0  0  0  0  0  0  0  0
  1  3  1  1  0  0  0
  1 21  1  0  0  0  0
  1 22  1  0  0  0  0
  1 23  2  0  0  0  0
  2  3  1  0  0  0  0
  4  2  1  6  0  0  0
  4  5  1  0  0  0  0
  4  6  1  0  0  0  0
  6  7  1  1  0  0  0
  6  8  1  0  0  0  0
  8  9  1  0  0  0  0
  9  5  1  6  0  0  0
  9 20  1  0  0  0  0
 10 11  1  0  0  0  0
 10 16  1  0  0  0  0
 11 12  1  1  0  0  0
 11 13  1  0  0  0  0
 14 13  1  6  0  0  0
 14 15  1  0  0  0  0
 14 20  1  0  0  0  0
 15 16  1  1  0  0  0
 15 18  1  0  0  0  0
 16 17  2  0  0  0  0
 18 19  1  0  0  0  0
 20 19  1  1  0  0  0
M  CHG  1  22  -1
M  END
>  <CHROM.1>
70.87591077,-170.29671251,-171.14166671,-164.36996730,8.13992718,9.31410436
28.76607745,0.32277112,-0.75941269,-1.67479572

>  <Name>
ligand

>  <RI>
0

>  <Rbt.Current_Directory>
/home/itssahil/PROJECTS/Mol_Feturizer/Test_systems_manuscript/rnas/3slm

>  <Rbt.Executable>
rbdock ($Id: //depot/dev/client3/rdock/2013.1/src/exe/rbdock.cxx#4 $)

>  <Rbt.Library>
libRbt.so (2013.1, Build901 2013/11/27)

>  <Rbt.Parameter_File>
/export/apps/rDock/src/rDock_2013.1_src/data/scripts/dock_solv.prm

>  <Rbt.Receptor>
prm/blind_docking_40.prm

>  <SCORE>
-15.4588

>  <SCORE.INTER>
-10.9761

>  <SCORE.INTER.CONST>
1

>  <SCORE.INTER.POLAR>
0

>  <SCORE.INTER.ROT>
4

>  <SCORE.INTER.SOLV>
13.2102

>  <SCORE.INTER.VDW>
-17.9875

>  <SCORE.INTER.norm>
-0.47722

>  <SCORE.INTRA>
-4.48273

>  <SCORE.INTRA.DIHEDRAL>
-6.4614

>  <SCORE.INTRA.DIHEDRAL.0>
8.62657

>  <SCORE.INTRA.POLAR>
0

>  <SCORE.INTRA.POLAR.0>
0

>  <SCORE.INTRA.REPUL>
0

>  <SCORE.INTRA.REPUL.0>
0

>  <SCORE.INTRA.SOLV>
-0.420054

>  <SCORE.INTRA.SOLV.lig_0>
-66.3641

>  <SCORE.INTRA.VDW>
-1.042

>  <SCORE.INTRA.VDW.0>
0.452231

>  <SCORE.INTRA.norm>
-0.194901

>  <SCORE.RESTR>
0

>  <SCORE.RESTR.CAVITY>
0

>  <SCORE.RESTR.norm>
0

>  <SCORE.SYSTEM>
0

>  <SCORE.SYSTEM.CONST>
0

>  <SCORE.SYSTEM.DIHEDRAL>
0

>  <SCORE.SYSTEM.SOLV>
0

>  <SCORE.SYSTEM.norm>
0

>  <SCORE.heavy>
23

>  <SCORE.norm>
-0.672122

>  <RMSD>
15.553

$$$$
ligand
 OpenBabel02271912143D
libRbt.so/2013.1/901 2013/11/27
 23 25  0  0  0  0  0  0  0  0999 V2000
    5.4619   -6.2960   25.0508 P   0  0  1  0  0  0  0  0  0  0  0  0
    7.9848   -6.2084   25.7455 C   0  0  0  0  0  0  0  0  0  0  0  0
    7.0217   -6.5663   24.7641 O   0  0  0  0  0  0  0  0  0  0  0  0
    9.3307   -6.6904   25.2528 C   0  0  1  0  0  0  0  0  0  0  0  0
   10.3964   -6.2682   26.1030 O   0  0  0  0  0  0  0  0  0  0  0  0
    9.3348   -8.2095   25.2201 C   0  0  1  0  0  0  0  0  0  0  0  0
    9.8708   -8.6285   23.9532 O   0  0  0  0  0  0  0  0  0  0  0  0
   10.2189   -8.6335   26.3862 C   0  0  0  0  0  0  0  0  0  0  0  0
   11.0582   -7.3957   26.6912 C   0  0  2  0  0  0  0  0  0  0  0  0
    8.4330   -5.6795   30.7772 N   0  0  0  0  0  0  0  0  0  0  0  0
    8.0269   -5.7386   29.4984 C   0  0  2  0  0  0  0  0  0  0  0  0
    6.7747   -5.3119   29.2129 N   0  0  0  0  0  0  0  0  0  0  0  0
    8.8416   -6.2189   28.5281 N   0  0  0  0  0  0  0  0  0  0  0  0
   10.0814   -6.6436   28.8478 C   0  0  2  0  0  0  0  0  0  0  0  0
   10.5140   -6.5877   30.1550 C   0  0  1  0  0  0  0  0  0  0  0  0
    9.6616   -6.1011   31.1278 C   0  0  0  0  0  0  0  0  0  0  0  0
   10.0325   -6.0482   32.3203 O   0  0  0  0  0  0  0  0  0  0  0  0
   11.7758   -7.0593   30.1985 N   0  0  0  0  0  0  0  0  0  0  0  0
   12.1164   -7.4073   28.9451 C   0  0  0  0  0  0  0  0  0  0  0  0
   11.0860   -7.1409   28.1352 N   0  0  1  0  0  0  0  0  0  0  0  0
    5.0958   -7.0886   26.2819 O   0  0  0  0  0  0  0  0  0  0  0  0
    5.3783   -4.7972   25.2264 O   0  5  0  0  0  0  0  0  0  0  0  0
    4.8028   -6.7987   23.7949 O   0  0  0  0  0  0  0  0  0  0  0  0
  1  3  1  6  0  0  0
  1 21  1  0  0  0  0
  1 22  1  0  0  0  0
  1 23  2  0  0  0  0
  2  3  1  0  0  0  0
  4  2  1  1  0  0  0
  4  5  1  0  0  0  0
  4  6  1  0  0  0  0
  6  7  1  6  0  0  0
  6  8  1  0  0  0  0
  8  9  1  0  0  0  0
  9  5  1  6  0  0  0
  9 20  1  0  0  0  0
 10 11  1  0  0  0  0
 10 16  1  0  0  0  0
 11 12  1  1  0  0  0
 11 13  1  0  0  0  0
 14 13  1  6  0  0  0
 14 15  1  0  0  0  0
 14 20  1  0  0  0  0
 15 16  1  1  0  0  0
 15 18  1  0  0  0  0
 16 17  2  0  0  0  0
 18 19  1  0  0  0  0
 20 19  1  1  0  0  0
M  CHG  1  22  -1
M  END
>  <CHROM.1>
-60.46766482,174.28393516,175.03225601,41.89529167,8.57061181,-6.65146448
27.25759584,2.30242462,0.33188452,-1.85407882

>  <Name>
ligand

>  <RI>
0

>  <Rbt.Current_Directory>
/home/itssahil/PROJECTS/Mol_Feturizer/Test_systems_manuscript/rnas/3slm

>  <Rbt.Executable>
rbdock ($Id: //depot/dev/client3/rdock/2013.1/src/exe/rbdock.cxx#4 $)

>  <Rbt.Library>
libRbt.so (2013.1, Build901 2013/11/27)

>  <Rbt.Parameter_File>
/export/apps/rDock/src/rDock_2013.1_src/data/scripts/dock_solv.prm

>  <Rbt.Receptor>
prm/blind_docking_100.prm

>  <SCORE>
-15.5982

>  <SCORE.INTER>
-10.2938

>  <SCORE.INTER.CONST>
1

>  <SCORE.INTER.POLAR>
0

>  <SCORE.INTER.ROT>
4

>  <SCORE.INTER.SOLV>
12.8593

>  <SCORE.INTER.VDW>
-17.4156

>  <SCORE.INTER.norm>
-0.447557

>  <SCORE.INTRA>
-5.30439

>  <SCORE.INTRA.DIHEDRAL>
-7.23697

>  <SCORE.INTRA.DIHEDRAL.0>
8.62657

>  <SCORE.INTRA.POLAR>
0

>  <SCORE.INTRA.POLAR.0>
0

>  <SCORE.INTRA.REPUL>
0

>  <SCORE.INTRA.REPUL.0>
0

>  <SCORE.INTRA.SOLV>
1.61589

>  <SCORE.INTRA.SOLV.lig_0>
-66.3641

>  <SCORE.INTRA.VDW>
-2.49385

>  <SCORE.INTRA.VDW.0>
0.452231

>  <SCORE.INTRA.norm>
-0.230626

>  <SCORE.RESTR>
0

>  <SCORE.RESTR.CAVITY>
0

>  <SCORE.RESTR.norm>
0

>  <SCORE.SYSTEM>
0

>  <SCORE.SYSTEM.CONST>
0

>  <SCORE.SYSTEM.DIHEDRAL>
0

>  <SCORE.SYSTEM.SOLV>
0

>  <SCORE.SYSTEM.norm>
0

>  <SCORE.heavy>
23

>  <SCORE.norm>
-0.678183

>  <RMSD>
15.640

$$$$
ligand
 OpenBabel02271912143D
libRbt.so/2013.1/901 2013/11/27
 23 25  0  0  0  0  0  0  0  0999 V2000
    9.3364   11.8949   25.2999 P   0  0  1  0  0  0  0  0  0  0  0  0
    8.1162   11.1958   27.5085 C   0  0  0  0  0  0  0  0  0  0  0  0
    9.2415   11.8180   26.9041 O   0  0  0  0  0  0  0  0  0  0  0  0
    8.2019   11.4564   28.9955 C   0  0  1  0  0  0  0  0  0  0  0  0
    7.1759   10.7781   29.7195 O   0  0  0  0  0  0  0  0  0  0  0  0
    9.5421   10.9608   29.5121 C   0  0  1  0  0  0  0  0  0  0  0  0
   10.1112   11.9900   30.3396 O   0  0  0  0  0  0  0  0  0  0  0  0
    9.2251    9.6977   30.3029 C   0  0  0  0  0  0  0  0  0  0  0  0
    7.7380    9.8190   30.6247 C   0  0  2  0  0  0  0  0  0  0  0  0
    5.6246    6.7977   27.0279 N   0  0  0  0  0  0  0  0  0  0  0  0
    6.1846    8.0077   26.8669 C   0  0  2  0  0  0  0  0  0  0  0  0
    6.2250    8.5237   25.6164 N   0  0  0  0  0  0  0  0  0  0  0  0
    6.7007    8.6845   27.9211 N   0  0  0  0  0  0  0  0  0  0  0  0
    6.6513    8.1382   29.1535 C   0  0  2  0  0  0  0  0  0  0  0  0
    6.0782    6.8982   29.3358 C   0  0  1  0  0  0  0  0  0  0  0  0
    5.5658    6.2243   28.2435 C   0  0  0  0  0  0  0  0  0  0  0  0
    5.0477    5.0958   28.3867 O   0  0  0  0  0  0  0  0  0  0  0  0
    6.1509    6.5925   30.6464 N   0  0  0  0  0  0  0  0  0  0  0  0
    6.7632    7.6185   31.2633 C   0  0  0  0  0  0  0  0  0  0  0  0
    7.0515    8.5524   30.3503 N   0  0  1  0  0  0  0  0  0  0  0  0
    8.7086   10.6330   24.7599 O   0  0  0  0  0  0  0  0  0  0  0  0
    8.5894   13.1616   24.9513 O   0  5  0  0  0  0  0  0  0  0  0  0
   10.8196   11.9780   25.0599 O   0  0  0  0  0  0  0  0  0  0  0  0
  1  3  1  1  0  0  0
  1 21  1  0  0  0  0
  1 22  1  0  0  0  0
  1 23  2  0  0  0  0
  2  3  1  0  0  0  0
  4  2  1  6  0  0  0
  4  5  1  0  0  0  0
  4  6  1  0  0  0  0
  6  7  1  1  0  0  0
  6  8  1  0  0  0  0
  8  9  1  0  0  0  0
  9  5  1  6  0  0  0
  9 20  1  0  0  0  0
 10 11  1  0  0  0  0
 10 16  1  0  0  0  0
 11 12  1  6  0  0  0
 11 13  1  0  0  0  0
 14 13  1  1  0  0  0
 14 15  1  0  0  0  0
 14 20  1  0  0  0  0
 15 16  1  6  0  0  0
 15 18  1  0  0  0  0
 16 17  2  0  0  0  0
 18 19  1  0  0  0  0
 20 19  1  6  0  0  0
M  CHG  1  22  -1
M  END
>  <CHROM.1>
-34.40525735,-175.06441309,-171.69785812,35.45619814,7.75866790,9.64177884
27.98477612,0.59559415,-0.93875468,-1.43652073

>  <Name>
ligand

>  <RI>
0

>  <Rbt.Current_Directory>
/home/itssahil/PROJECTS/Mol_Feturizer/Test_systems_manuscript/rnas/3slm

>  <Rbt.Executable>
rbdock ($Id: //depot/dev/client3/rdock/2013.1/src/exe/rbdock.cxx#4 $)

>  <Rbt.Library>
libRbt.so (2013.1, Build901 2013/11/27)

>  <Rbt.Parameter_File>
/export/apps/rDock/src/rDock_2013.1_src/data/scripts/dock_solv.prm

>  <Rbt.Receptor>
prm/blind_docking_40.prm

>  <SCORE>
-21.3898

>  <SCORE.INTER>
-16.9708

>  <SCORE.INTER.CONST>
1

>  <SCORE.INTER.POLAR>
0

>  <SCORE.INTER.ROT>
4

>  <SCORE.INTER.SOLV>
20.1805

>  <SCORE.INTER.VDW>
-24.3074

>  <SCORE.INTER.norm>
-0.73786

>  <SCORE.INTRA>
-4.41902

>  <SCORE.INTRA.DIHEDRAL>
-6.10099

>  <SCORE.INTRA.DIHEDRAL.0>
8.62657

>  <SCORE.INTRA.POLAR>
0

>  <SCORE.INTRA.POLAR.0>
0

>  <SCORE.INTRA.REPUL>
0

>  <SCORE.INTRA.REPUL.0>
0

>  <SCORE.INTRA.SOLV>
1.35494

>  <SCORE.INTRA.SOLV.lig_0>
-66.3641

>  <SCORE.INTRA.VDW>
-2.046

>  <SCORE.INTRA.VDW.0>
0.452231

>  <SCORE.INTRA.norm>
-0.192131

>  <SCORE.RESTR>
0

>  <SCORE.RESTR.CAVITY>
0

>  <SCORE.RESTR.norm>
0

>  <SCORE.SYSTEM>
0

>  <SCORE.SYSTEM.CONST>
0

>  <SCORE.SYSTEM.DIHEDRAL>
0

>  <SCORE.SYSTEM.SOLV>
0

>  <SCORE.SYSTEM.norm>
0

>  <SCORE.heavy>
23

>  <SCORE.norm>
-0.929991

>  <RMSD>
15.659

$$$$
ligand
 OpenBabel02271912143D
libRbt.so/2013.1/901 2013/11/27
 23 25  0  0  0  0  0  0  0  0999 V2000
    4.0150   -3.6927   28.3138 P   0  0  1  0  0  0  0  0  0  0  0  0
    5.6976   -5.5586   27.5774 C   0  0  0  0  0  0  0  0  0  0  0  0
    4.8837   -5.0147   28.6072 O   0  0  0  0  0  0  0  0  0  0  0  0
    6.3855   -6.7800   28.1446 C   0  0  1  0  0  0  0  0  0  0  0  0
    7.2771   -7.3789   27.2049 O   0  0  0  0  0  0  0  0  0  0  0  0
    7.1970   -6.3741   29.3634 C   0  0  1  0  0  0  0  0  0  0  0  0
    6.9163   -7.3088   30.4196 O   0  0  0  0  0  0  0  0  0  0  0  0
    8.6518   -6.4342   28.9150 C   0  0  0  0  0  0  0  0  0  0  0  0
    8.6283   -7.3334   27.6819 C   0  0  2  0  0  0  0  0  0  0  0  0
   12.3658   -8.0742   24.2157 N   0  0  0  0  0  0  0  0  0  0  0  0
   11.8998   -8.9428   25.1280 C   0  0  2  0  0  0  0  0  0  0  0  0
   12.4505  -10.1785   25.1627 N   0  0  0  0  0  0  0  0  0  0  0  0
   10.9041   -8.5953   25.9787 N   0  0  0  0  0  0  0  0  0  0  0  0
   10.3716   -7.3577   25.9124 C   0  0  2  0  0  0  0  0  0  0  0  0
   10.8400   -6.4540   24.9833 C   0  0  1  0  0  0  0  0  0  0  0  0
   11.8508   -6.8349   24.1214 C   0  0  0  0  0  0  0  0  0  0  0  0
   12.2853   -6.0323   23.2673 O   0  0  0  0  0  0  0  0  0  0  0  0
   10.1516   -5.3051   25.1333 N   0  0  0  0  0  0  0  0  0  0  0  0
    9.2692   -5.4945   26.1302 C   0  0  0  0  0  0  0  0  0  0  0  0
    9.4196   -6.7375   26.6004 N   0  0  1  0  0  0  0  0  0  0  0  0
    4.9437   -2.6862   27.6795 O   0  0  0  0  0  0  0  0  0  0  0  0
    2.9081   -4.1783   27.4065 O   0  5  0  0  0  0  0  0  0  0  0  0
    3.5450   -3.2943   29.6867 O   0  0  0  0  0  0  0  0  0  0  0  0
  1  3  1  1  0  0  0
  1 21  1  0  0  0  0
  1 22  1  0  0  0  0
  1 23  2  0  0  0  0
  2  3  1  0  0  0  0
  4  2  1  6  0  0  0
  4  5  1  0  0  0  0
  4  6  1  0  0  0  0
  6  7  1  1  0  0  0
  6  8  1  0  0  0  0
  8  9  1  0  0  0  0
  9  5  1  6  0  0  0
  9 20  1  0  0  0  0
 10 11  1  0  0  0  0
 10 16  1  0  0  0  0
 11 12  1  6  0  0  0
 11 13  1  0  0  0  0
 14 13  1  1  0  0  0
 14 15  1  0  0  0  0
 14 20  1  0  0  0  0
 15 16  1  6  0  0  0
 15 18  1  0  0  0  0
 16 17  2  0  0  0  0
 18 19  1  0  0  0  0
 20 19  1  6  0  0  0
M  CHG  1  22  -1
M  END
>  <CHROM.1>
-49.07218982,-177.60896612,179.91644617,-114.78175675,8.00996644,-6.14318562
26.99698893,3.13816418,-0.61196358,2.37275569

>  <Name>
ligand

>  <RI>
0

>  <Rbt.Current_Directory>
/home/itssahil/PROJECTS/Mol_Feturizer/Test_systems_manuscript/rnas/3slm

>  <Rbt.Executable>
rbdock ($Id: //depot/dev/client3/rdock/2013.1/src/exe/rbdock.cxx#4 $)

>  <Rbt.Library>
libRbt.so (2013.1, Build901 2013/11/27)

>  <Rbt.Parameter_File>
/export/apps/rDock/src/rDock_2013.1_src/data/scripts/dock_solv.prm

>  <Rbt.Receptor>
prm/blind_docking_80.prm

>  <SCORE>
-15.9592

>  <SCORE.INTER>
-10.5434

>  <SCORE.INTER.CONST>
1

>  <SCORE.INTER.POLAR>
0

>  <SCORE.INTER.ROT>
4

>  <SCORE.INTER.SOLV>
13.2823

>  <SCORE.INTER.VDW>
-17.723

>  <SCORE.INTER.norm>
-0.458407

>  <SCORE.INTRA>
-5.41586

>  <SCORE.INTRA.DIHEDRAL>
-7.20757

>  <SCORE.INTRA.DIHEDRAL.0>
8.62657

>  <SCORE.INTRA.POLAR>
0

>  <SCORE.INTRA.POLAR.0>
0

>  <SCORE.INTRA.REPUL>
0

>  <SCORE.INTRA.REPUL.0>
0

>  <SCORE.INTRA.SOLV>
-0.593852

>  <SCORE.INTRA.SOLV.lig_0>
-66.3641

>  <SCORE.INTRA.VDW>
-1.51515

>  <SCORE.INTRA.VDW.0>
0.452231

>  <SCORE.INTRA.norm>
-0.235472

>  <SCORE.RESTR>
0

>  <SCORE.RESTR.CAVITY>
0

>  <SCORE.RESTR.norm>
0

>  <SCORE.SYSTEM>
0

>  <SCORE.SYSTEM.CONST>
0

>  <SCORE.SYSTEM.DIHEDRAL>
0

>  <SCORE.SYSTEM.SOLV>
0

>  <SCORE.SYSTEM.norm>
0

>  <SCORE.heavy>
23

>  <SCORE.norm>
-0.693879

>  <RMSD>
15.693

$$$$
ligand
 OpenBabel02271912143D
libRbt.so/2013.1/901 2013/11/27
 23 25  0  0  0  0  0  0  0  0999 V2000
    7.4974    6.0860   31.5357 P   0  0  1  0  0  0  0  0  0  0  0  0
    5.8482    7.1631   29.8108 C   0  0  0  0  0  0  0  0  0  0  0  0
    6.9257    6.2665   30.0428 O   0  0  0  0  0  0  0  0  0  0  0  0
    5.5833    7.1737   28.3222 C   0  0  1  0  0  0  0  0  0  0  0  0
    5.6099    5.8610   27.7627 O   0  0  0  0  0  0  0  0  0  0  0  0
    4.2061    7.7618   28.0650 C   0  0  1  0  0  0  0  0  0  0  0  0
    4.3240    8.7334   27.0114 O   0  0  0  0  0  0  0  0  0  0  0  0
    3.3340    6.5796   27.6612 C   0  0  0  0  0  0  0  0  0  0  0  0
    4.3303    5.5111   27.2192 C   0  0  2  0  0  0  0  0  0  0  0  0
    4.0457    0.4221   26.4756 N   0  0  0  0  0  0  0  0  0  0  0  0
    4.4321    1.3654   25.6012 C   0  0  2  0  0  0  0  0  0  0  0  0
    4.8099    0.9642   24.3651 N   0  0  0  0  0  0  0  0  0  0  0  0
    4.4520    2.6747   25.9494 N   0  0  0  0  0  0  0  0  0  0  0  0
    4.0766    3.0402   27.1925 C   0  0  2  0  0  0  0  0  0  0  0  0
    3.6755    2.0846   28.1009 C   0  0  1  0  0  0  0  0  0  0  0  0
    3.6714    0.7549   27.7243 C   0  0  0  0  0  0  0  0  0  0  0  0
    3.3173   -0.1277   28.5354 O   0  0  0  0  0  0  0  0  0  0  0  0
    3.3499    2.7099   29.2494 N   0  0  0  0  0  0  0  0  0  0  0  0
    3.5518    4.0258   29.0599 C   0  0  0  0  0  0  0  0  0  0  0  0
    3.9816    4.2137   27.8074 N   0  0  1  0  0  0  0  0  0  0  0  0
    8.4331    4.9019   31.5097 O   0  0  0  0  0  0  0  0  0  0  0  0
    8.1708    7.4067   31.8299 O   0  5  0  0  0  0  0  0  0  0  0  0
    6.2491    5.8472   32.3413 O   0  0  0  0  0  0  0  0  0  0  0  0
  1  3  1  6  0  0  0
  1 21  1  0  0  0  0
  1 22  1  0  0  0  0
  1 23  2  0  0  0  0
  2  3  1  0  0  0  0
  4  2  1  1  0  0  0
  4  5  1  0  0  0  0
  4  6  1  0  0  0  0
  6  7  1  6  0  0  0
  6  8  1  0  0  0  0
  8  9  1  0  0  0  0
  9  5  1  1  0  0  0
  9 20  1  0  0  0  0
 10 11  1  0  0  0  0
 10 16  1  0  0  0  0
 11 12  1  1  0  0  0
 11 13  1  0  0  0  0
 14 13  1  6  0  0  0
 14 15  1  0  0  0  0
 14 20  1  0  0  0  0
 15 16  1  1  0  0  0
 15 18  1  0  0  0  0
 16 17  2  0  0  0  0
 18 19  1  0  0  0  0
 20 19  1  1  0  0  0
M  CHG  1  22  -1
M  END
>  <CHROM.1>
169.44933267,43.39118803,177.09051608,-102.33757003,5.16063417,4.58273219
28.64525812,-0.72573753,0.99705153,3.02854608

>  <Name>
ligand

>  <RI>
0

>  <Rbt.Current_Directory>
/home/itssahil/PROJECTS/Mol_Feturizer/Test_systems_manuscript/rnas/3slm

>  <Rbt.Executable>
rbdock ($Id: //depot/dev/client3/rdock/2013.1/src/exe/rbdock.cxx#4 $)

>  <Rbt.Library>
libRbt.so (2013.1, Build901 2013/11/27)

>  <Rbt.Parameter_File>
/export/apps/rDock/src/rDock_2013.1_src/data/scripts/dock_solv.prm

>  <Rbt.Receptor>
prm/blind_docking_80.prm

>  <SCORE>
-21.6953

>  <SCORE.INTER>
-17.1578

>  <SCORE.INTER.CONST>
1

>  <SCORE.INTER.POLAR>
0

>  <SCORE.INTER.ROT>
4

>  <SCORE.INTER.SOLV>
17.62

>  <SCORE.INTER.VDW>
-23.5785

>  <SCORE.INTER.norm>
-0.74599

>  <SCORE.INTRA>
-4.53755

>  <SCORE.INTRA.DIHEDRAL>
-6.33319

>  <SCORE.INTRA.DIHEDRAL.0>
8.62657

>  <SCORE.INTRA.POLAR>
0

>  <SCORE.INTRA.POLAR.0>
0

>  <SCORE.INTRA.REPUL>
0

>  <SCORE.INTRA.REPUL.0>
0

>  <SCORE.INTRA.SOLV>
0.0221399

>  <SCORE.INTRA.SOLV.lig_0>
-66.3641

>  <SCORE.INTRA.VDW>
-1.38203

>  <SCORE.INTRA.VDW.0>
0.452231

>  <SCORE.INTRA.norm>
-0.197285

>  <SCORE.RESTR>
0

>  <SCORE.RESTR.CAVITY>
0

>  <SCORE.RESTR.norm>
0

>  <SCORE.SYSTEM>
0

>  <SCORE.SYSTEM.CONST>
0

>  <SCORE.SYSTEM.DIHEDRAL>
0

>  <SCORE.SYSTEM.SOLV>
0

>  <SCORE.SYSTEM.norm>
0

>  <SCORE.heavy>
23

>  <SCORE.norm>
-0.943275

>  <RMSD>
16.103

$$$$
ligand
 OpenBabel02271912143D
libRbt.so/2013.1/901 2013/11/27
 23 25  0  0  0  0  0  0  0  0999 V2000
    4.1989    3.6118   34.6664 P   0  0  1  0  0  0  0  0  0  0  0  0
    4.9612    5.7134   33.3035 C   0  0  0  0  0  0  0  0  0  0  0  0
    3.8850    4.9506   33.8313 O   0  0  0  0  0  0  0  0  0  0  0  0
    5.6241    4.8764   32.2328 C   0  0  1  0  0  0  0  0  0  0  0  0
    5.8689    5.6238   31.0418 O   0  0  0  0  0  0  0  0  0  0  0  0
    6.9612    4.3732   32.7500 C   0  0  1  0  0  0  0  0  0  0  0  0
    7.0530    2.9676   32.4601 O   0  0  0  0  0  0  0  0  0  0  0  0
    8.0119    5.1837   32.0013 C   0  0  0  0  0  0  0  0  0  0  0  0
    7.2745    5.7125   30.7740 C   0  0  2  0  0  0  0  0  0  0  0  0
    6.5762    9.8426   27.7762 N   0  0  0  0  0  0  0  0  0  0  0  0
    6.1258    8.5926   27.5802 C   0  0  2  0  0  0  0  0  0  0  0  0
    5.3847    8.3546   26.4731 N   0  0  0  0  0  0  0  0  0  0  0  0
    6.3969    7.6051   28.4674 N   0  0  0  0  0  0  0  0  0  0  0  0
    7.1320    7.8779   29.5651 C   0  0  2  0  0  0  0  0  0  0  0  0
    7.6034    9.1549   29.7798 C   0  0  1  0  0  0  0  0  0  0  0  0
    7.3067   10.1467   28.8643 C   0  0  0  0  0  0  0  0  0  0  0  0
    7.7193   11.3128   29.0440 O   0  0  0  0  0  0  0  0  0  0  0  0
    8.3063    9.1535   30.9297 N   0  0  0  0  0  0  0  0  0  0  0  0
    8.2658    7.9028   31.4220 C   0  0  0  0  0  0  0  0  0  0  0  0
    7.5609    7.1379   30.5813 N   0  0  1  0  0  0  0  0  0  0  0  0
    5.4823    3.8544   35.4228 O   0  0  0  0  0  0  0  0  0  0  0  0
    2.9812    3.4363   35.5443 O   0  5  0  0  0  0  0  0  0  0  0  0
    4.3256    2.5708   33.5872 O   0  0  0  0  0  0  0  0  0  0  0  0
  1  3  1  6  0  0  0
  1 21  1  0  0  0  0
  1 22  1  0  0  0  0
  1 23  2  0  0  0  0
  2  3  1  0  0  0  0
  4  2  1  1  0  0  0
  4  5  1  0  0  0  0
  4  6  1  0  0  0  0
  6  7  1  6  0  0  0
  6  8  1  0  0  0  0
  8  9  1  0  0  0  0
  9  5  1  1  0  0  0
  9 20  1  0  0  0  0
 10 11  1  0  0  0  0
 10 16  1  0  0  0  0
 11 12  1  1  0  0  0
 11 13  1  0  0  0  0
 14 13  1  6  0  0  0
 14 15  1  0  0  0  0
 14 20  1  0  0  0  0
 15 16  1  1  0  0  0
 15 18  1  0  0  0  0
 16 17  2  0  0  0  0
 18 19  1  0  0  0  0
 20 19  1  1  0  0  0
M  CHG  1  22  -1
M  END
>  <CHROM.1>
34.28835201,133.51072382,66.97414384,-67.57295734,6.12808843,6.25901657,31.51232133
1.89148693,0.37038055,2.23386169

>  <Name>
ligand

>  <RI>
0

>  <Rbt.Current_Directory>
/home/itssahil/PROJECTS/Mol_Feturizer/Test_systems_manuscript/rnas/3slm

>  <Rbt.Executable>
rbdock ($Id: //depot/dev/client3/rdock/2013.1/src/exe/rbdock.cxx#4 $)

>  <Rbt.Library>
libRbt.so (2013.1, Build901 2013/11/27)

>  <Rbt.Parameter_File>
/export/apps/rDock/src/rDock_2013.1_src/data/scripts/dock_solv.prm

>  <Rbt.Receptor>
prm/blind_docking_100.prm

>  <SCORE>
-20.7621

>  <SCORE.INTER>
-20.0124

>  <SCORE.INTER.CONST>
1

>  <SCORE.INTER.POLAR>
0

>  <SCORE.INTER.ROT>
4

>  <SCORE.INTER.SOLV>
15.8391

>  <SCORE.INTER.VDW>
-24.888

>  <SCORE.INTER.norm>
-0.870106

>  <SCORE.INTRA>
-0.749687

>  <SCORE.INTRA.DIHEDRAL>
-1.67029

>  <SCORE.INTRA.DIHEDRAL.0>
8.62657

>  <SCORE.INTRA.POLAR>
0

>  <SCORE.INTRA.POLAR.0>
0

>  <SCORE.INTRA.REPUL>
0

>  <SCORE.INTRA.REPUL.0>
0

>  <SCORE.INTRA.SOLV>
2.61623

>  <SCORE.INTRA.SOLV.lig_0>
-66.3641

>  <SCORE.INTRA.VDW>
-1.22266

>  <SCORE.INTRA.VDW.0>
0.452231

>  <SCORE.INTRA.norm>
-0.0325951

>  <SCORE.RESTR>
0

>  <SCORE.RESTR.CAVITY>
0

>  <SCORE.RESTR.norm>
0

>  <SCORE.SYSTEM>
0

>  <SCORE.SYSTEM.CONST>
0

>  <SCORE.SYSTEM.DIHEDRAL>
0

>  <SCORE.SYSTEM.SOLV>
0

>  <SCORE.SYSTEM.norm>
0

>  <SCORE.heavy>
23

>  <SCORE.norm>
-0.902701

>  <RMSD>
16.216

$$$$
ligand
 OpenBabel02271912143D
libRbt.so/2013.1/901 2013/11/27
 23 25  0  0  0  0  0  0  0  0999 V2000
    7.9167   11.1301   28.1298 P   0  0  1  0  0  0  0  0  0  0  0  0
    7.8462    9.0764   29.7523 C   0  0  0  0  0  0  0  0  0  0  0  0
    7.2704   10.3134   29.3560 O   0  0  0  0  0  0  0  0  0  0  0  0
    6.8330    8.3656   30.6211 C   0  0  1  0  0  0  0  0  0  0  0  0
    5.6310    8.0690   29.9112 O   0  0  0  0  0  0  0  0  0  0  0  0
    7.4247    7.0523   31.1044 C   0  0  1  0  0  0  0  0  0  0  0  0
    7.1839    6.9463   32.5182 O   0  0  0  0  0  0  0  0  0  0  0  0
    6.6980    5.9703   30.3154 C   0  0  0  0  0  0  0  0  0  0  0  0
    5.4230    6.6531   29.8275 C   0  0  2  0  0  0  0  0  0  0  0  0
    3.2563    3.4589   26.4165 N   0  0  0  0  0  0  0  0  0  0  0  0
    3.2544    3.3634   27.7562 C   0  0  2  0  0  0  0  0  0  0  0  0
    2.6034    2.3161   28.3139 N   0  0  0  0  0  0  0  0  0  0  0  0
    3.8758    4.2912   28.5235 N   0  0  0  0  0  0  0  0  0  0  0  0
    4.5090    5.3273   27.9360 C   0  0  2  0  0  0  0  0  0  0  0  0
    4.5219    5.4386   26.5625 C   0  0  1  0  0  0  0  0  0  0  0  0
    3.8741    4.4839   25.8019 C   0  0  0  0  0  0  0  0  0  0  0  0
    3.8686    4.5702   24.5549 O   0  0  0  0  0  0  0  0  0  0  0  0
    5.2203    6.5450   26.2391 N   0  0  0  0  0  0  0  0  0  0  0  0
    5.6262    7.1124   27.3887 C   0  0  0  0  0  0  0  0  0  0  0  0
    5.1982    6.3600   28.4082 N   0  0  1  0  0  0  0  0  0  0  0  0
    7.2512   12.4845   28.1022 O   0  0  0  0  0  0  0  0  0  0  0  0
    9.3924   11.1668   28.4542 O   0  5  0  0  0  0  0  0  0  0  0  0
    7.5763   10.2695   26.9432 O   0  0  0  0  0  0  0  0  0  0  0  0
  1  3  1  1  0  0  0
  1 21  1  0  0  0  0
  1 22  1  0  0  0  0
  1 23  2  0  0  0  0
  2  3  1  0  0  0  0
  4  2  1  6  0  0  0
  4  5  1  0  0  0  0
  4  6  1  0  0  0  0
  6  7  1  1  0  0  0
  6  8  1  0  0  0  0
  8  9  1  0  0  0  0
  9  5  1  6  0  0  0
  9 20  1  0  0  0  0
 10 11  1  0  0  0  0
 10 16  1  0  0  0  0
 11 12  1  1  0  0  0
 11 13  1  0  0  0  0
 14 13  1  6  0  0  0
 14 15  1  0  0  0  0
 14 20  1  0  0  0  0
 15 16  1  1  0  0  0
 15 18  1  0  0  0  0
 16 17  2  0  0  0  0
 18 19  1  0  0  0  0
 20 19  1  1  0  0  0
M  CHG  1  22  -1
M  END
>  <CHROM.1>
-170.50410801,62.29459394,-164.04634189,-153.94606565,5.93869504,7.33447340
28.40198288,0.17772446,-1.00983721,-1.09809448

>  <Name>
ligand

>  <RI>
0

>  <Rbt.Current_Directory>
/home/itssahil/PROJECTS/Mol_Feturizer/Test_systems_manuscript/rnas/3slm

>  <Rbt.Executable>
rbdock ($Id: //depot/dev/client3/rdock/2013.1/src/exe/rbdock.cxx#4 $)

>  <Rbt.Library>
libRbt.so (2013.1, Build901 2013/11/27)

>  <Rbt.Parameter_File>
/export/apps/rDock/src/rDock_2013.1_src/data/scripts/dock_solv.prm

>  <Rbt.Receptor>
prm/blind_docking_100.prm

>  <SCORE>
-19.1902

>  <SCORE.INTER>
-14.4361

>  <SCORE.INTER.CONST>
1

>  <SCORE.INTER.POLAR>
0

>  <SCORE.INTER.ROT>
4

>  <SCORE.INTER.SOLV>
18.5513

>  <SCORE.INTER.VDW>
-22.0745

>  <SCORE.INTER.norm>
-0.627657

>  <SCORE.INTRA>
-4.75406

>  <SCORE.INTRA.DIHEDRAL>
-6.00294

>  <SCORE.INTRA.DIHEDRAL.0>
8.62657

>  <SCORE.INTRA.POLAR>
0

>  <SCORE.INTRA.POLAR.0>
0

>  <SCORE.INTRA.REPUL>
0

>  <SCORE.INTRA.REPUL.0>
0

>  <SCORE.INTRA.SOLV>
0.307522

>  <SCORE.INTRA.SOLV.lig_0>
-66.3641

>  <SCORE.INTRA.VDW>
-1.90635

>  <SCORE.INTRA.VDW.0>
0.452231

>  <SCORE.INTRA.norm>
-0.206698

>  <SCORE.RESTR>
0

>  <SCORE.RESTR.CAVITY>
0

>  <SCORE.RESTR.norm>
0

>  <SCORE.SYSTEM>
0

>  <SCORE.SYSTEM.CONST>
0

>  <SCORE.SYSTEM.DIHEDRAL>
0

>  <SCORE.SYSTEM.SOLV>
0

>  <SCORE.SYSTEM.norm>
0

>  <SCORE.heavy>
23

>  <SCORE.norm>
-0.834355

>  <RMSD>
16.259

$$$$
ligand
 OpenBabel02271912143D
libRbt.so/2013.1/901 2013/11/27
 23 25  0  0  0  0  0  0  0  0999 V2000
    3.7169    3.6531   34.3631 P   0  0  1  0  0  0  0  0  0  0  0  0
    4.9089    5.7153   33.2760 C   0  0  0  0  0  0  0  0  0  0  0  0
    4.7335    4.8984   34.4253 O   0  0  0  0  0  0  0  0  0  0  0  0
    5.6035    4.8753   32.2279 C   0  0  1  0  0  0  0  0  0  0  0  0
    5.8642    5.6135   31.0346 O   0  0  0  0  0  0  0  0  0  0  0  0
    6.9353    4.3932   32.7778 C   0  0  1  0  0  0  0  0  0  0  0  0
    7.0492    2.9859   32.5045 O   0  0  0  0  0  0  0  0  0  0  0  0
    7.9918    5.2083   32.0426 C   0  0  0  0  0  0  0  0  0  0  0  0
    7.2740    5.7159   30.7949 C   0  0  2  0  0  0  0  0  0  0  0  0
    6.5967    9.8052   27.7368 N   0  0  0  0  0  0  0  0  0  0  0  0
    6.1659    8.5478   27.5441 C   0  0  2  0  0  0  0  0  0  0  0  0
    5.4537    8.2891   26.4227 N   0  0  0  0  0  0  0  0  0  0  0  0
    6.4280    7.5732   28.4481 N   0  0  0  0  0  0  0  0  0  0  0  0
    7.1340    7.8665   29.5595 C   0  0  2  0  0  0  0  0  0  0  0  0
    7.5850    9.1514   29.7711 C   0  0  1  0  0  0  0  0  0  0  0  0
    7.2980   10.1297   28.8382 C   0  0  0  0  0  0  0  0  0  0  0  0
    7.6924   11.3026   29.0147 O   0  0  0  0  0  0  0  0  0  0  0  0
    8.2609    9.1707   30.9369 N   0  0  0  0  0  0  0  0  0  0  0  0
    8.2238    7.9249   31.4418 C   0  0  0  0  0  0  0  0  0  0  0  0
    7.5478    7.1426   30.5934 N   0  0  1  0  0  0  0  0  0  0  0  0
    4.3407    2.6191   33.4576 O   0  0  0  0  0  0  0  0  0  0  0  0
    3.5829    3.2200   35.8048 O   0  5  0  0  0  0  0  0  0  0  0  0
    2.4686    4.2731   33.7959 O   0  0  0  0  0  0  0  0  0  0  0  0
  1  3  1  1  0  0  0
  1 21  1  0  0  0  0
  1 22  1  0  0  0  0
  1 23  2  0  0  0  0
  2  3  1  0  0  0  0
  4  2  1  1  0  0  0
  4  5  1  0  0  0  0
  4  6  1  0  0  0  0
  6  7  1  6  0  0  0
  6  8  1  0  0  0  0
  8  9  1  0  0  0  0
  9  5  1  1  0  0  0
  9 20  1  0  0  0  0
 10 11  1  0  0  0  0
 10 16  1  0  0  0  0
 11 12  1  1  0  0  0
 11 13  1  0  0  0  0
 14 13  1  6  0  0  0
 14 15  1  0  0  0  0
 14 20  1  0  0  0  0
 15 16  1  1  0  0  0
 15 18  1  0  0  0  0
 16 17  2  0  0  0  0
 18 19  1  0  0  0  0
 20 19  1  1  0  0  0
M  CHG  1  22  -1
M  END
>  <CHROM.1>
69.90226715,-178.40244031,-67.87512221,-67.72542359,6.00653901,6.26737431
31.43918799,1.92825772,0.23535771,2.27911182

>  <Name>
ligand

>  <RI>
0

>  <Rbt.Current_Directory>
/home/itssahil/PROJECTS/Mol_Feturizer/Test_systems_manuscript/rnas/3slm

>  <Rbt.Executable>
rbdock ($Id: //depot/dev/client3/rdock/2013.1/src/exe/rbdock.cxx#4 $)

>  <Rbt.Library>
libRbt.so (2013.1, Build901 2013/11/27)

>  <Rbt.Parameter_File>
/export/apps/rDock/src/rDock_2013.1_src/data/scripts/dock_solv.prm

>  <Rbt.Receptor>
prm/blind_docking_40.prm

>  <SCORE>
-22.4803

>  <SCORE.INTER>
-18.965

>  <SCORE.INTER.CONST>
1

>  <SCORE.INTER.POLAR>
0

>  <SCORE.INTER.ROT>
4

>  <SCORE.INTER.SOLV>
14.6785

>  <SCORE.INTER.VDW>
-23.8028

>  <SCORE.INTER.norm>
-0.824566

>  <SCORE.INTRA>
-3.5153

>  <SCORE.INTRA.DIHEDRAL>
-6.96505

>  <SCORE.INTRA.DIHEDRAL.0>
8.62657

>  <SCORE.INTRA.POLAR>
0

>  <SCORE.INTRA.POLAR.0>
0

>  <SCORE.INTRA.REPUL>
0

>  <SCORE.INTRA.REPUL.0>
0

>  <SCORE.INTRA.SOLV>
1.08562

>  <SCORE.INTRA.SOLV.lig_0>
-66.3641

>  <SCORE.INTRA.VDW>
-0.575591

>  <SCORE.INTRA.VDW.0>
0.452231

>  <SCORE.INTRA.norm>
-0.152839

>  <SCORE.RESTR>
0

>  <SCORE.RESTR.CAVITY>
0

>  <SCORE.RESTR.norm>
0

>  <SCORE.SYSTEM>
0

>  <SCORE.SYSTEM.CONST>
0

>  <SCORE.SYSTEM.DIHEDRAL>
0

>  <SCORE.SYSTEM.SOLV>
0

>  <SCORE.SYSTEM.norm>
0

>  <SCORE.heavy>
23

>  <SCORE.norm>
-0.977405

>  <RMSD>
16.333

$$$$
ligand
 OpenBabel02271912143D
libRbt.so/2013.1/901 2013/11/27
 23 25  0  0  0  0  0  0  0  0999 V2000
    9.0466   -6.5170   30.0512 P   0  0  1  0  0  0  0  0  0  0  0  0
    7.5315   -4.4270   29.6133 C   0  0  0  0  0  0  0  0  0  0  0  0
    8.7845   -5.0652   29.4094 O   0  0  0  0  0  0  0  0  0  0  0  0
    6.5553   -5.0250   28.6255 C   0  0  1  0  0  0  0  0  0  0  0  0
    5.1990   -4.8170   29.0181 O   0  0  0  0  0  0  0  0  0  0  0  0
    6.7535   -4.3689   27.2694 C   0  0  1  0  0  0  0  0  0  0  0  0
    6.8100   -5.4058   26.2746 O   0  0  0  0  0  0  0  0  0  0  0  0
    5.5453   -3.4596   27.0831 C   0  0  0  0  0  0  0  0  0  0  0  0
    4.5064   -4.0107   28.0561 C   0  0  2  0  0  0  0  0  0  0  0  0
    2.4540    0.7089   27.8433 N   0  0  0  0  0  0  0  0  0  0  0  0
    2.9794   -0.0106   26.8384 C   0  0  2  0  0  0  0  0  0  0  0  0
    2.9770    0.5371   25.6008 N   0  0  0  0  0  0  0  0  0  0  0  0
    3.4863   -1.2482   27.0558 N   0  0  0  0  0  0  0  0  0  0  0  0
    3.4661   -1.7682   28.3003 C   0  0  2  0  0  0  0  0  0  0  0  0
    2.9323   -1.0420   29.3428 C   0  0  1  0  0  0  0  0  0  0  0  0
    2.4143    0.2149   29.0941 C   0  0  0  0  0  0  0  0  0  0  0  0
    1.9197    0.8871   30.0247 O   0  0  0  0  0  0  0  0  0  0  0  0
    3.0423   -1.7791   30.4656 N   0  0  0  0  0  0  0  0  0  0  0  0
    3.6258   -2.9419   30.1254 C   0  0  0  0  0  0  0  0  0  0  0  0
    3.8869   -2.9186   28.8139 N   0  0  1  0  0  0  0  0  0  0  0  0
    8.7567   -6.4053   31.5282 O   0  0  0  0  0  0  0  0  0  0  0  0
    8.1020   -7.4245   29.2972 O   0  5  0  0  0  0  0  0  0  0  0  0
   10.4991   -6.7585   29.7410 O   0  0  0  0  0  0  0  0  0  0  0  0
  1  3  1  6  0  0  0
  1 21  1  0  0  0  0
  1 22  1  0  0  0  0
  1 23  2  0  0  0  0
  2  3  1  0  0  0  0
  4  2  1  1  0  0  0
  4  5  1  0  0  0  0
  4  6  1  0  0  0  0
  6  7  1  6  0  0  0
  6  8  1  0  0  0  0
  8  9  1  0  0  0  0
  9  5  1  1  0  0  0
  9 20  1  0  0  0  0
 10 11  1  0  0  0  0
 10 16  1  0  0  0  0
 11 12  1  6  0  0  0
 11 13  1  0  0  0  0
 14 13  1  1  0  0  0
 14 15  1  0  0  0  0
 14 20  1  0  0  0  0
 15 16  1  6  0  0  0
 15 18  1  0  0  0  0
 16 17  2  0  0  0  0
 18 19  1  0  0  0  0
 20 19  1  6  0  0  0
M  CHG  1  22  -1
M  END
>  <CHROM.1>
-54.22565619,159.95114546,-80.47251680,160.73709362,5.59669679,-3.46672675
28.77230168,0.20420814,-0.77933094,1.62500558

>  <Name>
ligand

>  <RI>
0

>  <Rbt.Current_Directory>
/home/itssahil/PROJECTS/Mol_Feturizer/Test_systems_manuscript/rnas/3slm

>  <Rbt.Executable>
rbdock ($Id: //depot/dev/client3/rdock/2013.1/src/exe/rbdock.cxx#4 $)

>  <Rbt.Library>
libRbt.so (2013.1, Build901 2013/11/27)

>  <Rbt.Parameter_File>
/export/apps/rDock/src/rDock_2013.1_src/data/scripts/dock_solv.prm

>  <Rbt.Receptor>
prm/blind_docking_100.prm

>  <SCORE>
-21.0161

>  <SCORE.INTER>
-18.3143

>  <SCORE.INTER.CONST>
1

>  <SCORE.INTER.POLAR>
0

>  <SCORE.INTER.ROT>
4

>  <SCORE.INTER.SOLV>
10.5171

>  <SCORE.INTER.VDW>
-21.9819

>  <SCORE.INTER.norm>
-0.796273

>  <SCORE.INTRA>
-2.70178

>  <SCORE.INTRA.DIHEDRAL>
-4.21143

>  <SCORE.INTRA.DIHEDRAL.0>
8.62657

>  <SCORE.INTRA.POLAR>
0

>  <SCORE.INTRA.POLAR.0>
0

>  <SCORE.INTRA.REPUL>
0

>  <SCORE.INTRA.REPUL.0>
0

>  <SCORE.INTRA.SOLV>
1.45127

>  <SCORE.INTRA.SOLV.lig_0>
-66.3641

>  <SCORE.INTRA.VDW>
-1.3217

>  <SCORE.INTRA.VDW.0>
0.452231

>  <SCORE.INTRA.norm>
-0.117469

>  <SCORE.RESTR>
0

>  <SCORE.RESTR.CAVITY>
0

>  <SCORE.RESTR.norm>
0

>  <SCORE.SYSTEM>
0

>  <SCORE.SYSTEM.CONST>
0

>  <SCORE.SYSTEM.DIHEDRAL>
0

>  <SCORE.SYSTEM.SOLV>
0

>  <SCORE.SYSTEM.norm>
0

>  <SCORE.heavy>
23

>  <SCORE.norm>
-0.913742

>  <RMSD>
16.455

$$$$
ligand
 OpenBabel02271912143D
libRbt.so/2013.1/901 2013/11/27
 23 25  0  0  0  0  0  0  0  0999 V2000
    7.4889    6.0437   31.6543 P   0  0  1  0  0  0  0  0  0  0  0  0
    5.6766    6.9232   29.9818 C   0  0  0  0  0  0  0  0  0  0  0  0
    6.8725    6.1806   30.1746 O   0  0  0  0  0  0  0  0  0  0  0  0
    5.5828    7.2518   28.5087 C   0  0  1  0  0  0  0  0  0  0  0  0
    5.7729    6.0995   27.6885 O   0  0  0  0  0  0  0  0  0  0  0  0
    4.2031    7.8136   28.2102 C   0  0  1  0  0  0  0  0  0  0  0  0
    4.3656    9.0000   27.4138 O   0  0  0  0  0  0  0  0  0  0  0  0
    3.4752    6.7094   27.4537 C   0  0  0  0  0  0  0  0  0  0  0  0
    4.5939    5.8166   26.9235 C   0  0  2  0  0  0  0  0  0  0  0  0
    2.5843    2.3975   30.2104 N   0  0  0  0  0  0  0  0  0  0  0  0
    2.7208    3.7232   30.3767 C   0  0  2  0  0  0  0  0  0  0  0  0
    2.2771    4.2635   31.5355 N   0  0  0  0  0  0  0  0  0  0  0  0
    3.2759    4.4949   29.4112 N   0  0  0  0  0  0  0  0  0  0  0  0
    3.7008    3.9258   28.2644 C   0  0  2  0  0  0  0  0  0  0  0  0
    3.5698    2.5665   28.0791 C   0  0  1  0  0  0  0  0  0  0  0  0
    2.9931    1.8020   29.0754 C   0  0  0  0  0  0  0  0  0  0  0  0
    2.8592    0.5684   28.9242 O   0  0  0  0  0  0  0  0  0  0  0  0
    4.0740    2.2590   26.8676 N   0  0  0  0  0  0  0  0  0  0  0  0
    4.5024    3.4051   26.3098 C   0  0  0  0  0  0  0  0  0  0  0  0
    4.2805    4.4052   27.1697 N   0  0  1  0  0  0  0  0  0  0  0  0
    8.2179    7.3320   31.9494 O   0  0  0  0  0  0  0  0  0  0  0  0
    6.2824    5.7952   32.5299 O   0  5  0  0  0  0  0  0  0  0  0  0
    8.4010    4.8539   31.5239 O   0  0  0  0  0  0  0  0  0  0  0  0
  1  3  1  6  0  0  0
  1 21  1  0  0  0  0
  1 22  1  0  0  0  0
  1 23  2  0  0  0  0
  2  3  1  0  0  0  0
  4  2  1  1  0  0  0
  4  5  1  0  0  0  0
  4  6  1  0  0  0  0
  6  7  1  6  0  0  0
  6  8  1  0  0  0  0
  8  9  1  0  0  0  0
  9  5  1  1  0  0  0
  9 20  1  0  0  0  0
 10 11  1  0  0  0  0
 10 16  1  0  0  0  0
 11 12  1  6  0  0  0
 11 13  1  0  0  0  0
 14 13  1  1  0  0  0
 14 15  1  0  0  0  0
 14 20  1  0  0  0  0
 15 16  1  6  0  0  0
 15 18  1  0  0  0  0
 16 17  2  0  0  0  0
 18 19  1  0  0  0  0
 20 19  1  6  0  0  0
M  CHG  1  22  -1
M  END
>  <CHROM.1>
-79.14347739,50.02234551,162.26718534,77.51073863,4.91782898,5.06328827,29.33455558
-0.22041493,0.86287933,2.43688138

>  <Name>
ligand

>  <RI>
0

>  <Rbt.Current_Directory>
/home/itssahil/PROJECTS/Mol_Feturizer/Test_systems_manuscript/rnas/3slm

>  <Rbt.Executable>
rbdock ($Id: //depot/dev/client3/rdock/2013.1/src/exe/rbdock.cxx#4 $)

>  <Rbt.Library>
libRbt.so (2013.1, Build901 2013/11/27)

>  <Rbt.Parameter_File>
/export/apps/rDock/src/rDock_2013.1_src/data/scripts/dock_solv.prm

>  <Rbt.Receptor>
prm/blind_docking_40.prm

>  <SCORE>
-19.6114

>  <SCORE.INTER>
-15.0989

>  <SCORE.INTER.CONST>
1

>  <SCORE.INTER.POLAR>
0

>  <SCORE.INTER.ROT>
4

>  <SCORE.INTER.SOLV>
17.3196

>  <SCORE.INTER.VDW>
-22.1058

>  <SCORE.INTER.norm>
-0.656475

>  <SCORE.INTRA>
-4.51243

>  <SCORE.INTRA.DIHEDRAL>
-5.0609

>  <SCORE.INTRA.DIHEDRAL.0>
8.62657

>  <SCORE.INTRA.POLAR>
0

>  <SCORE.INTRA.POLAR.0>
0

>  <SCORE.INTRA.REPUL>
0

>  <SCORE.INTRA.REPUL.0>
0

>  <SCORE.INTRA.SOLV>
-0.243098

>  <SCORE.INTRA.SOLV.lig_0>
-66.3641

>  <SCORE.INTRA.VDW>
-1.86043

>  <SCORE.INTRA.VDW.0>
0.452231

>  <SCORE.INTRA.norm>
-0.196193

>  <SCORE.RESTR>
0

>  <SCORE.RESTR.CAVITY>
0

>  <SCORE.RESTR.norm>
0

>  <SCORE.SYSTEM>
0

>  <SCORE.SYSTEM.CONST>
0

>  <SCORE.SYSTEM.DIHEDRAL>
0

>  <SCORE.SYSTEM.SOLV>
0

>  <SCORE.SYSTEM.norm>
0

>  <SCORE.heavy>
23

>  <SCORE.norm>
-0.852667

>  <RMSD>
16.592

$$$$
ligand
 OpenBabel02271912143D
libRbt.so/2013.1/901 2013/11/27
 23 25  0  0  0  0  0  0  0  0999 V2000
    5.0785    5.2974   32.7155 P   0  0  1  0  0  0  0  0  0  0  0  0
    3.4479    6.1098   30.8350 C   0  0  0  0  0  0  0  0  0  0  0  0
    4.7902    5.9248   31.2624 O   0  0  0  0  0  0  0  0  0  0  0  0
    3.4942    6.6140   29.4101 C   0  0  1  0  0  0  0  0  0  0  0  0
    4.1970    7.8514   29.3010 O   0  0  0  0  0  0  0  0  0  0  0  0
    4.2113    5.5930   28.5431 C   0  0  1  0  0  0  0  0  0  0  0  0
    3.4259    5.3825   27.3569 O   0  0  0  0  0  0  0  0  0  0  0  0
    5.5676    6.2131   28.2313 C   0  0  0  0  0  0  0  0  0  0  0  0
    5.3659    7.7048   28.4840 C   0  0  2  0  0  0  0  0  0  0  0  0
    9.0699   11.2741   28.7535 N   0  0  0  0  0  0  0  0  0  0  0  0
    8.1813   11.0772   27.7659 C   0  0  2  0  0  0  0  0  0  0  0  0
    8.2294   11.9073   26.6981 N   0  0  0  0  0  0  0  0  0  0  0  0
    7.2609   10.0858   27.8417 N   0  0  0  0  0  0  0  0  0  0  0  0
    7.2350    9.2808   28.9238 C   0  0  2  0  0  0  0  0  0  0  0  0
    8.1413    9.4683   29.9448 C   0  0  1  0  0  0  0  0  0  0  0  0
    9.0652   10.4914   29.8478 C   0  0  0  0  0  0  0  0  0  0  0  0
    9.8916   10.6823   30.7660 O   0  0  0  0  0  0  0  0  0  0  0  0
    7.9060    8.5362   30.8894 N   0  0  0  0  0  0  0  0  0  0  0  0
    6.8702    7.7903   30.4663 C   0  0  0  0  0  0  0  0  0  0  0  0
    6.4799    8.2445   29.2704 N   0  0  1  0  0  0  0  0  0  0  0  0
    4.3444    6.1531   33.7191 O   0  0  0  0  0  0  0  0  0  0  0  0
    4.5636    3.8805   32.6091 O   0  5  0  0  0  0  0  0  0  0  0  0
    6.5761    5.3935   32.8261 O   0  0  0  0  0  0  0  0  0  0  0  0
  1  3  1  6  0  0  0
  1 21  1  0  0  0  0
  1 22  1  0  0  0  0
  1 23  2  0  0  0  0
  2  3  1  0  0  0  0
  4  2  1  1  0  0  0
  4  5  1  0  0  0  0
  4  6  1  0  0  0  0
  6  7  1  6  0  0  0
  6  8  1  0  0  0  0
  8  9  1  0  0  0  0
  9  5  1  1  0  0  0
  9 20  1  0  0  0  0
 10 11  1  0  0  0  0
 10 16  1  0  0  0  0
 11 12  1  1  0  0  0
 11 13  1  0  0  0  0
 14 13  1  6  0  0  0
 14 15  1  0  0  0  0
 14 20  1  0  0  0  0
 15 16  1  1  0  0  0
 15 18  1  0  0  0  0
 16 17  2  0  0  0  0
 18 19  1  0  0  0  0
 20 19  1  1  0  0  0
M  CHG  1  22  -1
M  END
>  <CHROM.1>
-55.04792600,-60.05944262,-175.95502074,-118.38978210,6.10988167,7.64107397
30.06385577,-2.38253930,-0.71898784,-1.11033338

>  <Name>
ligand

>  <RI>
0

>  <Rbt.Current_Directory>
/home/itssahil/PROJECTS/Mol_Feturizer/Test_systems_manuscript/rnas/3slm

>  <Rbt.Executable>
rbdock ($Id: //depot/dev/client3/rdock/2013.1/src/exe/rbdock.cxx#4 $)

>  <Rbt.Library>
libRbt.so (2013.1, Build901 2013/11/27)

>  <Rbt.Parameter_File>
/export/apps/rDock/src/rDock_2013.1_src/data/scripts/dock_solv.prm

>  <Rbt.Receptor>
prm/blind_docking_80.prm

>  <SCORE>
-21.9349

>  <SCORE.INTER>
-15.8957

>  <SCORE.INTER.CONST>
1

>  <SCORE.INTER.POLAR>
0

>  <SCORE.INTER.ROT>
4

>  <SCORE.INTER.SOLV>
18.6608

>  <SCORE.INTER.VDW>
-23.084

>  <SCORE.INTER.norm>
-0.691116

>  <SCORE.INTRA>
-6.03929

>  <SCORE.INTRA.DIHEDRAL>
-7.29769

>  <SCORE.INTRA.DIHEDRAL.0>
8.62657

>  <SCORE.INTRA.POLAR>
0

>  <SCORE.INTRA.POLAR.0>
0

>  <SCORE.INTRA.REPUL>
0

>  <SCORE.INTRA.REPUL.0>
0

>  <SCORE.INTRA.SOLV>
0.170195

>  <SCORE.INTRA.SOLV.lig_0>
-66.3641

>  <SCORE.INTRA.VDW>
-2.47554

>  <SCORE.INTRA.VDW.0>
0.452231

>  <SCORE.INTRA.norm>
-0.262578

>  <SCORE.RESTR>
0

>  <SCORE.RESTR.CAVITY>
0

>  <SCORE.RESTR.norm>
0

>  <SCORE.SYSTEM>
0

>  <SCORE.SYSTEM.CONST>
0

>  <SCORE.SYSTEM.DIHEDRAL>
0

>  <SCORE.SYSTEM.SOLV>
0

>  <SCORE.SYSTEM.norm>
0

>  <SCORE.heavy>
23

>  <SCORE.norm>
-0.953693

>  <RMSD>
16.631

$$$$
ligand
 OpenBabel02271912143D
libRbt.so/2013.1/901 2013/11/27
 23 25  0  0  0  0  0  0  0  0999 V2000
    3.2590    4.2711   33.4311 P   0  0  1  0  0  0  0  0  0  0  0  0
    4.1636    6.2840   32.0222 C   0  0  0  0  0  0  0  0  0  0  0  0
    3.8059    5.7785   33.3010 O   0  0  0  0  0  0  0  0  0  0  0  0
    5.4076    5.5476   31.5785 C   0  0  1  0  0  0  0  0  0  0  0  0
    5.7617    5.8554   30.2306 O   0  0  0  0  0  0  0  0  0  0  0  0
    6.5703    5.9512   32.4693 C   0  0  1  0  0  0  0  0  0  0  0  0
    7.2538    4.7553   32.8825 O   0  0  0  0  0  0  0  0  0  0  0  0
    7.4488    6.8444   31.6024 C   0  0  0  0  0  0  0  0  0  0  0  0
    7.0417    6.4984   30.1727 C   0  0  2  0  0  0  0  0  0  0  0  0
    8.6982   11.2849   29.2357 N   0  0  0  0  0  0  0  0  0  0  0  0
    9.1757   10.4047   30.1307 C   0  0  2  0  0  0  0  0  0  0  0  0
   10.2288   10.7852   30.8909 N   0  0  0  0  0  0  0  0  0  0  0  0
    8.6266    9.1729   30.2607 N   0  0  0  0  0  0  0  0  0  0  0  0
    7.5825    8.8224   29.4817 C   0  0  2  0  0  0  0  0  0  0  0  0
    7.0795    9.7148   28.5599 C   0  0  1  0  0  0  0  0  0  0  0  0
    7.6618   10.9623   28.4408 C   0  0  0  0  0  0  0  0  0  0  0  0
    7.2246   11.7838   27.6063 O   0  0  0  0  0  0  0  0  0  0  0  0
    6.0467    9.1243   27.9266 N   0  0  0  0  0  0  0  0  0  0  0  0
    5.9163    7.8882   28.4400 C   0  0  0  0  0  0  0  0  0  0  0  0
    6.8452    7.7216   29.3877 N   0  0  1  0  0  0  0  0  0  0  0  0
    4.3772    3.3567   32.9935 O   0  0  0  0  0  0  0  0  0  0  0  0
    2.8845    4.1443   34.8899 O   0  5  0  0  0  0  0  0  0  0  0  0
    2.0788    4.2657   32.4976 O   0  0  0  0  0  0  0  0  0  0  0  0
  1  3  1  6  0  0  0
  1 21  1  0  0  0  0
  1 22  1  0  0  0  0
  1 23  2  0  0  0  0
  2  3  1  0  0  0  0
  4  2  1  1  0  0  0
  4  5  1  0  0  0  0
  4  6  1  0  0  0  0
  6  7  1  6  0  0  0
  6  8  1  0  0  0  0
  8  9  1  0  0  0  0
  9  5  1  1  0  0  0
  9 20  1  0  0  0  0
 10 11  1  0  0  0  0
 10 16  1  0  0  0  0
 11 12  1  6  0  0  0
 11 13  1  0  0  0  0
 14 13  1  1  0  0  0
 14 15  1  0  0  0  0
 14 20  1  0  0  0  0
 15 16  1  6  0  0  0
 15 18  1  0  0  0  0
 16 17  2  0  0  0  0
 18 19  1  0  0  0  0
 20 19  1  6  0  0  0
M  CHG  1  22  -1
M  END
>  <CHROM.1>
63.17837774,172.60763938,-68.88427121,154.05359419,6.06026542,7.16514970
31.03145244,2.16100681,0.37788877,2.27818085

>  <Name>
ligand

>  <RI>
0

>  <Rbt.Current_Directory>
/home/itssahil/PROJECTS/Mol_Feturizer/Test_systems_manuscript/rnas/3slm

>  <Rbt.Executable>
rbdock ($Id: //depot/dev/client3/rdock/2013.1/src/exe/rbdock.cxx#4 $)

>  <Rbt.Library>
libRbt.so (2013.1, Build901 2013/11/27)

>  <Rbt.Parameter_File>
/export/apps/rDock/src/rDock_2013.1_src/data/scripts/dock_solv.prm

>  <Rbt.Receptor>
prm/blind_docking_60.prm

>  <SCORE>
-18.9748

>  <SCORE.INTER>
-15.0877

>  <SCORE.INTER.CONST>
1

>  <SCORE.INTER.POLAR>
0

>  <SCORE.INTER.ROT>
4

>  <SCORE.INTER.SOLV>
17.4597

>  <SCORE.INTER.VDW>
-22.145

>  <SCORE.INTER.norm>
-0.655988

>  <SCORE.INTRA>
-3.88703

>  <SCORE.INTRA.DIHEDRAL>
-6.88397

>  <SCORE.INTRA.DIHEDRAL.0>
8.62657

>  <SCORE.INTRA.POLAR>
0

>  <SCORE.INTRA.POLAR.0>
0

>  <SCORE.INTRA.REPUL>
0

>  <SCORE.INTRA.REPUL.0>
0

>  <SCORE.INTRA.SOLV>
0.745294

>  <SCORE.INTRA.SOLV.lig_0>
-66.3641

>  <SCORE.INTRA.VDW>
-0.817689

>  <SCORE.INTRA.VDW.0>
0.452231

>  <SCORE.INTRA.norm>
-0.169001

>  <SCORE.RESTR>
0

>  <SCORE.RESTR.CAVITY>
0

>  <SCORE.RESTR.norm>
0

>  <SCORE.SYSTEM>
0

>  <SCORE.SYSTEM.CONST>
0

>  <SCORE.SYSTEM.DIHEDRAL>
0

>  <SCORE.SYSTEM.SOLV>
0

>  <SCORE.SYSTEM.norm>
0

>  <SCORE.heavy>
23

>  <SCORE.norm>
-0.82499

>  <RMSD>
16.640

$$$$
ligand
 OpenBabel02271912143D
libRbt.so/2013.1/901 2013/11/27
 23 25  0  0  0  0  0  0  0  0999 V2000
    6.8113    5.4363   32.0831 P   0  0  1  0  0  0  0  0  0  0  0  0
    5.3973    6.6733   30.2595 C   0  0  0  0  0  0  0  0  0  0  0  0
    6.6221    6.0413   30.6044 O   0  0  0  0  0  0  0  0  0  0  0  0
    5.4778    7.0433   28.7955 C   0  0  1  0  0  0  0  0  0  0  0  0
    5.7587    5.9130   27.9707 O   0  0  0  0  0  0  0  0  0  0  0  0
    4.1445    7.6225   28.3536 C   0  0  1  0  0  0  0  0  0  0  0  0
    4.4033    8.8295   27.6158 O   0  0  0  0  0  0  0  0  0  0  0  0
    3.5064    6.5448   27.4862 C   0  0  0  0  0  0  0  0  0  0  0  0
    4.6764    5.6595   27.0654 C   0  0  2  0  0  0  0  0  0  0  0  0
    2.4263    2.1390   30.0778 N   0  0  0  0  0  0  0  0  0  0  0  0
    2.5681    3.4547   30.3071 C   0  0  2  0  0  0  0  0  0  0  0  0
    2.0601    3.9537   31.4580 N   0  0  0  0  0  0  0  0  0  0  0  0
    3.1912    4.2569   29.4104 N   0  0  0  0  0  0  0  0  0  0  0  0
    3.6794    3.7288   28.2692 C   0  0  2  0  0  0  0  0  0  0  0  0
    3.5438    2.3802   28.0198 C   0  0  1  0  0  0  0  0  0  0  0  0
    2.8974    1.5843   28.9463 C   0  0  0  0  0  0  0  0  0  0  0  0
    2.7583    0.3600   28.7360 O   0  0  0  0  0  0  0  0  0  0  0  0
    4.1182    2.1151   26.8299 N   0  0  0  0  0  0  0  0  0  0  0  0
    4.5941    3.2766   26.3475 C   0  0  0  0  0  0  0  0  0  0  0  0
    4.3314    4.2439   27.2330 N   0  0  1  0  0  0  0  0  0  0  0  0
    5.7634    4.3642   32.2585 O   0  0  0  0  0  0  0  0  0  0  0  0
    8.2335    4.9250   32.0882 O   0  5  0  0  0  0  0  0  0  0  0  0
    6.5939    6.6379   32.9624 O   0  0  0  0  0  0  0  0  0  0  0  0
  1  3  1  6  0  0  0
  1 21  1  0  0  0  0
  1 22  1  0  0  0  0
  1 23  2  0  0  0  0
  2  3  1  0  0  0  0
  4  2  1  1  0  0  0
  4  5  1  0  0  0  0
  4  6  1  0  0  0  0
  6  7  1  6  0  0  0
  6  8  1  0  0  0  0
  8  9  1  0  0  0  0
  9  5  1  1  0  0  0
  9 20  1  0  0  0  0
 10 11  1  0  0  0  0
 10 16  1  0  0  0  0
 11 12  1  6  0  0  0
 11 13  1  0  0  0  0
 14 13  1  1  0  0  0
 14 15  1  0  0  0  0
 14 20  1  0  0  0  0
 15 16  1  6  0  0  0
 15 18  1  0  0  0  0
 16 17  2  0  0  0  0
 18 19  1  0  0  0  0
 20 19  1  6  0  0  0
M  CHG  1  22  -1
M  END
>  <CHROM.1>
61.44309891,56.06327396,-175.90133211,74.20181108,4.69649374,4.75881915,29.48861002
-0.09063772,0.97062489,2.37199629

>  <Name>
ligand

>  <RI>
0

>  <Rbt.Current_Directory>
/home/itssahil/PROJECTS/Mol_Feturizer/Test_systems_manuscript/rnas/3slm

>  <Rbt.Executable>
rbdock ($Id: //depot/dev/client3/rdock/2013.1/src/exe/rbdock.cxx#4 $)

>  <Rbt.Library>
libRbt.so (2013.1, Build901 2013/11/27)

>  <Rbt.Parameter_File>
/export/apps/rDock/src/rDock_2013.1_src/data/scripts/dock_solv.prm

>  <Rbt.Receptor>
prm/blind_docking_80.prm

>  <SCORE>
-18.1679

>  <SCORE.INTER>
-12.1704

>  <SCORE.INTER.CONST>
1

>  <SCORE.INTER.POLAR>
0

>  <SCORE.INTER.ROT>
4

>  <SCORE.INTER.SOLV>
17.0868

>  <SCORE.INTER.VDW>
-20.0759

>  <SCORE.INTER.norm>
-0.529148

>  <SCORE.INTRA>
-5.99749

>  <SCORE.INTRA.DIHEDRAL>
-7.24362

>  <SCORE.INTRA.DIHEDRAL.0>
8.62657

>  <SCORE.INTRA.POLAR>
0

>  <SCORE.INTRA.POLAR.0>
0

>  <SCORE.INTRA.REPUL>
0

>  <SCORE.INTRA.REPUL.0>
0

>  <SCORE.INTRA.SOLV>
0.155075

>  <SCORE.INTRA.SOLV.lig_0>
-66.3641

>  <SCORE.INTRA.VDW>
-2.45322

>  <SCORE.INTRA.VDW.0>
0.452231

>  <SCORE.INTRA.norm>
-0.26076

>  <SCORE.RESTR>
0

>  <SCORE.RESTR.CAVITY>
0

>  <SCORE.RESTR.norm>
0

>  <SCORE.SYSTEM>
0

>  <SCORE.SYSTEM.CONST>
0

>  <SCORE.SYSTEM.DIHEDRAL>
0

>  <SCORE.SYSTEM.SOLV>
0

>  <SCORE.SYSTEM.norm>
0

>  <SCORE.heavy>
23

>  <SCORE.norm>
-0.789908

>  <RMSD>
16.721

$$$$
ligand
 OpenBabel02271912143D
libRbt.so/2013.1/901 2013/11/27
 23 25  0  0  0  0  0  0  0  0999 V2000
    3.4082    3.6988   27.4479 P   0  0  1  0  0  0  0  0  0  0  0  0
    4.9845    5.7379   27.9088 C   0  0  0  0  0  0  0  0  0  0  0  0
    3.8816    4.9521   28.3387 O   0  0  0  0  0  0  0  0  0  0  0  0
    5.0247    6.9729   28.7804 C   0  0  1  0  0  0  0  0  0  0  0  0
    5.0020    6.6500   30.1704 O   0  0  0  0  0  0  0  0  0  0  0  0
    6.3069    7.7387   28.5010 C   0  0  1  0  0  0  0  0  0  0  0  0
    5.9705    9.1260   28.3264 O   0  0  0  0  0  0  0  0  0  0  0  0
    7.1855    7.5104   29.7245 C   0  0  0  0  0  0  0  0  0  0  0  0
    6.2073    7.0824   30.8152 C   0  0  2  0  0  0  0  0  0  0  0  0
    5.0213    2.7401   33.3192 N   0  0  0  0  0  0  0  0  0  0  0  0
    4.1823    3.6356   32.7734 C   0  0  2  0  0  0  0  0  0  0  0  0
    2.8538    3.3942   32.8650 N   0  0  0  0  0  0  0  0  0  0  0  0
    4.6520    4.7393   32.1433 N   0  0  0  0  0  0  0  0  0  0  0  0
    5.9826    4.9461   32.0627 C   0  0  2  0  0  0  0  0  0  0  0  0
    6.8568    4.0377   32.6195 C   0  0  1  0  0  0  0  0  0  0  0  0
    6.3534    2.9158   33.2499 C   0  0  0  0  0  0  0  0  0  0  0  0
    7.1295    2.0766   33.7556 O   0  0  0  0  0  0  0  0  0  0  0  0
    8.1117    4.4812   32.4078 N   0  0  0  0  0  0  0  0  0  0  0  0
    8.0183    5.6372   31.7273 C   0  0  0  0  0  0  0  0  0  0  0  0
    6.7239    5.9130   31.5339 N   0  0  1  0  0  0  0  0  0  0  0  0
    2.9258    2.6351   28.4040 O   0  0  0  0  0  0  0  0  0  0  0  0
    2.3301    4.2717   26.5570 O   0  5  0  0  0  0  0  0  0  0  0  0
    4.6662    3.3206   26.7139 O   0  0  0  0  0  0  0  0  0  0  0  0
  1  3  1  1  0  0  0
  1 21  1  0  0  0  0
  1 22  1  0  0  0  0
  1 23  2  0  0  0  0
  2  3  1  0  0  0  0
  4  2  1  6  0  0  0
  4  5  1  0  0  0  0
  4  6  1  0  0  0  0
  6  7  1  1  0  0  0
  6  8  1  0  0  0  0
  8  9  1  0  0  0  0
  9  5  1  6  0  0  0
  9 20  1  0  0  0  0
 10 11  1  0  0  0  0
 10 16  1  0  0  0  0
 11 12  1  6  0  0  0
 11 13  1  0  0  0  0
 14 13  1  1  0  0  0
 14 15  1  0  0  0  0
 14 20  1  0  0  0  0
 15 16  1  6  0  0  0
 15 18  1  0  0  0  0
 16 17  2  0  0  0  0
 18 19  1  0  0  0  0
 20 19  1  6  0  0  0
M  CHG  1  22  -1
M  END
>  <CHROM.1>
145.43513804,52.02679461,169.28148193,-31.30629307,5.21920676,4.89410487
30.17759639,2.19805354,-0.84923843,-0.84572887

>  <Name>
ligand

>  <RI>
0

>  <Rbt.Current_Directory>
/home/itssahil/PROJECTS/Mol_Feturizer/Test_systems_manuscript/rnas/3slm

>  <Rbt.Executable>
rbdock ($Id: //depot/dev/client3/rdock/2013.1/src/exe/rbdock.cxx#4 $)

>  <Rbt.Library>
libRbt.so (2013.1, Build901 2013/11/27)

>  <Rbt.Parameter_File>
/export/apps/rDock/src/rDock_2013.1_src/data/scripts/dock_solv.prm

>  <Rbt.Receptor>
prm/blind_docking_80.prm

>  <SCORE>
-19.3829

>  <SCORE.INTER>
-16.3053

>  <SCORE.INTER.CONST>
1

>  <SCORE.INTER.POLAR>
0

>  <SCORE.INTER.ROT>
4

>  <SCORE.INTER.SOLV>
15.4015

>  <SCORE.INTER.VDW>
-22.2707

>  <SCORE.INTER.norm>
-0.708926

>  <SCORE.INTRA>
-3.07759

>  <SCORE.INTRA.DIHEDRAL>
-5.13869

>  <SCORE.INTRA.DIHEDRAL.0>
8.62657

>  <SCORE.INTRA.POLAR>
0

>  <SCORE.INTRA.POLAR.0>
0

>  <SCORE.INTRA.REPUL>
0

>  <SCORE.INTRA.REPUL.0>
0

>  <SCORE.INTRA.SOLV>
0.000940911

>  <SCORE.INTRA.SOLV.lig_0>
-66.3641

>  <SCORE.INTRA.VDW>
-0.50872

>  <SCORE.INTRA.VDW.0>
0.452231

>  <SCORE.INTRA.norm>
-0.133808

>  <SCORE.RESTR>
0

>  <SCORE.RESTR.CAVITY>
0

>  <SCORE.RESTR.norm>
0

>  <SCORE.SYSTEM>
0

>  <SCORE.SYSTEM.CONST>
0

>  <SCORE.SYSTEM.DIHEDRAL>
0

>  <SCORE.SYSTEM.SOLV>
0

>  <SCORE.SYSTEM.norm>
0

>  <SCORE.heavy>
23

>  <SCORE.norm>
-0.842735

>  <RMSD>
16.820

$$$$
ligand
 OpenBabel02271912143D
libRbt.so/2013.1/901 2013/11/27
 23 25  0  0  0  0  0  0  0  0999 V2000
    7.6337    9.0591   23.9201 P   0  0  1  0  0  0  0  0  0  0  0  0
    5.8752    7.8376   25.4271 C   0  0  0  0  0  0  0  0  0  0  0  0
    6.8404    8.8734   25.3074 O   0  0  0  0  0  0  0  0  0  0  0  0
    5.2010    8.0031   26.7704 C   0  0  1  0  0  0  0  0  0  0  0  0
    4.1586    7.0488   26.9692 O   0  0  0  0  0  0  0  0  0  0  0  0
    6.2290    7.8062   27.8718 C   0  0  1  0  0  0  0  0  0  0  0  0
    6.0823    8.8791   28.8180 O   0  0  0  0  0  0  0  0  0  0  0  0
    5.9043    6.4503   28.4861 C   0  0  0  0  0  0  0  0  0  0  0  0
    4.4572    6.1891   28.0769 C   0  0  2  0  0  0  0  0  0  0  0  0
    2.8319    1.4148   29.1241 N   0  0  0  0  0  0  0  0  0  0  0  0
    2.8126    2.4901   29.9284 C   0  0  2  0  0  0  0  0  0  0  0  0
    2.3003    2.3397   31.1720 N   0  0  0  0  0  0  0  0  0  0  0  0
    3.2820    3.6883   29.5043 N   0  0  0  0  0  0  0  0  0  0  0  0
    3.7789    3.8061   28.2557 C   0  0  2  0  0  0  0  0  0  0  0  0
    3.8077    2.7117   27.4187 C   0  0  1  0  0  0  0  0  0  0  0  0
    3.3158    1.5023   27.8718 C   0  0  0  0  0  0  0  0  0  0  0  0
    3.3269    0.4993   27.1260 O   0  0  0  0  0  0  0  0  0  0  0  0
    4.3535    3.0951   26.2476 N   0  0  0  0  0  0  0  0  0  0  0  0
    4.6505    4.4023   26.3534 C   0  0  0  0  0  0  0  0  0  0  0  0
    4.3075    4.8183   27.5774 N   0  0  1  0  0  0  0  0  0  0  0  0
    8.7799    8.0772   23.9324 O   0  0  0  0  0  0  0  0  0  0  0  0
    6.5886    8.7845   22.8634 O   0  5  0  0  0  0  0  0  0  0  0  0
    8.0739   10.4968   23.9808 O   0  0  0  0  0  0  0  0  0  0  0  0
  1  3  1  1  0  0  0
  1 21  1  0  0  0  0
  1 22  1  0  0  0  0
  1 23  2  0  0  0  0
  2  3  1  0  0  0  0
  4  2  1  6  0  0  0
  4  5  1  0  0  0  0
  4  6  1  0  0  0  0
  6  7  1  1  0  0  0
  6  8  1  0  0  0  0
  8  9  1  0  0  0  0
  9  5  1  6  0  0  0
  9 20  1  0  0  0  0
 10 11  1  0  0  0  0
 10 16  1  0  0  0  0
 11 12  1  6  0  0  0
 11 13  1  0  0  0  0
 14 13  1  1  0  0  0
 14 15  1  0  0  0  0
 14 20  1  0  0  0  0
 15 16  1  6  0  0  0
 15 18  1  0  0  0  0
 16 17  2  0  0  0  0
 18 19  1  0  0  0  0
 20 19  1  6  0  0  0
M  CHG  1  22  -1
M  END
>  <CHROM.1>
-82.91019560,177.03666903,-174.06947134,-140.98056406,5.20285753,5.89156096
26.83692317,-0.17273083,-1.08308363,-2.32863581

>  <Name>
ligand

>  <RI>
0

>  <Rbt.Current_Directory>
/home/itssahil/PROJECTS/Mol_Feturizer/Test_systems_manuscript/rnas/3slm

>  <Rbt.Executable>
rbdock ($Id: //depot/dev/client3/rdock/2013.1/src/exe/rbdock.cxx#4 $)

>  <Rbt.Library>
libRbt.so (2013.1, Build901 2013/11/27)

>  <Rbt.Parameter_File>
/export/apps/rDock/src/rDock_2013.1_src/data/scripts/dock_solv.prm

>  <Rbt.Receptor>
prm/blind_docking_100.prm

>  <SCORE>
-20.7219

>  <SCORE.INTER>
-16.0482

>  <SCORE.INTER.CONST>
1

>  <SCORE.INTER.POLAR>
0

>  <SCORE.INTER.ROT>
4

>  <SCORE.INTER.SOLV>
16.0649

>  <SCORE.INTER.VDW>
-22.3204

>  <SCORE.INTER.norm>
-0.697746

>  <SCORE.INTRA>
-4.85365

>  <SCORE.INTRA.DIHEDRAL>
-6.43499

>  <SCORE.INTRA.DIHEDRAL.0>
8.62657

>  <SCORE.INTRA.POLAR>
0

>  <SCORE.INTRA.POLAR.0>
0

>  <SCORE.INTRA.REPUL>
0

>  <SCORE.INTRA.REPUL.0>
0

>  <SCORE.INTRA.SOLV>
-0.356019

>  <SCORE.INTRA.SOLV.lig_0>
-66.3641

>  <SCORE.INTRA.VDW>
-1.45814

>  <SCORE.INTRA.VDW.0>
0.452231

>  <SCORE.INTRA.norm>
-0.211028

>  <SCORE.RESTR>
0.179921

>  <SCORE.RESTR.CAVITY>
0.179921

>  <SCORE.RESTR.norm>
0.00782264

>  <SCORE.SYSTEM>
0

>  <SCORE.SYSTEM.CONST>
0

>  <SCORE.SYSTEM.DIHEDRAL>
0

>  <SCORE.SYSTEM.SOLV>
0

>  <SCORE.SYSTEM.norm>
0

>  <SCORE.heavy>
23

>  <SCORE.norm>
-0.900951

>  <RMSD>
16.848

$$$$
ligand
 OpenBabel02271912143D
libRbt.so/2013.1/901 2013/11/27
 23 25  0  0  0  0  0  0  0  0999 V2000
    6.3299    3.1943   33.3810 P   0  0  1  0  0  0  0  0  0  0  0  0
    3.7689    3.1278   32.8404 C   0  0  0  0  0  0  0  0  0  0  0  0
    5.0658    3.5628   32.4565 O   0  0  0  0  0  0  0  0  0  0  0  0
    2.7784    3.7829   31.9043 C   0  0  1  0  0  0  0  0  0  0  0  0
    2.9828    5.1920   31.8070 O   0  0  0  0  0  0  0  0  0  0  0  0
    2.9402    3.1917   30.5141 C   0  0  1  0  0  0  0  0  0  0  0  0
    1.6331    2.8620   30.0131 O   0  0  0  0  0  0  0  0  0  0  0  0
    3.6129    4.2823   29.6899 C   0  0  0  0  0  0  0  0  0  0  0  0
    3.3387    5.5656   30.4695 C   0  0  2  0  0  0  0  0  0  0  0  0
    6.6804    8.6356   28.0322 N   0  0  0  0  0  0  0  0  0  0  0  0
    5.5949    8.0278   27.5263 C   0  0  2  0  0  0  0  0  0  0  0  0
    5.3074    8.2330   26.2198 N   0  0  0  0  0  0  0  0  0  0  0  0
    4.8086    7.2428   28.3018 N   0  0  0  0  0  0  0  0  0  0  0  0
    5.1191    7.0654   29.6025 C   0  0  2  0  0  0  0  0  0  0  0  0
    6.2307    7.6804   30.1365 C   0  0  1  0  0  0  0  0  0  0  0  0
    7.0124    8.4825   29.3270 C   0  0  0  0  0  0  0  0  0  0  0  0
    8.0212    9.0545   29.7936 O   0  0  0  0  0  0  0  0  0  0  0  0
    6.3156    7.3354   31.4365 N   0  0  0  0  0  0  0  0  0  0  0  0
    5.2739    6.5286   31.7053 C   0  0  0  0  0  0  0  0  0  0  0  0
    4.5632    6.3645   30.5843 N   0  0  1  0  0  0  0  0  0  0  0  0
    5.9953    3.6397   34.7838 O   0  0  0  0  0  0  0  0  0  0  0  0
    6.4753    1.6986   33.2197 O   0  5  0  0  0  0  0  0  0  0  0  0
    7.4434    3.9851   32.7494 O   0  0  0  0  0  0  0  0  0  0  0  0
  1  3  1  6  0  0  0
  1 21  1  0  0  0  0
  1 22  1  0  0  0  0
  1 23  2  0  0  0  0
  2  3  1  0  0  0  0
  4  2  1  1  0  0  0
  4  5  1  0  0  0  0
  4  6  1  0  0  0  0
  6  7  1  6  0  0  0
  6  8  1  0  0  0  0
  8  9  1  0  0  0  0
  9  5  1  1  0  0  0
  9 20  1  0  0  0  0
 10 11  1  0  0  0  0
 10 16  1  0  0  0  0
 11 12  1  1  0  0  0
 11 13  1  0  0  0  0
 14 13  1  6  0  0  0
 14 15  1  0  0  0  0
 14 20  1  0  0  0  0
 15 16  1  1  0  0  0
 15 18  1  0  0  0  0
 16 17  2  0  0  0  0
 18 19  1  0  0  0  0
 20 19  1  1  0  0  0
M  CHG  1  22  -1
M  END
>  <CHROM.1>
-52.50867290,-50.41602664,172.00754496,-169.77088530,5.16832907,5.37814589
30.93641200,-1.74821226,-0.50409019,-0.79928031

>  <Name>
ligand

>  <RI>
0

>  <Rbt.Current_Directory>
/home/itssahil/PROJECTS/Mol_Feturizer/Test_systems_manuscript/rnas/3slm

>  <Rbt.Executable>
rbdock ($Id: //depot/dev/client3/rdock/2013.1/src/exe/rbdock.cxx#4 $)

>  <Rbt.Library>
libRbt.so (2013.1, Build901 2013/11/27)

>  <Rbt.Parameter_File>
/export/apps/rDock/src/rDock_2013.1_src/data/scripts/dock_solv.prm

>  <Rbt.Receptor>
prm/blind_docking_80.prm

>  <SCORE>
-19.445

>  <SCORE.INTER>
-13.5629

>  <SCORE.INTER.CONST>
1

>  <SCORE.INTER.POLAR>
0

>  <SCORE.INTER.ROT>
4

>  <SCORE.INTER.SOLV>
22.8542

>  <SCORE.INTER.VDW>
-22.9267

>  <SCORE.INTER.norm>
-0.589692

>  <SCORE.INTRA>
-5.88205

>  <SCORE.INTRA.DIHEDRAL>
-6.65581

>  <SCORE.INTRA.DIHEDRAL.0>
8.62657

>  <SCORE.INTRA.POLAR>
0

>  <SCORE.INTRA.POLAR.0>
0

>  <SCORE.INTRA.REPUL>
0

>  <SCORE.INTRA.REPUL.0>
0

>  <SCORE.INTRA.SOLV>
-0.0992315

>  <SCORE.INTRA.SOLV.lig_0>
-66.3641

>  <SCORE.INTRA.VDW>
-2.50453

>  <SCORE.INTRA.VDW.0>
0.452231

>  <SCORE.INTRA.norm>
-0.255741

>  <SCORE.RESTR>
0

>  <SCORE.RESTR.CAVITY>
0

>  <SCORE.RESTR.norm>
0

>  <SCORE.SYSTEM>
0

>  <SCORE.SYSTEM.CONST>
0

>  <SCORE.SYSTEM.DIHEDRAL>
0

>  <SCORE.SYSTEM.SOLV>
0

>  <SCORE.SYSTEM.norm>
0

>  <SCORE.heavy>
23

>  <SCORE.norm>
-0.845433

>  <RMSD>
16.869

$$$$
ligand
 OpenBabel02271912143D
libRbt.so/2013.1/901 2013/11/27
 23 25  0  0  0  0  0  0  0  0999 V2000
    2.4218    4.4621   30.2948 P   0  0  1  0  0  0  0  0  0  0  0  0
    3.8070    6.4187   31.3475 C   0  0  0  0  0  0  0  0  0  0  0  0
    2.9681    5.9753   30.2899 O   0  0  0  0  0  0  0  0  0  0  0  0
    5.1471    5.7399   31.1744 C   0  0  1  0  0  0  0  0  0  0  0  0
    5.7474    6.0497   29.9172 O   0  0  0  0  0  0  0  0  0  0  0  0
    6.0895    6.2108   32.2692 C   0  0  1  0  0  0  0  0  0  0  0  0
    6.7319    5.0550   32.8344 O   0  0  0  0  0  0  0  0  0  0  0  0
    7.0805    7.1366   31.5750 C   0  0  0  0  0  0  0  0  0  0  0  0
    6.9822    6.7547   30.1004 C   0  0  2  0  0  0  0  0  0  0  0  0
    8.8794   11.4474   29.1457 N   0  0  0  0  0  0  0  0  0  0  0  0
    9.2572   10.5809   30.0997 C   0  0  2  0  0  0  0  0  0  0  0  0
   10.2654   10.9490   30.9241 N   0  0  0  0  0  0  0  0  0  0  0  0
    8.6547    9.3738   30.2254 N   0  0  0  0  0  0  0  0  0  0  0  0
    7.6580    9.0346   29.3821 C   0  0  2  0  0  0  0  0  0  0  0  0
    7.2571    9.9134   28.3991 C   0  0  1  0  0  0  0  0  0  0  0  0
    7.8926   11.1353   28.2861 C   0  0  0  0  0  0  0  0  0  0  0  0
    7.5483   11.9439   27.3972 O   0  0  0  0  0  0  0  0  0  0  0  0
    6.2521    9.3389   27.7090 N   0  0  0  0  0  0  0  0  0  0  0  0
    6.0388    8.1256   28.2481 C   0  0  0  0  0  0  0  0  0  0  0  0
    6.8891    7.9577   29.2667 N   0  0  1  0  0  0  0  0  0  0  0  0
    3.6188    3.5602   30.1159 O   0  0  0  0  0  0  0  0  0  0  0  0
    1.7341    4.3275   31.6339 O   0  5  0  0  0  0  0  0  0  0  0  0
    1.4784    4.4473   29.1225 O   0  0  0  0  0  0  0  0  0  0  0  0
  1  3  1  1  0  0  0
  1 21  1  0  0  0  0
  1 22  1  0  0  0  0
  1 23  2  0  0  0  0
  2  3  1  0  0  0  0
  4  2  1  1  0  0  0
  4  5  1  0  0  0  0
  4  6  1  0  0  0  0
  6  7  1  6  0  0  0
  6  8  1  0  0  0  0
  8  9  1  0  0  0  0
  9  5  1  1  0  0  0
  9 20  1  0  0  0  0
 10 11  1  0  0  0  0
 10 16  1  0  0  0  0
 11 12  1  6  0  0  0
 11 13  1  0  0  0  0
 14 13  1  1  0  0  0
 14 15  1  0  0  0  0
 14 20  1  0  0  0  0
 15 16  1  6  0  0  0
 15 18  1  0  0  0  0
 16 17  2  0  0  0  0
 18 19  1  0  0  0  0
 20 19  1  6  0  0  0
M  CHG  1  22  -1
M  END
>  <CHROM.1>
-66.10234393,59.29026965,71.23256433,162.78976588,5.80076095,7.36946996,30.03507584
2.46603254,0.54251305,2.32403757

>  <Name>
ligand

>  <RI>
0

>  <Rbt.Current_Directory>
/home/itssahil/PROJECTS/Mol_Feturizer/Test_systems_manuscript/rnas/3slm

>  <Rbt.Executable>
rbdock ($Id: //depot/dev/client3/rdock/2013.1/src/exe/rbdock.cxx#4 $)

>  <Rbt.Library>
libRbt.so (2013.1, Build901 2013/11/27)

>  <Rbt.Parameter_File>
/export/apps/rDock/src/rDock_2013.1_src/data/scripts/dock_solv.prm

>  <Rbt.Receptor>
prm/blind_docking_40.prm

>  <SCORE>
-19.5491

>  <SCORE.INTER>
-15.1212

>  <SCORE.INTER.CONST>
1

>  <SCORE.INTER.POLAR>
0

>  <SCORE.INTER.ROT>
4

>  <SCORE.INTER.SOLV>
17.8214

>  <SCORE.INTER.VDW>
-22.2879

>  <SCORE.INTER.norm>
-0.657442

>  <SCORE.INTRA>
-4.4279

>  <SCORE.INTRA.DIHEDRAL>
-6.81553

>  <SCORE.INTRA.DIHEDRAL.0>
8.62657

>  <SCORE.INTRA.POLAR>
0

>  <SCORE.INTRA.POLAR.0>
0

>  <SCORE.INTRA.REPUL>
0

>  <SCORE.INTRA.REPUL.0>
0

>  <SCORE.INTRA.SOLV>
0.452024

>  <SCORE.INTRA.SOLV.lig_0>
-66.3641

>  <SCORE.INTRA.VDW>
-1.24615

>  <SCORE.INTRA.VDW.0>
0.452231

>  <SCORE.INTRA.norm>
-0.192517

>  <SCORE.RESTR>
0

>  <SCORE.RESTR.CAVITY>
0

>  <SCORE.RESTR.norm>
0

>  <SCORE.SYSTEM>
0

>  <SCORE.SYSTEM.CONST>
0

>  <SCORE.SYSTEM.DIHEDRAL>
0

>  <SCORE.SYSTEM.SOLV>
0

>  <SCORE.SYSTEM.norm>
0

>  <SCORE.heavy>
23

>  <SCORE.norm>
-0.84996

>  <RMSD>
16.885

$$$$
ligand
 OpenBabel02271912143D
libRbt.so/2013.1/901 2013/11/27
 23 25  0  0  0  0  0  0  0  0999 V2000
    6.4063    3.1668   33.3328 P   0  0  1  0  0  0  0  0  0  0  0  0
    3.8543    2.9123   32.8058 C   0  0  0  0  0  0  0  0  0  0  0  0
    5.1154    3.4339   32.4106 O   0  0  0  0  0  0  0  0  0  0  0  0
    2.8039    3.5655   31.9360 C   0  0  1  0  0  0  0  0  0  0  0  0
    2.9655    4.9820   31.8712 O   0  0  0  0  0  0  0  0  0  0  0  0
    2.9164    3.0187   30.5229 C   0  0  1  0  0  0  0  0  0  0  0  0
    1.5967    2.6665   30.0729 O   0  0  0  0  0  0  0  0  0  0  0  0
    3.5202    4.1507   29.7014 C   0  0  0  0  0  0  0  0  0  0  0  0
    3.2483    5.4032   30.5303 C   0  0  2  0  0  0  0  0  0  0  0  0
    6.4843    8.4998   27.9864 N   0  0  0  0  0  0  0  0  0  0  0  0
    5.4070    7.8564   27.5076 C   0  0  2  0  0  0  0  0  0  0  0  0
    5.0978    8.0279   26.2013 N   0  0  0  0  0  0  0  0  0  0  0  0
    4.6498    7.0694   28.3094 N   0  0  0  0  0  0  0  0  0  0  0  0
    4.9812    6.9261   29.6092 C   0  0  2  0  0  0  0  0  0  0  0  0
    6.0848    7.5780   30.1155 C   0  0  1  0  0  0  0  0  0  0  0  0
    6.8367    8.3813   29.2794 C   0  0  0  0  0  0  0  0  0  0  0  0
    7.8375    8.9863   29.7207 O   0  0  0  0  0  0  0  0  0  0  0  0
    6.1948    7.2619   31.4210 N   0  0  0  0  0  0  0  0  0  0  0  0
    5.1761    6.4366   31.7202 C   0  0  0  0  0  0  0  0  0  0  0  0
    4.4549    6.2328   30.6125 N   0  0  1  0  0  0  0  0  0  0  0  0
    6.6899    1.6854   33.2765 O   0  0  0  0  0  0  0  0  0  0  0  0
    7.4808    4.0314   32.7146 O   0  5  0  0  0  0  0  0  0  0  0  0
    5.9494    3.6397   34.6864 O   0  0  0  0  0  0  0  0  0  0  0  0
  1  3  1  6  0  0  0
  1 21  1  0  0  0  0
  1 22  1  0  0  0  0
  1 23  2  0  0  0  0
  2  3  1  0  0  0  0
  4  2  1  1  0  0  0
  4  5  1  0  0  0  0
  4  6  1  0  0  0  0
  6  7  1  6  0  0  0
  6  8  1  0  0  0  0
  8  9  1  0  0  0  0
  9  5  1  1  0  0  0
  9 20  1  0  0  0  0
 10 11  1  0  0  0  0
 10 16  1  0  0  0  0
 11 12  1  1  0  0  0
 11 13  1  0  0  0  0
 14 13  1  6  0  0  0
 14 15  1  0  0  0  0
 14 20  1  0  0  0  0
 15 16  1  1  0  0  0
 15 18  1  0  0  0  0
 16 17  2  0  0  0  0
 18 19  1  0  0  0  0
 20 19  1  1  0  0  0
M  CHG  1  22  -1
M  END
>  <CHROM.1>
66.88058931,-48.18974476,167.76872805,-173.18804765,5.11345240,5.26235939
30.92751592,-1.71253961,-0.50937351,-0.78829550

>  <Name>
ligand

>  <RI>
0

>  <Rbt.Current_Directory>
/home/itssahil/PROJECTS/Mol_Feturizer/Test_systems_manuscript/rnas/3slm

>  <Rbt.Executable>
rbdock ($Id: //depot/dev/client3/rdock/2013.1/src/exe/rbdock.cxx#4 $)

>  <Rbt.Library>
libRbt.so (2013.1, Build901 2013/11/27)

>  <Rbt.Parameter_File>
/export/apps/rDock/src/rDock_2013.1_src/data/scripts/dock_solv.prm

>  <Rbt.Receptor>
prm/blind_docking_40.prm

>  <SCORE>
-21.0863

>  <SCORE.INTER>
-15.7214

>  <SCORE.INTER.CONST>
1

>  <SCORE.INTER.POLAR>
0

>  <SCORE.INTER.ROT>
4

>  <SCORE.INTER.SOLV>
19.9536

>  <SCORE.INTER.VDW>
-23.3988

>  <SCORE.INTER.norm>
-0.683539

>  <SCORE.INTRA>
-5.36487

>  <SCORE.INTRA.DIHEDRAL>
-6.11411

>  <SCORE.INTRA.DIHEDRAL.0>
8.62657

>  <SCORE.INTRA.POLAR>
0

>  <SCORE.INTRA.POLAR.0>
0

>  <SCORE.INTRA.REPUL>
0

>  <SCORE.INTRA.REPUL.0>
0

>  <SCORE.INTRA.SOLV>
0.206914

>  <SCORE.INTRA.SOLV.lig_0>
-66.3641

>  <SCORE.INTRA.VDW>
-2.41127

>  <SCORE.INTRA.VDW.0>
0.452231

>  <SCORE.INTRA.norm>
-0.233255

>  <SCORE.RESTR>
0

>  <SCORE.RESTR.CAVITY>
0

>  <SCORE.RESTR.norm>
0

>  <SCORE.SYSTEM>
0

>  <SCORE.SYSTEM.CONST>
0

>  <SCORE.SYSTEM.DIHEDRAL>
0

>  <SCORE.SYSTEM.SOLV>
0

>  <SCORE.SYSTEM.norm>
0

>  <SCORE.heavy>
23

>  <SCORE.norm>
-0.916794

>  <RMSD>
16.894

$$$$
ligand
 OpenBabel02271912143D
libRbt.so/2013.1/901 2013/11/27
 23 25  0  0  0  0  0  0  0  0999 V2000
    6.3792    3.1821   33.3514 P   0  0  1  0  0  0  0  0  0  0  0  0
    3.8227    2.9583   32.8323 C   0  0  0  0  0  0  0  0  0  0  0  0
    5.0896    3.4606   32.4307 O   0  0  0  0  0  0  0  0  0  0  0  0
    2.7804    3.6068   31.9494 C   0  0  1  0  0  0  0  0  0  0  0  0
    2.9501    5.0216   31.8686 O   0  0  0  0  0  0  0  0  0  0  0  0
    2.8970    3.0427   30.5434 C   0  0  1  0  0  0  0  0  0  0  0  0
    1.5777    2.6924   30.0908 O   0  0  0  0  0  0  0  0  0  0  0  0
    3.5113    4.1616   29.7117 C   0  0  0  0  0  0  0  0  0  0  0  0
    3.2421    5.4253   30.5243 C   0  0  2  0  0  0  0  0  0  0  0  0
    6.4887    8.5014   27.9692 N   0  0  0  0  0  0  0  0  0  0  0  0
    5.4076    7.8623   27.4934 C   0  0  2  0  0  0  0  0  0  0  0  0
    5.0969    8.0328   26.1872 N   0  0  0  0  0  0  0  0  0  0  0  0
    4.6478    7.0805   28.2979 N   0  0  0  0  0  0  0  0  0  0  0  0
    4.9807    6.9380   29.5974 C   0  0  2  0  0  0  0  0  0  0  0  0
    6.0883    7.5855   30.1006 C   0  0  1  0  0  0  0  0  0  0  0  0
    6.8427    8.3836   29.2618 C   0  0  0  0  0  0  0  0  0  0  0  0
    7.8472    8.9846   29.7002 O   0  0  0  0  0  0  0  0  0  0  0  0
    6.1990    7.2714   31.4066 N   0  0  0  0  0  0  0  0  0  0  0  0
    5.1768    6.4516   31.7090 C   0  0  0  0  0  0  0  0  0  0  0  0
    4.4528    6.2492   30.6029 N   0  0  1  0  0  0  0  0  0  0  0  0
    7.5237    3.9659   32.7565 O   0  0  0  0  0  0  0  0  0  0  0  0
    5.9529    3.6462   34.7251 O   0  5  0  0  0  0  0  0  0  0  0  0
    6.5499    1.6912   33.2391 O   0  0  0  0  0  0  0  0  0  0  0  0
  1  3  1  6  0  0  0
  1 21  1  0  0  0  0
  1 22  1  0  0  0  0
  1 23  2  0  0  0  0
  2  3  1  0  0  0  0
  4  2  1  1  0  0  0
  4  5  1  0  0  0  0
  4  6  1  0  0  0  0
  6  7  1  6  0  0  0
  6  8  1  0  0  0  0
  8  9  1  0  0  0  0
  9  5  1  1  0  0  0
  9 20  1  0  0  0  0
 10 11  1  0  0  0  0
 10 16  1  0  0  0  0
 11 12  1  1  0  0  0
 11 13  1  0  0  0  0
 14 13  1  6  0  0  0
 14 15  1  0  0  0  0
 14 20  1  0  0  0  0
 15 16  1  1  0  0  0
 15 18  1  0  0  0  0
 16 17  2  0  0  0  0
 18 19  1  0  0  0  0
 20 19  1  1  0  0  0
M  CHG  1  22  -1
M  END
>  <CHROM.1>
-173.53276434,-48.62192271,168.46876180,-172.49555669,5.10117146,5.27447920
30.92930177,-1.71703480,-0.50562347,-0.79491841

>  <Name>
ligand

>  <RI>
0

>  <Rbt.Current_Directory>
/home/itssahil/PROJECTS/Mol_Feturizer/Test_systems_manuscript/rnas/3slm

>  <Rbt.Executable>
rbdock ($Id: //depot/dev/client3/rdock/2013.1/src/exe/rbdock.cxx#4 $)

>  <Rbt.Library>
libRbt.so (2013.1, Build901 2013/11/27)

>  <Rbt.Parameter_File>
/export/apps/rDock/src/rDock_2013.1_src/data/scripts/dock_solv.prm

>  <Rbt.Receptor>
prm/blind_docking_40.prm

>  <SCORE>
-19.7022

>  <SCORE.INTER>
-14.3945

>  <SCORE.INTER.CONST>
1

>  <SCORE.INTER.POLAR>
0

>  <SCORE.INTER.ROT>
4

>  <SCORE.INTER.SOLV>
22.0934

>  <SCORE.INTER.VDW>
-23.2275

>  <SCORE.INTER.norm>
-0.625849

>  <SCORE.INTRA>
-5.30772

>  <SCORE.INTRA.DIHEDRAL>
-6.23268

>  <SCORE.INTRA.DIHEDRAL.0>
8.62657

>  <SCORE.INTRA.POLAR>
0

>  <SCORE.INTRA.POLAR.0>
0

>  <SCORE.INTRA.REPUL>
0

>  <SCORE.INTRA.REPUL.0>
0

>  <SCORE.INTRA.SOLV>
0.312999

>  <SCORE.INTRA.SOLV.lig_0>
-66.3641

>  <SCORE.INTRA.VDW>
-2.34788

>  <SCORE.INTRA.VDW.0>
0.452231

>  <SCORE.INTRA.norm>
-0.230771

>  <SCORE.RESTR>
0

>  <SCORE.RESTR.CAVITY>
0

>  <SCORE.RESTR.norm>
0

>  <SCORE.SYSTEM>
0

>  <SCORE.SYSTEM.CONST>
0

>  <SCORE.SYSTEM.DIHEDRAL>
0

>  <SCORE.SYSTEM.SOLV>
0

>  <SCORE.SYSTEM.norm>
0

>  <SCORE.heavy>
23

>  <SCORE.norm>
-0.856619

>  <RMSD>
16.895

$$$$
ligand
 OpenBabel02271912143D
libRbt.so/2013.1/901 2013/11/27
 23 25  0  0  0  0  0  0  0  0999 V2000
    3.8235    4.1905   26.2594 P   0  0  1  0  0  0  0  0  0  0  0  0
    4.1169    5.2273   28.6457 C   0  0  0  0  0  0  0  0  0  0  0  0
    4.0816    5.4387   27.2411 O   0  0  0  0  0  0  0  0  0  0  0  0
    4.4585    6.5510   29.2920 C   0  0  1  0  0  0  0  0  0  0  0  0
    4.7429    6.4114   30.6836 O   0  0  0  0  0  0  0  0  0  0  0  0
    5.6922    7.1301   28.6203 C   0  0  1  0  0  0  0  0  0  0  0  0
    5.4319    8.5124   28.3214 O   0  0  0  0  0  0  0  0  0  0  0  0
    6.8168    6.9638   29.6347 C   0  0  0  0  0  0  0  0  0  0  0  0
    6.0966    6.7873   30.9688 C   0  0  2  0  0  0  0  0  0  0  0  0
    5.1768    2.3541   33.4248 N   0  0  0  0  0  0  0  0  0  0  0  0
    4.2905    3.1704   32.8317 C   0  0  2  0  0  0  0  0  0  0  0  0
    2.9862    2.8098   32.8541 N   0  0  0  0  0  0  0  0  0  0  0  0
    4.6912    4.3124   32.2227 N   0  0  0  0  0  0  0  0  0  0  0  0
    6.0001    4.6387   32.2116 C   0  0  2  0  0  0  0  0  0  0  0  0
    6.9220    3.8127   32.8175 C   0  0  1  0  0  0  0  0  0  0  0  0
    6.4894    2.6494   33.4252 C   0  0  0  0  0  0  0  0  0  0  0  0
    7.3103    1.8836   33.9746 O   0  0  0  0  0  0  0  0  0  0  0  0
    8.1412    4.3680   32.6705 N   0  0  0  0  0  0  0  0  0  0  0  0
    7.9799    5.5113   31.9812 C   0  0  0  0  0  0  0  0  0  0  0  0
    6.6780    5.6690   31.7186 N   0  0  1  0  0  0  0  0  0  0  0  0
    4.8603    3.1454   26.5925 O   0  0  0  0  0  0  0  0  0  0  0  0
    2.4017    3.7770   26.5622 O   0  5  0  0  0  0  0  0  0  0  0  0
    4.0020    4.8001   24.8953 O   0  0  0  0  0  0  0  0  0  0  0  0
  1  3  1  1  0  0  0
  1 21  1  0  0  0  0
  1 22  1  0  0  0  0
  1 23  2  0  0  0  0
  2  3  1  0  0  0  0
  4  2  1  6  0  0  0
  4  5  1  0  0  0  0
  4  6  1  0  0  0  0
  6  7  1  1  0  0  0
  6  8  1  0  0  0  0
  8  9  1  0  0  0  0
  9  5  1  6  0  0  0
  9 20  1  0  0  0  0
 10 11  1  0  0  0  0
 10 16  1  0  0  0  0
 11 12  1  6  0  0  0
 11 13  1  0  0  0  0
 14 13  1  1  0  0  0
 14 15  1  0  0  0  0
 14 20  1  0  0  0  0
 15 16  1  6  0  0  0
 15 18  1  0  0  0  0
 16 17  2  0  0  0  0
 18 19  1  0  0  0  0
 20 19  1  6  0  0  0
M  CHG  1  22  -1
M  END
>  <CHROM.1>
-54.63418908,-170.11219744,176.56718421,-10.16542827,5.22309306,4.76727100
29.99322337,2.18054116,-0.96377376,-0.82824024

>  <Name>
ligand

>  <RI>
0

>  <Rbt.Current_Directory>
/home/itssahil/PROJECTS/Mol_Feturizer/Test_systems_manuscript/rnas/3slm

>  <Rbt.Executable>
rbdock ($Id: //depot/dev/client3/rdock/2013.1/src/exe/rbdock.cxx#4 $)

>  <Rbt.Library>
libRbt.so (2013.1, Build901 2013/11/27)

>  <Rbt.Parameter_File>
/export/apps/rDock/src/rDock_2013.1_src/data/scripts/dock_solv.prm

>  <Rbt.Receptor>
prm/blind_docking_80.prm

>  <SCORE>
-21.5299

>  <SCORE.INTER>
-16.9017

>  <SCORE.INTER.CONST>
1

>  <SCORE.INTER.POLAR>
0

>  <SCORE.INTER.ROT>
4

>  <SCORE.INTER.SOLV>
16.0756

>  <SCORE.INTER.VDW>
-22.893

>  <SCORE.INTER.norm>
-0.734856

>  <SCORE.INTRA>
-4.63476

>  <SCORE.INTRA.DIHEDRAL>
-6.93066

>  <SCORE.INTRA.DIHEDRAL.0>
8.62657

>  <SCORE.INTRA.POLAR>
0

>  <SCORE.INTRA.POLAR.0>
0

>  <SCORE.INTRA.REPUL>
0

>  <SCORE.INTRA.REPUL.0>
0

>  <SCORE.INTRA.SOLV>
-0.448833

>  <SCORE.INTRA.SOLV.lig_0>
-66.3641

>  <SCORE.INTRA.VDW>
-0.945016

>  <SCORE.INTRA.VDW.0>
0.452231

>  <SCORE.INTRA.norm>
-0.201511

>  <SCORE.RESTR>
0.00651651

>  <SCORE.RESTR.CAVITY>
0.00651651

>  <SCORE.RESTR.norm>
0.000283327

>  <SCORE.SYSTEM>
0

>  <SCORE.SYSTEM.CONST>
0

>  <SCORE.SYSTEM.DIHEDRAL>
0

>  <SCORE.SYSTEM.SOLV>
0

>  <SCORE.SYSTEM.norm>
0

>  <SCORE.heavy>
23

>  <SCORE.norm>
-0.936085

>  <RMSD>
16.903

$$$$
ligand
 OpenBabel02271912143D
libRbt.so/2013.1/901 2013/11/27
 23 25  0  0  0  0  0  0  0  0999 V2000
    3.4455    4.6429   27.0960 P   0  0  1  0  0  0  0  0  0  0  0  0
    5.2602    6.2812   28.0332 C   0  0  0  0  0  0  0  0  0  0  0  0
    3.8898    5.9094   27.9832 O   0  0  0  0  0  0  0  0  0  0  0  0
    5.3804    7.4281   29.0113 C   0  0  1  0  0  0  0  0  0  0  0  0
    5.2726    6.9920   30.3659 O   0  0  0  0  0  0  0  0  0  0  0  0
    6.7383    8.0881   28.8411 C   0  0  1  0  0  0  0  0  0  0  0  0
    6.5397    9.5111   28.7792 O   0  0  0  0  0  0  0  0  0  0  0  0
    7.5426    7.6733   30.0667 C   0  0  0  0  0  0  0  0  0  0  0  0
    6.4863    7.2502   31.0840 C   0  0  2  0  0  0  0  0  0  0  0  0
    4.9327    3.3060   34.0100 N   0  0  0  0  0  0  0  0  0  0  0  0
    4.2295    4.3889   33.6404 C   0  0  2  0  0  0  0  0  0  0  0  0
    2.9472    4.4839   34.0627 N   0  0  0  0  0  0  0  0  0  0  0  0
    4.7838    5.3496   32.8621 N   0  0  0  0  0  0  0  0  0  0  0  0
    6.0623    5.2204   32.4518 C   0  0  2  0  0  0  0  0  0  0  0  0
    6.7980    4.1161   32.8240 C   0  0  1  0  0  0  0  0  0  0  0  0
    6.2077    3.1461   33.6117 C   0  0  0  0  0  0  0  0  0  0  0  0
    6.8558    2.1339   33.9548 O   0  0  0  0  0  0  0  0  0  0  0  0
    8.0309    4.2367   32.2933 N   0  0  0  0  0  0  0  0  0  0  0  0
    8.0574    5.3886   31.6000 C   0  0  0  0  0  0  0  0  0  0  0  0
    6.8630    5.9798   31.7125 N   0  0  1  0  0  0  0  0  0  0  0  0
    1.9540    4.7493   26.8910 O   0  0  0  0  0  0  0  0  0  0  0  0
    4.2604    4.7808   25.8307 O   0  5  0  0  0  0  0  0  0  0  0  0
    3.8517    3.4773   27.9568 O   0  0  0  0  0  0  0  0  0  0  0  0
  1  3  1  1  0  0  0
  1 21  1  0  0  0  0
  1 22  1  0  0  0  0
  1 23  2  0  0  0  0
  2  3  1  0  0  0  0
  4  2  1  6  0  0  0
  4  5  1  0  0  0  0
  4  6  1  0  0  0  0
  6  7  1  1  0  0  0
  6  8  1  0  0  0  0
  8  9  1  0  0  0  0
  9  5  1  6  0  0  0
  9 20  1  0  0  0  0
 10 11  1  0  0  0  0
 10 16  1  0  0  0  0
 11 12  1  6  0  0  0
 11 13  1  0  0  0  0
 14 13  1  1  0  0  0
 14 15  1  0  0  0  0
 14 20  1  0  0  0  0
 15 16  1  6  0  0  0
 15 18  1  0  0  0  0
 16 17  2  0  0  0  0
 18 19  1  0  0  0  0
 20 19  1  6  0  0  0
M  CHG  1  22  -1
M  END
>  <CHROM.1>
-162.86218658,74.82555670,-176.02409289,-50.88719778,5.32994233,5.38345370
30.34306755,2.00141519,-0.80063554,-0.98374313

>  <Name>
ligand

>  <RI>
0

>  <Rbt.Current_Directory>
/home/itssahil/PROJECTS/Mol_Feturizer/Test_systems_manuscript/rnas/3slm

>  <Rbt.Executable>
rbdock ($Id: //depot/dev/client3/rdock/2013.1/src/exe/rbdock.cxx#4 $)

>  <Rbt.Library>
libRbt.so (2013.1, Build901 2013/11/27)

>  <Rbt.Parameter_File>
/export/apps/rDock/src/rDock_2013.1_src/data/scripts/dock_solv.prm

>  <Rbt.Receptor>
prm/blind_docking_80.prm

>  <SCORE>
-21.3848

>  <SCORE.INTER>
-17.679

>  <SCORE.INTER.CONST>
1

>  <SCORE.INTER.POLAR>
0

>  <SCORE.INTER.ROT>
4

>  <SCORE.INTER.SOLV>
12.5371

>  <SCORE.INTER.VDW>
-22.2317

>  <SCORE.INTER.norm>
-0.768654

>  <SCORE.INTRA>
-3.70572

>  <SCORE.INTRA.DIHEDRAL>
-6.08696

>  <SCORE.INTRA.DIHEDRAL.0>
8.62657

>  <SCORE.INTRA.POLAR>
0

>  <SCORE.INTRA.POLAR.0>
0

>  <SCORE.INTRA.REPUL>
0

>  <SCORE.INTRA.REPUL.0>
0

>  <SCORE.INTRA.SOLV>
-0.043644

>  <SCORE.INTRA.SOLV.lig_0>
-66.3641

>  <SCORE.INTRA.VDW>
-0.640415

>  <SCORE.INTRA.VDW.0>
0.452231

>  <SCORE.INTRA.norm>
-0.161118

>  <SCORE.RESTR>
0

>  <SCORE.RESTR.CAVITY>
0

>  <SCORE.RESTR.norm>
0

>  <SCORE.SYSTEM>
0

>  <SCORE.SYSTEM.CONST>
0

>  <SCORE.SYSTEM.DIHEDRAL>
0

>  <SCORE.SYSTEM.SOLV>
0

>  <SCORE.SYSTEM.norm>
0

>  <SCORE.heavy>
23

>  <SCORE.norm>
-0.929772

>  <RMSD>
16.926

$$$$
ligand
 OpenBabel02271912143D
libRbt.so/2013.1/901 2013/11/27
 23 25  0  0  0  0  0  0  0  0999 V2000
    3.6001    4.6212   27.0615 P   0  0  1  0  0  0  0  0  0  0  0  0
    5.3617    6.2862   28.0513 C   0  0  0  0  0  0  0  0  0  0  0  0
    4.0066    5.8620   28.0013 O   0  0  0  0  0  0  0  0  0  0  0  0
    5.4412    7.4245   29.0434 C   0  0  1  0  0  0  0  0  0  0  0  0
    5.2819    6.9762   30.3889 O   0  0  0  0  0  0  0  0  0  0  0  0
    6.8032    8.0887   28.9319 C   0  0  1  0  0  0  0  0  0  0  0  0
    6.6039    9.5118   28.8749 O   0  0  0  0  0  0  0  0  0  0  0  0
    7.5602    7.6646   30.1842 C   0  0  0  0  0  0  0  0  0  0  0  0
    6.4662    7.2304   31.1558 C   0  0  2  0  0  0  0  0  0  0  0  0
    4.8654    3.3517   34.1433 N   0  0  0  0  0  0  0  0  0  0  0  0
    4.1843    4.4502   33.7786 C   0  0  2  0  0  0  0  0  0  0  0  0
    2.9135    4.5827   34.2247 N   0  0  0  0  0  0  0  0  0  0  0  0
    4.7487    5.3897   32.9819 N   0  0  0  0  0  0  0  0  0  0  0  0
    6.0150    5.2232   32.5480 C   0  0  2  0  0  0  0  0  0  0  0  0
    6.7282    4.1025   32.9150 C   0  0  1  0  0  0  0  0  0  0  0  0
    6.1278    3.1547   33.7218 C   0  0  0  0  0  0  0  0  0  0  0  0
    6.7552    2.1281   34.0606 O   0  0  0  0  0  0  0  0  0  0  0  0
    7.9533    4.1859   32.3597 N   0  0  0  0  0  0  0  0  0  0  0  0
    7.9969    5.3314   31.6566 C   0  0  0  0  0  0  0  0  0  0  0  0
    6.8211    5.9552   31.7873 N   0  0  1  0  0  0  0  0  0  0  0  0
    4.3380    4.7958   25.7564 O   0  0  0  0  0  0  0  0  0  0  0  0
    4.0208    3.4077   27.8582 O   0  5  0  0  0  0  0  0  0  0  0  0
    2.1089    4.7776   26.9336 O   0  0  0  0  0  0  0  0  0  0  0  0
  1  3  1  1  0  0  0
  1 21  1  0  0  0  0
  1 22  1  0  0  0  0
  1 23  2  0  0  0  0
  2  3  1  0  0  0  0
  4  2  1  6  0  0  0
  4  5  1  0  0  0  0
  4  6  1  0  0  0  0
  6  7  1  1  0  0  0
  6  8  1  0  0  0  0
  8  9  1  0  0  0  0
  9  5  1  6  0  0  0
  9 20  1  0  0  0  0
 10 11  1  0  0  0  0
 10 16  1  0  0  0  0
 11 12  1  6  0  0  0
 11 13  1  0  0  0  0
 14 13  1  1  0  0  0
 14 15  1  0  0  0  0
 14 20  1  0  0  0  0
 15 16  1  6  0  0  0
 15 18  1  0  0  0  0
 16 17  2  0  0  0  0
 18 19  1  0  0  0  0
 20 19  1  6  0  0  0
M  CHG  1  22  -1
M  END
>  <CHROM.1>
-42.47490151,71.60009654,-178.05942007,-54.73363157,5.35485357,5.38056747
30.39853284,1.95282604,-0.83574550,-1.02218590

>  <Name>
ligand

>  <RI>
0

>  <Rbt.Current_Directory>
/home/itssahil/PROJECTS/Mol_Feturizer/Test_systems_manuscript/rnas/3slm

>  <Rbt.Executable>
rbdock ($Id: //depot/dev/client3/rdock/2013.1/src/exe/rbdock.cxx#4 $)

>  <Rbt.Library>
libRbt.so (2013.1, Build901 2013/11/27)

>  <Rbt.Parameter_File>
/export/apps/rDock/src/rDock_2013.1_src/data/scripts/dock_solv.prm

>  <Rbt.Receptor>
prm/blind_docking_40.prm

>  <SCORE>
-21.5418

>  <SCORE.INTER>
-17.1576

>  <SCORE.INTER.CONST>
1

>  <SCORE.INTER.POLAR>
0

>  <SCORE.INTER.ROT>
4

>  <SCORE.INTER.SOLV>
13.2238

>  <SCORE.INTER.VDW>
-22.113

>  <SCORE.INTER.norm>
-0.745984

>  <SCORE.INTRA>
-4.38412

>  <SCORE.INTRA.DIHEDRAL>
-6.42217

>  <SCORE.INTRA.DIHEDRAL.0>
8.62657

>  <SCORE.INTRA.POLAR>
0

>  <SCORE.INTRA.POLAR.0>
0

>  <SCORE.INTRA.REPUL>
0

>  <SCORE.INTRA.REPUL.0>
0

>  <SCORE.INTRA.SOLV>
-0.803944

>  <SCORE.INTRA.SOLV.lig_0>
-66.3641

>  <SCORE.INTRA.VDW>
-0.771065

>  <SCORE.INTRA.VDW.0>
0.452231

>  <SCORE.INTRA.norm>
-0.190614

>  <SCORE.RESTR>
0

>  <SCORE.RESTR.CAVITY>
0

>  <SCORE.RESTR.norm>
0

>  <SCORE.SYSTEM>
0

>  <SCORE.SYSTEM.CONST>
0

>  <SCORE.SYSTEM.DIHEDRAL>
0

>  <SCORE.SYSTEM.SOLV>
0

>  <SCORE.SYSTEM.norm>
0

>  <SCORE.heavy>
23

>  <SCORE.norm>
-0.936598

>  <RMSD>
16.933

$$$$
ligand
 OpenBabel02271912143D
libRbt.so/2013.1/901 2013/11/27
 23 25  0  0  0  0  0  0  0  0999 V2000
    2.4053    5.1191   29.0074 P   0  0  1  0  0  0  0  0  0  0  0  0
    3.5644    6.3836   30.9855 C   0  0  0  0  0  0  0  0  0  0  0  0
    3.1085    6.4203   29.6403 O   0  0  0  0  0  0  0  0  0  0  0  0
    4.7140    5.4031   31.0450 C   0  0  1  0  0  0  0  0  0  0  0  0
    5.8079    5.8077   30.2225 O   0  0  0  0  0  0  0  0  0  0  0  0
    5.2165    5.3104   32.4759 C   0  0  1  0  0  0  0  0  0  0  0  0
    5.3588    3.9191   32.8110 O   0  0  0  0  0  0  0  0  0  0  0  0
    6.5531    6.0417   32.4801 C   0  0  0  0  0  0  0  0  0  0  0  0
    6.9767    6.0590   31.0138 C   0  0  2  0  0  0  0  0  0  0  0  0
    6.7489    9.8255   27.5075 N   0  0  0  0  0  0  0  0  0  0  0  0
    6.1320    8.6328   27.4815 C   0  0  2  0  0  0  0  0  0  0  0  0
    5.3360    8.3564   26.4224 N   0  0  0  0  0  0  0  0  0  0  0  0
    6.2943    7.7402   28.4878 N   0  0  0  0  0  0  0  0  0  0  0  0
    7.0888    8.0503   29.5330 C   0  0  2  0  0  0  0  0  0  0  0  0
    7.7305    9.2692   29.5738 C   0  0  1  0  0  0  0  0  0  0  0  0
    7.5427   10.1658   28.5391 C   0  0  0  0  0  0  0  0  0  0  0  0
    8.1105   11.2791   28.5604 O   0  0  0  0  0  0  0  0  0  0  0  0
    8.4582    9.3210   30.7070 N   0  0  0  0  0  0  0  0  0  0  0  0
    8.2661    8.1609   31.3593 C   0  0  0  0  0  0  0  0  0  0  0  0
    7.4436    7.3961   30.6331 N   0  0  1  0  0  0  0  0  0  0  0  0
    3.4534    4.0345   28.9510 O   0  0  0  0  0  0  0  0  0  0  0  0
    1.2590    4.8303   29.9492 O   0  5  0  0  0  0  0  0  0  0  0  0
    1.9703    5.6049   27.6512 O   0  0  0  0  0  0  0  0  0  0  0  0
  1  3  1  1  0  0  0
  1 21  1  0  0  0  0
  1 22  1  0  0  0  0
  1 23  2  0  0  0  0
  2  3  1  0  0  0  0
  4  2  1  1  0  0  0
  4  5  1  0  0  0  0
  4  6  1  0  0  0  0
  6  7  1  6  0  0  0
  6  8  1  0  0  0  0
  8  9  1  0  0  0  0
  9  5  1  6  0  0  0
  9 20  1  0  0  0  0
 10 11  1  0  0  0  0
 10 16  1  0  0  0  0
 11 12  1  1  0  0  0
 11 13  1  0  0  0  0
 14 13  1  6  0  0  0
 14 15  1  0  0  0  0
 14 20  1  0  0  0  0
 15 16  1  1  0  0  0
 15 18  1  0  0  0  0
 16 17  2  0  0  0  0
 18 19  1  0  0  0  0
 20 19  1  1  0  0  0
M  CHG  1  22  -1
M  END
>  <CHROM.1>
-65.16339348,61.70848211,67.12301353,-17.23063765,5.35996511,6.91005720,29.74085024
2.59864990,0.57905472,2.23325096

>  <Name>
ligand

>  <RI>
0

>  <Rbt.Current_Directory>
/home/itssahil/PROJECTS/Mol_Feturizer/Test_systems_manuscript/rnas/3slm

>  <Rbt.Executable>
rbdock ($Id: //depot/dev/client3/rdock/2013.1/src/exe/rbdock.cxx#4 $)

>  <Rbt.Library>
libRbt.so (2013.1, Build901 2013/11/27)

>  <Rbt.Parameter_File>
/export/apps/rDock/src/rDock_2013.1_src/data/scripts/dock_solv.prm

>  <Rbt.Receptor>
prm/blind_docking_100.prm

>  <SCORE>
-21.2725

>  <SCORE.INTER>
-16.6443

>  <SCORE.INTER.CONST>
1

>  <SCORE.INTER.POLAR>
0

>  <SCORE.INTER.ROT>
4

>  <SCORE.INTER.SOLV>
15.1898

>  <SCORE.INTER.VDW>
-22.4261

>  <SCORE.INTER.norm>
-0.723665

>  <SCORE.INTRA>
-4.62825

>  <SCORE.INTRA.DIHEDRAL>
-7.08401

>  <SCORE.INTRA.DIHEDRAL.0>
8.62657

>  <SCORE.INTRA.POLAR>
0

>  <SCORE.INTRA.POLAR.0>
0

>  <SCORE.INTRA.REPUL>
0

>  <SCORE.INTRA.REPUL.0>
0

>  <SCORE.INTRA.SOLV>
0.593325

>  <SCORE.INTRA.SOLV.lig_0>
-66.3641

>  <SCORE.INTRA.VDW>
-1.38291

>  <SCORE.INTRA.VDW.0>
0.452231

>  <SCORE.INTRA.norm>
-0.201228

>  <SCORE.RESTR>
0

>  <SCORE.RESTR.CAVITY>
0

>  <SCORE.RESTR.norm>
0

>  <SCORE.SYSTEM>
0

>  <SCORE.SYSTEM.CONST>
0

>  <SCORE.SYSTEM.DIHEDRAL>
0

>  <SCORE.SYSTEM.SOLV>
0

>  <SCORE.SYSTEM.norm>
0

>  <SCORE.heavy>
23

>  <SCORE.norm>
-0.924893

>  <RMSD>
16.940

$$$$
ligand
 OpenBabel02271912143D
libRbt.so/2013.1/901 2013/11/27
 23 25  0  0  0  0  0  0  0  0999 V2000
    3.0339    3.9707   27.5083 P   0  0  1  0  0  0  0  0  0  0  0  0
    4.8120    5.8273   28.0051 C   0  0  0  0  0  0  0  0  0  0  0  0
    3.6233    5.1639   28.4123 O   0  0  0  0  0  0  0  0  0  0  0  0
    4.9569    7.0615   28.8667 C   0  0  1  0  0  0  0  0  0  0  0  0
    4.9820    6.7450   30.2581 O   0  0  0  0  0  0  0  0  0  0  0  0
    6.2628    7.7583   28.5239 C   0  0  1  0  0  0  0  0  0  0  0  0
    5.9914    9.1606   28.3569 O   0  0  0  0  0  0  0  0  0  0  0  0
    7.1842    7.4885   29.7068 C   0  0  0  0  0  0  0  0  0  0  0  0
    6.2367    7.1159   30.8440 C   0  0  2  0  0  0  0  0  0  0  0  0
    4.9432    2.8030   33.3455 N   0  0  0  0  0  0  0  0  0  0  0  0
    4.1268    3.7322   32.8223 C   0  0  2  0  0  0  0  0  0  0  0  0
    2.7924    3.5389   32.9397 N   0  0  0  0  0  0  0  0  0  0  0  0
    4.6238    4.8223   32.1894 N   0  0  0  0  0  0  0  0  0  0  0  0
    5.9592    4.9808   32.0829 C   0  0  2  0  0  0  0  0  0  0  0  0
    6.8105    4.0374   32.6161 C   0  0  1  0  0  0  0  0  0  0  0  0
    6.2791    2.9303   33.2500 C   0  0  0  0  0  0  0  0  0  0  0  0
    7.0341    2.0599   33.7346 O   0  0  0  0  0  0  0  0  0  0  0  0
    8.0763    4.4361   32.3815 N   0  0  0  0  0  0  0  0  0  0  0  0
    8.0116    5.5994   31.7101 C   0  0  0  0  0  0  0  0  0  0  0  0
    6.7246    5.9236   31.5449 N   0  0  1  0  0  0  0  0  0  0  0  0
    2.2042    4.6094   26.4211 O   0  0  0  0  0  0  0  0  0  0  0  0
    4.2648    3.2487   27.0105 O   0  5  0  0  0  0  0  0  0  0  0  0
    2.2216    3.1777   28.4960 O   0  0  0  0  0  0  0  0  0  0  0  0
  1  3  1  1  0  0  0
  1 21  1  0  0  0  0
  1 22  1  0  0  0  0
  1 23  2  0  0  0  0
  2  3  1  0  0  0  0
  4  2  1  6  0  0  0
  4  5  1  0  0  0  0
  4  6  1  0  0  0  0
  6  7  1  1  0  0  0
  6  8  1  0  0  0  0
  8  9  1  0  0  0  0
  9  5  1  6  0  0  0
  9 20  1  0  0  0  0
 10 11  1  0  0  0  0
 10 16  1  0  0  0  0
 11 12  1  6  0  0  0
 11 13  1  0  0  0  0
 14 13  1  1  0  0  0
 14 15  1  0  0  0  0
 14 20  1  0  0  0  0
 15 16  1  6  0  0  0
 15 18  1  0  0  0  0
 16 17  2  0  0  0  0
 18 19  1  0  0  0  0
 20 19  1  6  0  0  0
M  CHG  1  22  -1
M  END
>  <CHROM.1>
-83.94611184,57.10803393,168.35248341,-29.45751336,5.08465871,4.99470917
30.21867496,2.22837245,-0.76870231,-0.83936024

>  <Name>
ligand

>  <RI>
0

>  <Rbt.Current_Directory>
/home/itssahil/PROJECTS/Mol_Feturizer/Test_systems_manuscript/rnas/3slm

>  <Rbt.Executable>
rbdock ($Id: //depot/dev/client3/rdock/2013.1/src/exe/rbdock.cxx#4 $)

>  <Rbt.Library>
libRbt.so (2013.1, Build901 2013/11/27)

>  <Rbt.Parameter_File>
/export/apps/rDock/src/rDock_2013.1_src/data/scripts/dock_solv.prm

>  <Rbt.Receptor>
prm/blind_docking_40.prm

>  <SCORE>
-20.754

>  <SCORE.INTER>
-16.5613

>  <SCORE.INTER.CONST>
1

>  <SCORE.INTER.POLAR>
0

>  <SCORE.INTER.ROT>
4

>  <SCORE.INTER.SOLV>
12.7395

>  <SCORE.INTER.VDW>
-21.5541

>  <SCORE.INTER.norm>
-0.720058

>  <SCORE.INTRA>
-4.19265

>  <SCORE.INTRA.DIHEDRAL>
-5.89393

>  <SCORE.INTRA.DIHEDRAL.0>
8.62657

>  <SCORE.INTRA.POLAR>
0

>  <SCORE.INTRA.POLAR.0>
0

>  <SCORE.INTRA.REPUL>
0

>  <SCORE.INTRA.REPUL.0>
0

>  <SCORE.INTRA.SOLV>
-0.469364

>  <SCORE.INTRA.SOLV.lig_0>
-66.3641

>  <SCORE.INTRA.VDW>
-1.011

>  <SCORE.INTRA.VDW.0>
0.452231

>  <SCORE.INTRA.norm>
-0.182289

>  <SCORE.RESTR>
0

>  <SCORE.RESTR.CAVITY>
0

>  <SCORE.RESTR.norm>
0

>  <SCORE.SYSTEM>
0

>  <SCORE.SYSTEM.CONST>
0

>  <SCORE.SYSTEM.DIHEDRAL>
0

>  <SCORE.SYSTEM.SOLV>
0

>  <SCORE.SYSTEM.norm>
0

>  <SCORE.heavy>
23

>  <SCORE.norm>
-0.902347

>  <RMSD>
16.972

$$$$
ligand
 OpenBabel02271912143D
libRbt.so/2013.1/901 2013/11/27
 23 25  0  0  0  0  0  0  0  0999 V2000
    4.1660    3.0354   26.1095 P   0  0  1  0  0  0  0  0  0  0  0  0
    4.6532    5.5759   26.5141 C   0  0  0  0  0  0  0  0  0  0  0  0
    3.9225    4.4184   26.8946 O   0  0  0  0  0  0  0  0  0  0  0  0
    4.0233    6.7575   27.2165 C   0  0  1  0  0  0  0  0  0  0  0  0
    4.1323    6.6588   28.6361 O   0  0  0  0  0  0  0  0  0  0  0  0
    4.7303    8.0304   26.7825 C   0  0  1  0  0  0  0  0  0  0  0  0
    3.7289    9.0062   26.4462 O   0  0  0  0  0  0  0  0  0  0  0  0
    5.5655    8.4552   27.9838 C   0  0  0  0  0  0  0  0  0  0  0  0
    4.9206    7.7336   29.1641 C   0  0  2  0  0  0  0  0  0  0  0  0
    5.9475    4.0884   32.6554 N   0  0  0  0  0  0  0  0  0  0  0  0
    4.7644    4.3858   32.0936 C   0  0  2  0  0  0  0  0  0  0  0  0
    3.6888    3.6502   32.4593 N   0  0  0  0  0  0  0  0  0  0  0  0
    4.6543    5.3833   31.1834 N   0  0  0  0  0  0  0  0  0  0  0  0
    5.7479    6.0922   30.8350 C   0  0  2  0  0  0  0  0  0  0  0  0
    6.9688    5.8009   31.4038 C   0  0  1  0  0  0  0  0  0  0  0  0
    7.0569    4.7736   32.3239 C   0  0  0  0  0  0  0  0  0  0  0  0
    8.1562    4.4893   32.8464 O   0  0  0  0  0  0  0  0  0  0  0  0
    7.8812    6.6520   30.8944 N   0  0  0  0  0  0  0  0  0  0  0  0
    7.2408    7.4502   30.0221 C   0  0  0  0  0  0  0  0  0  0  0  0
    5.9480    7.1081   30.0031 N   0  0  1  0  0  0  0  0  0  0  0  0
    5.6585    2.8189   26.0497 O   0  0  0  0  0  0  0  0  0  0  0  0
    3.4200    2.0121   26.9345 O   0  5  0  0  0  0  0  0  0  0  0  0
    3.5438    3.3038   24.7659 O   0  0  0  0  0  0  0  0  0  0  0  0
  1  3  1  1  0  0  0
  1 21  1  0  0  0  0
  1 22  1  0  0  0  0
  1 23  2  0  0  0  0
  2  3  1  0  0  0  0
  4  2  1  6  0  0  0
  4  5  1  0  0  0  0
  4  6  1  0  0  0  0
  6  7  1  1  0  0  0
  6  8  1  0  0  0  0
  8  9  1  0  0  0  0
  9  5  1  6  0  0  0
  9 20  1  0  0  0  0
 10 11  1  0  0  0  0
 10 16  1  0  0  0  0
 11 12  1  6  0  0  0
 11 13  1  0  0  0  0
 14 13  1  1  0  0  0
 14 15  1  0  0  0  0
 14 20  1  0  0  0  0
 15 16  1  6  0  0  0
 15 18  1  0  0  0  0
 16 17  2  0  0  0  0
 18 19  1  0  0  0  0
 20 19  1  6  0  0  0
M  CHG  1  22  -1
M  END
>  <CHROM.1>
49.01619277,63.43206200,168.66922515,-41.65755156,5.13549670,5.36854635,28.86966306
3.00411990,-1.17721760,-0.33026278

>  <Name>
ligand

>  <RI>
0

>  <Rbt.Current_Directory>
/home/itssahil/PROJECTS/Mol_Feturizer/Test_systems_manuscript/rnas/3slm

>  <Rbt.Executable>
rbdock ($Id: //depot/dev/client3/rdock/2013.1/src/exe/rbdock.cxx#4 $)

>  <Rbt.Library>
libRbt.so (2013.1, Build901 2013/11/27)

>  <Rbt.Parameter_File>
/export/apps/rDock/src/rDock_2013.1_src/data/scripts/dock_solv.prm

>  <Rbt.Receptor>
prm/blind_docking_80.prm

>  <SCORE>
-22.1559

>  <SCORE.INTER>
-17.5879

>  <SCORE.INTER.CONST>
1

>  <SCORE.INTER.POLAR>
0

>  <SCORE.INTER.ROT>
4

>  <SCORE.INTER.SOLV>
12.1415

>  <SCORE.INTER.VDW>
-22.0391

>  <SCORE.INTER.norm>
-0.764692

>  <SCORE.INTRA>
-4.56803

>  <SCORE.INTRA.DIHEDRAL>
-6.54535

>  <SCORE.INTRA.DIHEDRAL.0>
8.62657

>  <SCORE.INTRA.POLAR>
0

>  <SCORE.INTRA.POLAR.0>
0

>  <SCORE.INTRA.REPUL>
0

>  <SCORE.INTRA.REPUL.0>
0

>  <SCORE.INTRA.SOLV>
-0.683544

>  <SCORE.INTRA.SOLV.lig_0>
-66.3641

>  <SCORE.INTRA.VDW>
-0.953579

>  <SCORE.INTRA.VDW.0>
0.452231

>  <SCORE.INTRA.norm>
-0.19861

>  <SCORE.RESTR>
0

>  <SCORE.RESTR.CAVITY>
0

>  <SCORE.RESTR.norm>
0

>  <SCORE.SYSTEM>
0

>  <SCORE.SYSTEM.CONST>
0

>  <SCORE.SYSTEM.DIHEDRAL>
0

>  <SCORE.SYSTEM.SOLV>
0

>  <SCORE.SYSTEM.norm>
0

>  <SCORE.heavy>
23

>  <SCORE.norm>
-0.963302

>  <RMSD>
16.972

$$$$
ligand
 OpenBabel02271912143D
libRbt.so/2013.1/901 2013/11/27
 23 25  0  0  0  0  0  0  0  0999 V2000
    3.5562    4.5660   27.1520 P   0  0  1  0  0  0  0  0  0  0  0  0
    5.3073    6.3127   28.0110 C   0  0  0  0  0  0  0  0  0  0  0  0
    3.9737    5.8252   28.0621 O   0  0  0  0  0  0  0  0  0  0  0  0
    5.4122    7.4437   29.0090 C   0  0  1  0  0  0  0  0  0  0  0  0
    5.2394    6.9925   30.3520 O   0  0  0  0  0  0  0  0  0  0  0  0
    6.7899    8.0756   28.9035 C   0  0  1  0  0  0  0  0  0  0  0  0
    6.6250    9.5033   28.8534 O   0  0  0  0  0  0  0  0  0  0  0  0
    7.5340    7.6270   30.1551 C   0  0  0  0  0  0  0  0  0  0  0  0
    6.4278    7.2143   31.1224 C   0  0  2  0  0  0  0  0  0  0  0  0
    4.7775    3.4267   34.1986 N   0  0  0  0  0  0  0  0  0  0  0  0
    4.1319    4.5528   33.8538 C   0  0  2  0  0  0  0  0  0  0  0  0
    2.8873    4.7444   34.3496 N   0  0  0  0  0  0  0  0  0  0  0  0
    4.7050    5.4619   33.0287 N   0  0  0  0  0  0  0  0  0  0  0  0
    5.9442    5.2365   32.5455 C   0  0  2  0  0  0  0  0  0  0  0  0
    6.6209    4.0869   32.8914 C   0  0  1  0  0  0  0  0  0  0  0  0
    6.0118    3.1711   33.7282 C   0  0  0  0  0  0  0  0  0  0  0  0
    6.6060    2.1192   34.0488 O   0  0  0  0  0  0  0  0  0  0  0  0
    7.8251    4.1124   32.2869 N   0  0  0  0  0  0  0  0  0  0  0  0
    7.8913    5.2511   31.5747 C   0  0  0  0  0  0  0  0  0  0  0  0
    6.7507    5.9277   31.7481 N   0  0  1  0  0  0  0  0  0  0  0  0
    4.2848    4.7103   25.8381 O   0  0  0  0  0  0  0  0  0  0  0  0
    3.9789    3.3683   27.9712 O   0  5  0  0  0  0  0  0  0  0  0  0
    2.0646    4.7247   27.0320 O   0  0  0  0  0  0  0  0  0  0  0  0
  1  3  1  1  0  0  0
  1 21  1  0  0  0  0
  1 22  1  0  0  0  0
  1 23  2  0  0  0  0
  2  3  1  0  0  0  0
  4  2  1  6  0  0  0
  4  5  1  0  0  0  0
  4  6  1  0  0  0  0
  6  7  1  1  0  0  0
  6  8  1  0  0  0  0
  8  9  1  0  0  0  0
  9  5  1  6  0  0  0
  9 20  1  0  0  0  0
 10 11  1  0  0  0  0
 10 16  1  0  0  0  0
 11 12  1  6  0  0  0
 11 13  1  0  0  0  0
 14 13  1  1  0  0  0
 14 15  1  0  0  0  0
 14 20  1  0  0  0  0
 15 16  1  6  0  0  0
 15 18  1  0  0  0  0
 16 17  2  0  0  0  0
 18 19  1  0  0  0  0
 20 19  1  6  0  0  0
M  CHG  1  22  -1
M  END
>  <CHROM.1>
-37.45464027,65.40749088,-177.42401465,-57.50201066,5.29768602,5.37440985
30.41736575,1.92439244,-0.84060151,-1.04318293

>  <Name>
ligand

>  <RI>
0

>  <Rbt.Current_Directory>
/home/itssahil/PROJECTS/Mol_Feturizer/Test_systems_manuscript/rnas/3slm

>  <Rbt.Executable>
rbdock ($Id: //depot/dev/client3/rdock/2013.1/src/exe/rbdock.cxx#4 $)

>  <Rbt.Library>
libRbt.so (2013.1, Build901 2013/11/27)

>  <Rbt.Parameter_File>
/export/apps/rDock/src/rDock_2013.1_src/data/scripts/dock_solv.prm

>  <Rbt.Receptor>
prm/blind_docking_100.prm

>  <SCORE>
-21.2318

>  <SCORE.INTER>
-16.8753

>  <SCORE.INTER.CONST>
1

>  <SCORE.INTER.POLAR>
0

>  <SCORE.INTER.ROT>
4

>  <SCORE.INTER.SOLV>
12.9911

>  <SCORE.INTER.VDW>
-21.8472

>  <SCORE.INTER.norm>
-0.733709

>  <SCORE.INTRA>
-4.3625

>  <SCORE.INTRA.DIHEDRAL>
-6.50763

>  <SCORE.INTRA.DIHEDRAL.0>
8.62657

>  <SCORE.INTRA.POLAR>
0

>  <SCORE.INTRA.POLAR.0>
0

>  <SCORE.INTRA.REPUL>
0

>  <SCORE.INTRA.REPUL.0>
0

>  <SCORE.INTRA.SOLV>
-0.808756

>  <SCORE.INTRA.SOLV.lig_0>
-66.3641

>  <SCORE.INTRA.VDW>
-0.70431

>  <SCORE.INTRA.VDW.0>
0.452231

>  <SCORE.INTRA.norm>
-0.189674

>  <SCORE.RESTR>
0.00604244

>  <SCORE.RESTR.CAVITY>
0.00604244

>  <SCORE.RESTR.norm>
0.000262715

>  <SCORE.SYSTEM>
0

>  <SCORE.SYSTEM.CONST>
0

>  <SCORE.SYSTEM.DIHEDRAL>
0

>  <SCORE.SYSTEM.SOLV>
0

>  <SCORE.SYSTEM.norm>
0

>  <SCORE.heavy>
23

>  <SCORE.norm>
-0.92312

>  <RMSD>
16.979

$$$$
ligand
 OpenBabel02271912143D
libRbt.so/2013.1/901 2013/11/27
 23 25  0  0  0  0  0  0  0  0999 V2000
    8.3251   10.7304   29.1815 P   0  0  1  0  0  0  0  0  0  0  0  0
    6.6711    8.7295   28.8408 C   0  0  0  0  0  0  0  0  0  0  0  0
    7.4756    9.7369   28.2436 O   0  0  0  0  0  0  0  0  0  0  0  0
    6.1841    7.8251   27.7312 C   0  0  1  0  0  0  0  0  0  0  0  0
    6.0493    6.4712   28.1621 O   0  0  0  0  0  0  0  0  0  0  0  0
    4.8202    8.3024   27.2615 C   0  0  1  0  0  0  0  0  0  0  0  0
    4.8326    8.3481   25.8242 O   0  0  0  0  0  0  0  0  0  0  0  0
    3.8298    7.2748   27.7949 C   0  0  0  0  0  0  0  0  0  0  0  0
    4.6839    6.0422   28.0797 C   0  0  2  0  0  0  0  0  0  0  0  0
    2.5863    2.1003   30.6474 N   0  0  0  0  0  0  0  0  0  0  0  0
    2.6880    2.2609   29.3179 C   0  0  2  0  0  0  0  0  0  0  0  0
    2.1982    1.2805   28.5239 N   0  0  0  0  0  0  0  0  0  0  0  0
    3.2708    3.3643   28.7901 N   0  0  0  0  0  0  0  0  0  0  0  0
    3.7560    4.3194   29.6099 C   0  0  2  0  0  0  0  0  0  0  0  0
    3.6577    4.1706   30.9764 C   0  0  1  0  0  0  0  0  0  0  0  0
    3.0660    3.0325   31.4906 C   0  0  0  0  0  0  0  0  0  0  0  0
    2.9729    2.8754   32.7271 O   0  0  0  0  0  0  0  0  0  0  0  0
    4.2058    5.2569   31.5559 N   0  0  0  0  0  0  0  0  0  0  0  0
    4.6418    6.0598   30.5693 C   0  0  0  0  0  0  0  0  0  0  0  0
    4.3541    5.4859   29.3960 N   0  0  1  0  0  0  0  0  0  0  0  0
    9.5225   11.1783   28.3793 O   0  0  0  0  0  0  0  0  0  0  0  0
    7.3508   11.8358   29.5178 O   0  5  0  0  0  0  0  0  0  0  0  0
    8.6805    9.8558   30.3534 O   0  0  0  0  0  0  0  0  0  0  0  0
  1  3  1  6  0  0  0
  1 21  1  0  0  0  0
  1 22  1  0  0  0  0
  1 23  2  0  0  0  0
  2  3  1  0  0  0  0
  4  2  1  1  0  0  0
  4  5  1  0  0  0  0
  4  6  1  0  0  0  0
  6  7  1  6  0  0  0
  6  8  1  0  0  0  0
  8  9  1  0  0  0  0
  9  5  1  1  0  0  0
  9 20  1  0  0  0  0
 10 11  1  0  0  0  0
 10 16  1  0  0  0  0
 11 12  1  1  0  0  0
 11 13  1  0  0  0  0
 14 13  1  6  0  0  0
 14 15  1  0  0  0  0
 14 20  1  0  0  0  0
 15 16  1  1  0  0  0
 15 18  1  0  0  0  0
 16 17  2  0  0  0  0
 18 19  1  0  0  0  0
 20 19  1  1  0  0  0
M  CHG  1  22  -1
M  END
>  <CHROM.1>
152.60152340,146.89727365,-170.89059911,-131.82150144,5.30958225,6.74239244
29.22673072,-0.46716004,0.91695695,1.93739181

>  <Name>
ligand

>  <RI>
0

>  <Rbt.Current_Directory>
/home/itssahil/PROJECTS/Mol_Feturizer/Test_systems_manuscript/rnas/3slm

>  <Rbt.Executable>
rbdock ($Id: //depot/dev/client3/rdock/2013.1/src/exe/rbdock.cxx#4 $)

>  <Rbt.Library>
libRbt.so (2013.1, Build901 2013/11/27)

>  <Rbt.Parameter_File>
/export/apps/rDock/src/rDock_2013.1_src/data/scripts/dock_solv.prm

>  <Rbt.Receptor>
prm/blind_docking_60.prm

>  <SCORE>
-17.6448

>  <SCORE.INTER>
-14.7477

>  <SCORE.INTER.CONST>
1

>  <SCORE.INTER.POLAR>
0

>  <SCORE.INTER.ROT>
4

>  <SCORE.INTER.SOLV>
20.0405

>  <SCORE.INTER.VDW>
-22.7786

>  <SCORE.INTER.norm>
-0.641204

>  <SCORE.INTRA>
-2.89709

>  <SCORE.INTRA.DIHEDRAL>
-2.92097

>  <SCORE.INTRA.DIHEDRAL.0>
8.62657

>  <SCORE.INTRA.POLAR>
0

>  <SCORE.INTRA.POLAR.0>
0

>  <SCORE.INTRA.REPUL>
0

>  <SCORE.INTRA.REPUL.0>
0

>  <SCORE.INTRA.SOLV>
-0.0923477

>  <SCORE.INTRA.SOLV.lig_0>
-66.3641

>  <SCORE.INTRA.VDW>
-1.39044

>  <SCORE.INTRA.VDW.0>
0.452231

>  <SCORE.INTRA.norm>
-0.125961

>  <SCORE.RESTR>
0

>  <SCORE.RESTR.CAVITY>
0

>  <SCORE.RESTR.norm>
0

>  <SCORE.SYSTEM>
0

>  <SCORE.SYSTEM.CONST>
0

>  <SCORE.SYSTEM.DIHEDRAL>
0

>  <SCORE.SYSTEM.SOLV>
0

>  <SCORE.SYSTEM.norm>
0

>  <SCORE.heavy>
23

>  <SCORE.norm>
-0.767164

>  <RMSD>
17.011

$$$$
ligand
 OpenBabel02271912143D
libRbt.so/2013.1/901 2013/11/27
 23 25  0  0  0  0  0  0  0  0999 V2000
    5.2493    7.6457   26.6065 P   0  0  1  0  0  0  0  0  0  0  0  0
    5.5367    7.0451   29.1387 C   0  0  0  0  0  0  0  0  0  0  0  0
    6.0054    7.7848   28.0197 O   0  0  0  0  0  0  0  0  0  0  0  0
    6.0884    7.7085   30.3804 C   0  0  1  0  0  0  0  0  0  0  0  0
    5.5875    7.1113   31.5759 O   0  0  0  0  0  0  0  0  0  0  0  0
    7.6015    7.5701   30.3892 C   0  0  1  0  0  0  0  0  0  0  0  0
    8.1668    8.8560   30.6972 O   0  0  0  0  0  0  0  0  0  0  0  0
    7.9037    6.5367   31.4671 C   0  0  0  0  0  0  0  0  0  0  0  0
    6.6505    6.5249   32.3384 C   0  0  2  0  0  0  0  0  0  0  0  0
    2.7024    3.2310   32.6467 N   0  0  0  0  0  0  0  0  0  0  0  0
    2.6655    4.5413   32.3542 C   0  0  2  0  0  0  0  0  0  0  0  0
    1.4593    5.0964   32.0928 N   0  0  0  0  0  0  0  0  0  0  0  0
    3.8005    5.2802   32.3131 N   0  0  0  0  0  0  0  0  0  0  0  0
    4.9878    4.6941   32.5711 C   0  0  2  0  0  0  0  0  0  0  0  0
    5.0425    3.3510   32.8748 C   0  0  1  0  0  0  0  0  0  0  0  0
    3.8719    2.6171   32.9028 C   0  0  0  0  0  0  0  0  0  0  0  0
    3.9007    1.3963   33.1697 O   0  0  0  0  0  0  0  0  0  0  0  0
    6.3314    3.0241   33.0947 N   0  0  0  0  0  0  0  0  0  0  0  0
    7.0621    4.1399   32.9238 C   0  0  0  0  0  0  0  0  0  0  0  0
    6.2359    5.1461   32.6175 N   0  0  1  0  0  0  0  0  0  0  0  0
    3.9219    8.3505   26.7450 O   0  0  0  0  0  0  0  0  0  0  0  0
    6.1975    8.2896   25.6213 O   0  5  0  0  0  0  0  0  0  0  0  0
    5.1236    6.1550   26.4439 O   0  0  0  0  0  0  0  0  0  0  0  0
  1  3  1  1  0  0  0
  1 21  1  0  0  0  0
  1 22  1  0  0  0  0
  1 23  2  0  0  0  0
  2  3  1  0  0  0  0
  4  2  1  6  0  0  0
  4  5  1  0  0  0  0
  4  6  1  0  0  0  0
  6  7  1  1  0  0  0
  6  8  1  0  0  0  0
  8  9  1  0  0  0  0
  9  5  1  6  0  0  0
  9 20  1  0  0  0  0
 10 11  1  0  0  0  0
 10 16  1  0  0  0  0
 11 12  1  6  0  0  0
 11 13  1  0  0  0  0
 14 13  1  1  0  0  0
 14 15  1  0  0  0  0
 14 20  1  0  0  0  0
 15 16  1  6  0  0  0
 15 18  1  0  0  0  0
 16 17  2  0  0  0  0
 18 19  1  0  0  0  0
 20 19  1  6  0  0  0
M  CHG  1  22  -1
M  END
>  <CHROM.1>
71.58361672,175.09932702,-160.65903369,-20.08766307,5.32008467,5.92536389
30.47822720,1.35042395,-0.51467080,-1.02119922

>  <Name>
ligand

>  <RI>
0

>  <Rbt.Current_Directory>
/home/itssahil/PROJECTS/Mol_Feturizer/Test_systems_manuscript/rnas/3slm

>  <Rbt.Executable>
rbdock ($Id: //depot/dev/client3/rdock/2013.1/src/exe/rbdock.cxx#4 $)

>  <Rbt.Library>
libRbt.so (2013.1, Build901 2013/11/27)

>  <Rbt.Parameter_File>
/export/apps/rDock/src/rDock_2013.1_src/data/scripts/dock_solv.prm

>  <Rbt.Receptor>
prm/blind_docking_40.prm

>  <SCORE>
-19.7993

>  <SCORE.INTER>
-16.0045

>  <SCORE.INTER.CONST>
1

>  <SCORE.INTER.POLAR>
0

>  <SCORE.INTER.ROT>
4

>  <SCORE.INTER.SOLV>
17.7866

>  <SCORE.INTER.VDW>
-22.8652

>  <SCORE.INTER.norm>
-0.695849

>  <SCORE.INTRA>
-3.79848

>  <SCORE.INTRA.DIHEDRAL>
-5.36069

>  <SCORE.INTRA.DIHEDRAL.0>
8.62657

>  <SCORE.INTRA.POLAR>
0

>  <SCORE.INTRA.POLAR.0>
0

>  <SCORE.INTRA.REPUL>
0

>  <SCORE.INTRA.REPUL.0>
0

>  <SCORE.INTRA.SOLV>
-0.44231

>  <SCORE.INTRA.SOLV.lig_0>
-66.3641

>  <SCORE.INTRA.VDW>
-0.896983

>  <SCORE.INTRA.VDW.0>
0.452231

>  <SCORE.INTRA.norm>
-0.165151

>  <SCORE.RESTR>
0.00367055

>  <SCORE.RESTR.CAVITY>
0.00367055

>  <SCORE.RESTR.norm>
0.000159589

>  <SCORE.SYSTEM>
0

>  <SCORE.SYSTEM.CONST>
0

>  <SCORE.SYSTEM.DIHEDRAL>
0

>  <SCORE.SYSTEM.SOLV>
0

>  <SCORE.SYSTEM.norm>
0

>  <SCORE.heavy>
23

>  <SCORE.norm>
-0.860841

>  <RMSD>
17.012

$$$$
ligand
 OpenBabel02271912143D
libRbt.so/2013.1/901 2013/11/27
 23 25  0  0  0  0  0  0  0  0999 V2000
    5.8006    7.9226   24.8753 P   0  0  1  0  0  0  0  0  0  0  0  0
    4.6580    7.5085   27.1944 C   0  0  0  0  0  0  0  0  0  0  0  0
    5.5825    8.2707   26.4308 O   0  0  0  0  0  0  0  0  0  0  0  0
    4.8290    7.9112   28.6419 C   0  0  1  0  0  0  0  0  0  0  0  0
    3.9529    7.1896   29.5070 O   0  0  0  0  0  0  0  0  0  0  0  0
    6.2558    7.6196   29.0752 C   0  0  1  0  0  0  0  0  0  0  0  0
    6.7603    8.7777   29.7626 O   0  0  0  0  0  0  0  0  0  0  0  0
    6.1571    6.4060   29.9909 C   0  0  0  0  0  0  0  0  0  0  0  0
    4.6964    6.3867   30.4332 C   0  0  2  0  0  0  0  0  0  0  0  0
    3.1266    2.6563   27.2470 N   0  0  0  0  0  0  0  0  0  0  0  0
    3.5855    3.8775   26.9282 C   0  0  2  0  0  0  0  0  0  0  0  0
    3.6688    4.1983   25.6160 N   0  0  0  0  0  0  0  0  0  0  0  0
    3.9618    4.7553   27.8893 N   0  0  0  0  0  0  0  0  0  0  0  0
    3.8736    4.4010   29.1879 C   0  0  2  0  0  0  0  0  0  0  0  0
    3.4028    3.1523   29.5318 C   0  0  1  0  0  0  0  0  0  0  0  0
    3.0327    2.2719   28.5329 C   0  0  0  0  0  0  0  0  0  0  0  0
    2.6094    1.1323   28.8236 O   0  0  0  0  0  0  0  0  0  0  0  0
    3.4087    3.0587   30.8762 N   0  0  0  0  0  0  0  0  0  0  0  0
    3.8803    4.2229   31.3564 C   0  0  0  0  0  0  0  0  0  0  0  0
    4.1481    5.0308   30.3247 N   0  0  1  0  0  0  0  0  0  0  0  0
    5.5401    6.4448   24.7131 O   0  0  0  0  0  0  0  0  0  0  0  0
    4.8101    8.8127   24.1606 O   0  5  0  0  0  0  0  0  0  0  0  0
    7.2377    8.3074   24.6487 O   0  0  0  0  0  0  0  0  0  0  0  0
  1  3  1  1  0  0  0
  1 21  1  0  0  0  0
  1 22  1  0  0  0  0
  1 23  2  0  0  0  0
  2  3  1  0  0  0  0
  4  2  1  6  0  0  0
  4  5  1  0  0  0  0
  4  6  1  0  0  0  0
  6  7  1  1  0  0  0
  6  8  1  0  0  0  0
  8  9  1  0  0  0  0
  9  5  1  6  0  0  0
  9 20  1  0  0  0  0
 10 11  1  0  0  0  0
 10 16  1  0  0  0  0
 11 12  1  6  0  0  0
 11 13  1  0  0  0  0
 14 13  1  1  0  0  0
 14 15  1  0  0  0  0
 14 20  1  0  0  0  0
 15 16  1  6  0  0  0
 15 18  1  0  0  0  0
 16 17  2  0  0  0  0
 18 19  1  0  0  0  0
 20 19  1  6  0  0  0
M  CHG  1  22  -1
M  END
>  <CHROM.1>
-29.66001633,-179.29980952,171.13893168,44.97088964,4.67621818,5.87966315
27.82504364,0.63003514,-1.10182555,-1.54507463

>  <Name>
ligand

>  <RI>
0

>  <Rbt.Current_Directory>
/home/itssahil/PROJECTS/Mol_Feturizer/Test_systems_manuscript/rnas/3slm

>  <Rbt.Executable>
rbdock ($Id: //depot/dev/client3/rdock/2013.1/src/exe/rbdock.cxx#4 $)

>  <Rbt.Library>
libRbt.so (2013.1, Build901 2013/11/27)

>  <Rbt.Parameter_File>
/export/apps/rDock/src/rDock_2013.1_src/data/scripts/dock_solv.prm

>  <Rbt.Receptor>
prm/blind_docking_40.prm

>  <SCORE>
-17.706

>  <SCORE.INTER>
-13.4268

>  <SCORE.INTER.CONST>
1

>  <SCORE.INTER.POLAR>
0

>  <SCORE.INTER.ROT>
4

>  <SCORE.INTER.SOLV>
20.4214

>  <SCORE.INTER.VDW>
-22.025

>  <SCORE.INTER.norm>
-0.583774

>  <SCORE.INTRA>
-4.27915

>  <SCORE.INTRA.DIHEDRAL>
-5.8321

>  <SCORE.INTRA.DIHEDRAL.0>
8.62657

>  <SCORE.INTRA.POLAR>
0

>  <SCORE.INTRA.POLAR.0>
0

>  <SCORE.INTRA.REPUL>
0

>  <SCORE.INTRA.REPUL.0>
0

>  <SCORE.INTRA.SOLV>
1.98631

>  <SCORE.INTRA.SOLV.lig_0>
-66.3641

>  <SCORE.INTRA.VDW>
-2.35626

>  <SCORE.INTRA.VDW.0>
0.452231

>  <SCORE.INTRA.norm>
-0.18605

>  <SCORE.RESTR>
0

>  <SCORE.RESTR.CAVITY>
0

>  <SCORE.RESTR.norm>
0

>  <SCORE.SYSTEM>
0

>  <SCORE.SYSTEM.CONST>
0

>  <SCORE.SYSTEM.DIHEDRAL>
0

>  <SCORE.SYSTEM.SOLV>
0

>  <SCORE.SYSTEM.norm>
0

>  <SCORE.heavy>
23

>  <SCORE.norm>
-0.769825

>  <RMSD>
17.031

$$$$
ligand
 OpenBabel02271912143D
libRbt.so/2013.1/901 2013/11/27
 23 25  0  0  0  0  0  0  0  0999 V2000
    2.0766    5.3686   29.1521 P   0  0  1  0  0  0  0  0  0  0  0  0
    3.5365    6.4028   31.0638 C   0  0  0  0  0  0  0  0  0  0  0  0
    3.0804    6.4898   29.7210 O   0  0  0  0  0  0  0  0  0  0  0  0
    4.6743    5.4072   31.0896 C   0  0  1  0  0  0  0  0  0  0  0  0
    5.7514    5.8007   30.2399 O   0  0  0  0  0  0  0  0  0  0  0  0
    5.2130    5.3024   32.5064 C   0  0  1  0  0  0  0  0  0  0  0  0
    5.3458    3.9081   32.8328 O   0  0  0  0  0  0  0  0  0  0  0  0
    6.5587    6.0162   32.4779 C   0  0  0  0  0  0  0  0  0  0  0  0
    6.9437    6.0337   31.0010 C   0  0  2  0  0  0  0  0  0  0  0  0
    6.7320    9.7841   27.4767 N   0  0  0  0  0  0  0  0  0  0  0  0
    6.1079    8.5951   27.4576 C   0  0  2  0  0  0  0  0  0  0  0  0
    5.3083    8.3182   26.4015 N   0  0  0  0  0  0  0  0  0  0  0  0
    6.2668    7.7064   28.4680 N   0  0  0  0  0  0  0  0  0  0  0  0
    7.0650    8.0169   29.5102 C   0  0  2  0  0  0  0  0  0  0  0  0
    7.7141    9.2321   29.5438 C   0  0  1  0  0  0  0  0  0  0  0  0
    7.5298   10.1247   28.5051 C   0  0  0  0  0  0  0  0  0  0  0  0
    8.1044   11.2347   28.5197 O   0  0  0  0  0  0  0  0  0  0  0  0
    8.4443    9.2851   30.6754 N   0  0  0  0  0  0  0  0  0  0  0  0
    8.2465    8.1294   31.3338 C   0  0  0  0  0  0  0  0  0  0  0  0
    7.4180    7.3661   30.6129 N   0  0  1  0  0  0  0  0  0  0  0  0
    0.8290    5.4224   29.9999 O   0  0  0  0  0  0  0  0  0  0  0  0
    1.8674    5.7656   27.7089 O   0  5  0  0  0  0  0  0  0  0  0  0
    2.8660    4.0993   29.3254 O   0  0  0  0  0  0  0  0  0  0  0  0
  1  3  1  1  0  0  0
  1 21  1  0  0  0  0
  1 22  1  0  0  0  0
  1 23  2  0  0  0  0
  2  3  1  0  0  0  0
  4  2  1  1  0  0  0
  4  5  1  0  0  0  0
  4  6  1  0  0  0  0
  6  7  1  6  0  0  0
  6  8  1  0  0  0  0
  8  9  1  0  0  0  0
  9  5  1  6  0  0  0
  9 20  1  0  0  0  0
 10 11  1  0  0  0  0
 10 16  1  0  0  0  0
 11 12  1  1  0  0  0
 11 13  1  0  0  0  0
 14 13  1  6  0  0  0
 14 15  1  0  0  0  0
 14 20  1  0  0  0  0
 15 16  1  1  0  0  0
 15 18  1  0  0  0  0
 16 17  2  0  0  0  0
 18 19  1  0  0  0  0
 20 19  1  1  0  0  0
M  CHG  1  22  -1
M  END
>  <CHROM.1>
60.72982989,59.46171970,81.01582652,-18.77014138,5.26061773,6.95641663,29.77608890
2.61235331,0.51023200,2.24234866

>  <Name>
ligand

>  <RI>
0

>  <Rbt.Current_Directory>
/home/itssahil/PROJECTS/Mol_Feturizer/Test_systems_manuscript/rnas/3slm

>  <Rbt.Executable>
rbdock ($Id: //depot/dev/client3/rdock/2013.1/src/exe/rbdock.cxx#4 $)

>  <Rbt.Library>
libRbt.so (2013.1, Build901 2013/11/27)

>  <Rbt.Parameter_File>
/export/apps/rDock/src/rDock_2013.1_src/data/scripts/dock_solv.prm

>  <Rbt.Receptor>
prm/blind_docking_40.prm

>  <SCORE>
-20.5987

>  <SCORE.INTER>
-17.2304

>  <SCORE.INTER.CONST>
1

>  <SCORE.INTER.POLAR>
0

>  <SCORE.INTER.ROT>
4

>  <SCORE.INTER.SOLV>
15.6219

>  <SCORE.INTER.VDW>
-22.9609

>  <SCORE.INTER.norm>
-0.74915

>  <SCORE.INTRA>
-3.36829

>  <SCORE.INTRA.DIHEDRAL>
-5.40308

>  <SCORE.INTRA.DIHEDRAL.0>
8.62657

>  <SCORE.INTRA.POLAR>
0

>  <SCORE.INTRA.POLAR.0>
0

>  <SCORE.INTRA.REPUL>
0

>  <SCORE.INTRA.REPUL.0>
0

>  <SCORE.INTRA.SOLV>
1.55374

>  <SCORE.INTRA.SOLV.lig_0>
-66.3641

>  <SCORE.INTRA.VDW>
-1.44362

>  <SCORE.INTRA.VDW.0>
0.452231

>  <SCORE.INTRA.norm>
-0.146447

>  <SCORE.RESTR>
0

>  <SCORE.RESTR.CAVITY>
0

>  <SCORE.RESTR.norm>
0

>  <SCORE.SYSTEM>
0

>  <SCORE.SYSTEM.CONST>
0

>  <SCORE.SYSTEM.DIHEDRAL>
0

>  <SCORE.SYSTEM.SOLV>
0

>  <SCORE.SYSTEM.norm>
0

>  <SCORE.heavy>
23

>  <SCORE.norm>
-0.895597

>  <RMSD>
17.034

$$$$
ligand
 OpenBabel02271912143D
libRbt.so/2013.1/901 2013/11/27
 23 25  0  0  0  0  0  0  0  0999 V2000
    3.3499    5.2197   33.2129 P   0  0  1  0  0  0  0  0  0  0  0  0
    3.9425    5.4117   30.6698 C   0  0  0  0  0  0  0  0  0  0  0  0
    3.2719    5.9693   31.7915 O   0  0  0  0  0  0  0  0  0  0  0  0
    3.6522    6.3024   29.4828 C   0  0  1  0  0  0  0  0  0  0  0  0
    4.2031    7.6090   29.6446 O   0  0  0  0  0  0  0  0  0  0  0  0
    4.2676    5.6885   28.2366 C   0  0  1  0  0  0  0  0  0  0  0  0
    3.2797    5.7117   27.1918 O   0  0  0  0  0  0  0  0  0  0  0  0
    5.4702    6.5648   27.9095 C   0  0  0  0  0  0  0  0  0  0  0  0
    5.1897    7.8757   28.6393 C   0  0  2  0  0  0  0  0  0  0  0  0
    9.1528   11.1657   28.6900 N   0  0  0  0  0  0  0  0  0  0  0  0
    8.1924   11.0419   27.7594 C   0  0  2  0  0  0  0  0  0  0  0  0
    8.2341   11.8753   26.6939 N   0  0  0  0  0  0  0  0  0  0  0  0
    7.2090   10.1189   27.8888 N   0  0  0  0  0  0  0  0  0  0  0  0
    7.1921    9.3088   28.9673 C   0  0  2  0  0  0  0  0  0  0  0  0
    8.1715    9.4217   29.9302 C   0  0  1  0  0  0  0  0  0  0  0  0
    9.1594   10.3762   29.7794 C   0  0  0  0  0  0  0  0  0  0  0  0
   10.0530   10.4991   30.6447 O   0  0  0  0  0  0  0  0  0  0  0  0
    7.9284    8.5011   30.8840 N   0  0  0  0  0  0  0  0  0  0  0  0
    6.8168    7.8355   30.5238 C   0  0  0  0  0  0  0  0  0  0  0  0
    6.3868    8.3268   29.3565 N   0  0  1  0  0  0  0  0  0  0  0  0
    2.8124    3.8246   33.0061 O   0  0  0  0  0  0  0  0  0  0  0  0
    4.8164    5.2758   33.5741 O   0  5  0  0  0  0  0  0  0  0  0  0
    2.4751    6.0768   34.0873 O   0  0  0  0  0  0  0  0  0  0  0  0
  1  3  1  6  0  0  0
  1 21  1  0  0  0  0
  1 22  1  0  0  0  0
  1 23  2  0  0  0  0
  2  3  1  0  0  0  0
  4  2  1  1  0  0  0
  4  5  1  0  0  0  0
  4  6  1  0  0  0  0
  6  7  1  6  0  0  0
  6  8  1  0  0  0  0
  8  9  1  0  0  0  0
  9  5  1  1  0  0  0
  9 20  1  0  0  0  0
 10 11  1  0  0  0  0
 10 16  1  0  0  0  0
 11 12  1  1  0  0  0
 11 13  1  0  0  0  0
 14 13  1  6  0  0  0
 14 15  1  0  0  0  0
 14 20  1  0  0  0  0
 15 16  1  1  0  0  0
 15 18  1  0  0  0  0
 16 17  2  0  0  0  0
 18 19  1  0  0  0  0
 20 19  1  1  0  0  0
M  CHG  1  22  -1
M  END
>  <CHROM.1>
-57.57011183,64.64880695,178.16431262,-140.01257773,5.64679538,7.59694994
30.18770551,-2.53844274,-0.70626039,-1.36890482

>  <Name>
ligand

>  <RI>
0

>  <Rbt.Current_Directory>
/home/itssahil/PROJECTS/Mol_Feturizer/Test_systems_manuscript/rnas/3slm

>  <Rbt.Executable>
rbdock ($Id: //depot/dev/client3/rdock/2013.1/src/exe/rbdock.cxx#4 $)

>  <Rbt.Library>
libRbt.so (2013.1, Build901 2013/11/27)

>  <Rbt.Parameter_File>
/export/apps/rDock/src/rDock_2013.1_src/data/scripts/dock_solv.prm

>  <Rbt.Receptor>
prm/blind_docking_100.prm

>  <SCORE>
-20.4665

>  <SCORE.INTER>
-14.4567

>  <SCORE.INTER.CONST>
1

>  <SCORE.INTER.POLAR>
0

>  <SCORE.INTER.ROT>
4

>  <SCORE.INTER.SOLV>
16.9868

>  <SCORE.INTER.VDW>
-21.5667

>  <SCORE.INTER.norm>
-0.628552

>  <SCORE.INTRA>
-6.0098

>  <SCORE.INTRA.DIHEDRAL>
-7.26342

>  <SCORE.INTRA.DIHEDRAL.0>
8.62657

>  <SCORE.INTRA.POLAR>
0

>  <SCORE.INTRA.POLAR.0>
0

>  <SCORE.INTRA.REPUL>
0

>  <SCORE.INTRA.REPUL.0>
0

>  <SCORE.INTRA.SOLV>
-0.727818

>  <SCORE.INTRA.SOLV.lig_0>
-66.3641

>  <SCORE.INTRA.VDW>
-2.01418

>  <SCORE.INTRA.VDW.0>
0.452231

>  <SCORE.INTRA.norm>
-0.261295

>  <SCORE.RESTR>
0

>  <SCORE.RESTR.CAVITY>
0

>  <SCORE.RESTR.norm>
0

>  <SCORE.SYSTEM>
0

>  <SCORE.SYSTEM.CONST>
0

>  <SCORE.SYSTEM.DIHEDRAL>
0

>  <SCORE.SYSTEM.SOLV>
0

>  <SCORE.SYSTEM.norm>
0

>  <SCORE.heavy>
23

>  <SCORE.norm>
-0.889847

>  <RMSD>
17.039

$$$$
ligand
 OpenBabel02271912143D
libRbt.so/2013.1/901 2013/11/27
 23 25  0  0  0  0  0  0  0  0999 V2000
    1.8048    4.3958   31.5080 P   0  0  1  0  0  0  0  0  0  0  0  0
    3.6107    6.2836   31.3336 C   0  0  0  0  0  0  0  0  0  0  0  0
    2.6052    5.6527   32.1145 O   0  0  0  0  0  0  0  0  0  0  0  0
    4.7664    5.3152   31.2195 C   0  0  1  0  0  0  0  0  0  0  0  0
    5.7610    5.7717   30.3034 O   0  0  0  0  0  0  0  0  0  0  0  0
    5.4231    5.1601   32.5809 C   0  0  1  0  0  0  0  0  0  0  0  0
    5.6104    3.7563   32.8302 O   0  0  0  0  0  0  0  0  0  0  0  0
    6.7472    5.9063   32.4751 C   0  0  0  0  0  0  0  0  0  0  0  0
    7.0076    5.9988   30.9739 C   0  0  2  0  0  0  0  0  0  0  0  0
    6.6429    9.7915   27.5078 N   0  0  0  0  0  0  0  0  0  0  0  0
    6.0755    8.5749   27.4654 C   0  0  2  0  0  0  0  0  0  0  0  0
    5.2967    8.2779   26.3992 N   0  0  0  0  0  0  0  0  0  0  0  0
    6.2694    7.6786   28.4628 N   0  0  0  0  0  0  0  0  0  0  0  0
    7.0453    8.0093   29.5155 C   0  0  2  0  0  0  0  0  0  0  0  0
    7.6362    9.2530   29.5731 C   0  0  1  0  0  0  0  0  0  0  0  0
    7.4169   10.1526   28.5473 C   0  0  0  0  0  0  0  0  0  0  0  0
    7.9385   11.2879   28.5837 O   0  0  0  0  0  0  0  0  0  0  0  0
    8.3556    9.3219   30.7107 N   0  0  0  0  0  0  0  0  0  0  0  0
    8.2081    8.1477   31.3493 C   0  0  0  0  0  0  0  0  0  0  0  0
    7.4212    7.3581   30.6104 N   0  0  1  0  0  0  0  0  0  0  0  0
    0.6556    4.1111   32.4442 O   0  0  0  0  0  0  0  0  0  0  0  0
    1.3875    4.8597   30.1314 O   0  5  0  0  0  0  0  0  0  0  0  0
    2.8502    3.3135   31.4939 O   0  0  0  0  0  0  0  0  0  0  0  0
  1  3  1  1  0  0  0
  1 21  1  0  0  0  0
  1 22  1  0  0  0  0
  1 23  2  0  0  0  0
  2  3  1  0  0  0  0
  4  2  1  1  0  0  0
  4  5  1  0  0  0  0
  4  6  1  0  0  0  0
  6  7  1  6  0  0  0
  6  8  1  0  0  0  0
  8  9  1  0  0  0  0
  9  5  1  6  0  0  0
  9 20  1  0  0  0  0
 10 11  1  0  0  0  0
 10 16  1  0  0  0  0
 11 12  1  1  0  0  0
 11 13  1  0  0  0  0
 14 13  1  6  0  0  0
 14 15  1  0  0  0  0
 14 20  1  0  0  0  0
 15 16  1  1  0  0  0
 15 18  1  0  0  0  0
 16 17  2  0  0  0  0
 18 19  1  0  0  0  0
 20 19  1  1  0  0  0
M  CHG  1  22  -1
M  END
>  <CHROM.1>
-169.86321922,172.01839771,-69.21072436,-24.37233963,5.19450067,6.66153141
30.46360777,2.34728286,0.39067636,2.24876477

>  <Name>
ligand

>  <RI>
0

>  <Rbt.Current_Directory>
/home/itssahil/PROJECTS/Mol_Feturizer/Test_systems_manuscript/rnas/3slm

>  <Rbt.Executable>
rbdock ($Id: //depot/dev/client3/rdock/2013.1/src/exe/rbdock.cxx#4 $)

>  <Rbt.Library>
libRbt.so (2013.1, Build901 2013/11/27)

>  <Rbt.Parameter_File>
/export/apps/rDock/src/rDock_2013.1_src/data/scripts/dock_solv.prm

>  <Rbt.Receptor>
prm/blind_docking_40.prm

>  <SCORE>
-18.0695

>  <SCORE.INTER>
-15.577

>  <SCORE.INTER.CONST>
1

>  <SCORE.INTER.POLAR>
0

>  <SCORE.INTER.ROT>
4

>  <SCORE.INTER.SOLV>
12.736

>  <SCORE.INTER.VDW>
-20.8967

>  <SCORE.INTER.norm>
-0.67726

>  <SCORE.INTRA>
-2.49255

>  <SCORE.INTRA.DIHEDRAL>
-6.54986

>  <SCORE.INTRA.DIHEDRAL.0>
8.62657

>  <SCORE.INTRA.POLAR>
0

>  <SCORE.INTRA.POLAR.0>
0

>  <SCORE.INTRA.REPUL>
0

>  <SCORE.INTRA.REPUL.0>
0

>  <SCORE.INTRA.SOLV>
3.51483

>  <SCORE.INTRA.SOLV.lig_0>
-66.3641

>  <SCORE.INTRA.VDW>
-0.975037

>  <SCORE.INTRA.VDW.0>
0.452231

>  <SCORE.INTRA.norm>
-0.108372

>  <SCORE.RESTR>
0

>  <SCORE.RESTR.CAVITY>
0

>  <SCORE.RESTR.norm>
0

>  <SCORE.SYSTEM>
0

>  <SCORE.SYSTEM.CONST>
0

>  <SCORE.SYSTEM.DIHEDRAL>
0

>  <SCORE.SYSTEM.SOLV>
0

>  <SCORE.SYSTEM.norm>
0

>  <SCORE.heavy>
23

>  <SCORE.norm>
-0.785632

>  <RMSD>
17.039

$$$$
ligand
 OpenBabel02271912143D
libRbt.so/2013.1/901 2013/11/27
 23 25  0  0  0  0  0  0  0  0999 V2000
    2.0605    5.3380   29.1506 P   0  0  1  0  0  0  0  0  0  0  0  0
    3.5088    6.4263   31.0409 C   0  0  0  0  0  0  0  0  0  0  0  0
    3.0796    6.4614   29.6869 O   0  0  0  0  0  0  0  0  0  0  0  0
    4.6461    5.4335   31.1274 C   0  0  1  0  0  0  0  0  0  0  0  0
    5.7450    5.8020   30.2946 O   0  0  0  0  0  0  0  0  0  0  0  0
    5.1474    5.3733   32.5605 C   0  0  1  0  0  0  0  0  0  0  0  0
    5.2723    3.9900   32.9333 O   0  0  0  0  0  0  0  0  0  0  0  0
    6.4930    6.0877   32.5453 C   0  0  0  0  0  0  0  0  0  0  0  0
    6.9168    6.0600   31.0792 C   0  0  2  0  0  0  0  0  0  0  0  0
    6.7495    9.7251   27.4638 N   0  0  0  0  0  0  0  0  0  0  0  0
    6.1198    8.5388   27.4688 C   0  0  2  0  0  0  0  0  0  0  0  0
    5.3266    8.2403   26.4136 N   0  0  0  0  0  0  0  0  0  0  0  0
    6.2668    7.6742   28.5015 N   0  0  0  0  0  0  0  0  0  0  0  0
    7.0588    8.0060   29.5419 C   0  0  2  0  0  0  0  0  0  0  0  0
    7.7135    9.2186   29.5510 C   0  0  1  0  0  0  0  0  0  0  0  0
    7.5412   10.0867   28.4897 C   0  0  0  0  0  0  0  0  0  0  0  0
    8.1210   11.1940   28.4819 O   0  0  0  0  0  0  0  0  0  0  0  0
    8.4355    9.2956   30.6864 N   0  0  0  0  0  0  0  0  0  0  0  0
    8.2272    8.1571   31.3711 C   0  0  0  0  0  0  0  0  0  0  0  0
    7.4004    7.3804   30.6626 N   0  0  1  0  0  0  0  0  0  0  0  0
    0.8108    5.4386   29.9910 O   0  0  0  0  0  0  0  0  0  0  0  0
    1.8629    5.6910   27.6944 O   0  5  0  0  0  0  0  0  0  0  0  0
    2.8295    4.0629   29.3682 O   0  0  0  0  0  0  0  0  0  0  0  0
  1  3  1  1  0  0  0
  1 21  1  0  0  0  0
  1 22  1  0  0  0  0
  1 23  2  0  0  0  0
  2  3  1  0  0  0  0
  4  2  1  1  0  0  0
  4  5  1  0  0  0  0
  4  6  1  0  0  0  0
  6  7  1  6  0  0  0
  6  8  1  0  0  0  0
  8  9  1  0  0  0  0
  9  5  1  6  0  0  0
  9 20  1  0  0  0  0
 10 11  1  0  0  0  0
 10 16  1  0  0  0  0
 11 12  1  1  0  0  0
 11 13  1  0  0  0  0
 14 13  1  6  0  0  0
 14 15  1  0  0  0  0
 14 20  1  0  0  0  0
 15 16  1  1  0  0  0
 15 18  1  0  0  0  0
 16 17  2  0  0  0  0
 18 19  1  0  0  0  0
 20 19  1  1  0  0  0
M  CHG  1  22  -1
M  END
>  <CHROM.1>
59.50275308,60.01787741,82.43033456,-17.57701313,5.24518013,6.94931778,29.79551580
2.63363310,0.52017822,2.21250361

>  <Name>
ligand

>  <RI>
0

>  <Rbt.Current_Directory>
/home/itssahil/PROJECTS/Mol_Feturizer/Test_systems_manuscript/rnas/3slm

>  <Rbt.Executable>
rbdock ($Id: //depot/dev/client3/rdock/2013.1/src/exe/rbdock.cxx#4 $)

>  <Rbt.Library>
libRbt.so (2013.1, Build901 2013/11/27)

>  <Rbt.Parameter_File>
/export/apps/rDock/src/rDock_2013.1_src/data/scripts/dock_solv.prm

>  <Rbt.Receptor>
prm/blind_docking_100.prm

>  <SCORE>
-20.4938

>  <SCORE.INTER>
-17.0968

>  <SCORE.INTER.CONST>
1

>  <SCORE.INTER.POLAR>
0

>  <SCORE.INTER.ROT>
4

>  <SCORE.INTER.SOLV>
15.3698

>  <SCORE.INTER.VDW>
-22.7878

>  <SCORE.INTER.norm>
-0.743339

>  <SCORE.INTRA>
-3.39698

>  <SCORE.INTRA.DIHEDRAL>
-5.16667

>  <SCORE.INTRA.DIHEDRAL.0>
8.62657

>  <SCORE.INTRA.POLAR>
0

>  <SCORE.INTRA.POLAR.0>
0

>  <SCORE.INTRA.REPUL>
0

>  <SCORE.INTRA.REPUL.0>
0

>  <SCORE.INTRA.SOLV>
1.44918

>  <SCORE.INTRA.SOLV.lig_0>
-66.3641

>  <SCORE.INTRA.VDW>
-1.53823

>  <SCORE.INTRA.VDW.0>
0.452231

>  <SCORE.INTRA.norm>
-0.147695

>  <SCORE.RESTR>
0

>  <SCORE.RESTR.CAVITY>
0

>  <SCORE.RESTR.norm>
0

>  <SCORE.SYSTEM>
0

>  <SCORE.SYSTEM.CONST>
0

>  <SCORE.SYSTEM.DIHEDRAL>
0

>  <SCORE.SYSTEM.SOLV>
0

>  <SCORE.SYSTEM.norm>
0

>  <SCORE.heavy>
23

>  <SCORE.norm>
-0.891034

>  <RMSD>
17.048

$$$$
ligand
 OpenBabel02271912143D
libRbt.so/2013.1/901 2013/11/27
 23 25  0  0  0  0  0  0  0  0999 V2000
    7.3432    9.5119   23.3608 P   0  0  1  0  0  0  0  0  0  0  0  0
    6.0383    7.8782   24.9367 C   0  0  0  0  0  0  0  0  0  0  0  0
    7.0904    8.8222   24.7921 O   0  0  0  0  0  0  0  0  0  0  0  0
    5.2903    8.2278   26.2034 C   0  0  1  0  0  0  0  0  0  0  0  0
    4.2297    7.3110   26.4710 O   0  0  0  0  0  0  0  0  0  0  0  0
    6.2521    8.1832   27.3788 C   0  0  1  0  0  0  0  0  0  0  0  0
    6.0615    9.3764   28.1586 O   0  0  0  0  0  0  0  0  0  0  0  0
    5.8808    6.9252   28.1538 C   0  0  0  0  0  0  0  0  0  0  0  0
    4.4571    6.6116   27.7017 C   0  0  2  0  0  0  0  0  0  0  0  0
    2.7858    2.0180   29.3255 N   0  0  0  0  0  0  0  0  0  0  0  0
    2.7383    3.1924   29.9753 C   0  0  2  0  0  0  0  0  0  0  0  0
    2.1798    3.2101   31.2079 N   0  0  0  0  0  0  0  0  0  0  0  0
    3.2252    4.3235   29.4104 N   0  0  0  0  0  0  0  0  0  0  0  0
    3.7685    4.2727   28.1767 C   0  0  2  0  0  0  0  0  0  0  0  0
    3.8266    3.0750   27.4974 C   0  0  1  0  0  0  0  0  0  0  0  0
    3.3161    1.9366   28.0917 C   0  0  0  0  0  0  0  0  0  0  0  0
    3.3532    0.8418   27.4897 O   0  0  0  0  0  0  0  0  0  0  0  0
    4.4162    3.2979   26.3063 N   0  0  0  0  0  0  0  0  0  0  0  0
    4.7113    4.6084   26.2448 C   0  0  0  0  0  0  0  0  0  0  0  0
    4.3238    5.1853   27.3875 N   0  0  1  0  0  0  0  0  0  0  0  0
    7.9004    8.4456   22.4494 O   0  0  0  0  0  0  0  0  0  0  0  0
    5.9802   10.0262   22.9585 O   0  5  0  0  0  0  0  0  0  0  0  0
    8.3312   10.5989   23.6874 O   0  0  0  0  0  0  0  0  0  0  0  0
  1  3  1  1  0  0  0
  1 21  1  0  0  0  0
  1 22  1  0  0  0  0
  1 23  2  0  0  0  0
  2  3  1  0  0  0  0
  4  2  1  6  0  0  0
  4  5  1  0  0  0  0
  4  6  1  0  0  0  0
  6  7  1  1  0  0  0
  6  8  1  0  0  0  0
  8  9  1  0  0  0  0
  9  5  1  6  0  0  0
  9 20  1  0  0  0  0
 10 11  1  0  0  0  0
 10 16  1  0  0  0  0
 11 12  1  6  0  0  0
 11 13  1  0  0  0  0
 14 13  1  1  0  0  0
 14 15  1  0  0  0  0
 14 20  1  0  0  0  0
 15 16  1  6  0  0  0
 15 18  1  0  0  0  0
 16 17  2  0  0  0  0
 18 19  1  0  0  0  0
 20 19  1  6  0  0  0
M  CHG  1  22  -1
M  END
>  <CHROM.1>
-70.47108506,-178.13909942,-134.00348821,-142.18853501,5.13783025,6.31020974
26.56257013,-0.15911970,-1.11581346,-2.38541545

>  <Name>
ligand

>  <RI>
0

>  <Rbt.Current_Directory>
/home/itssahil/PROJECTS/Mol_Feturizer/Test_systems_manuscript/rnas/3slm

>  <Rbt.Executable>
rbdock ($Id: //depot/dev/client3/rdock/2013.1/src/exe/rbdock.cxx#4 $)

>  <Rbt.Library>
libRbt.so (2013.1, Build901 2013/11/27)

>  <Rbt.Parameter_File>
/export/apps/rDock/src/rDock_2013.1_src/data/scripts/dock_solv.prm

>  <Rbt.Receptor>
prm/blind_docking_80.prm

>  <SCORE>
-17.384

>  <SCORE.INTER>
-15.2038

>  <SCORE.INTER.CONST>
1

>  <SCORE.INTER.POLAR>
0

>  <SCORE.INTER.ROT>
4

>  <SCORE.INTER.SOLV>
14.7788

>  <SCORE.INTER.VDW>
-21.3288

>  <SCORE.INTER.norm>
-0.661034

>  <SCORE.INTRA>
-2.18025

>  <SCORE.INTRA.DIHEDRAL>
-0.923782

>  <SCORE.INTRA.DIHEDRAL.0>
8.62657

>  <SCORE.INTRA.POLAR>
0

>  <SCORE.INTRA.POLAR.0>
0

>  <SCORE.INTRA.REPUL>
0

>  <SCORE.INTRA.REPUL.0>
0

>  <SCORE.INTRA.SOLV>
-0.107407

>  <SCORE.INTRA.SOLV.lig_0>
-66.3641

>  <SCORE.INTRA.VDW>
-1.66465

>  <SCORE.INTRA.VDW.0>
0.452231

>  <SCORE.INTRA.norm>
-0.0947934

>  <SCORE.RESTR>
0

>  <SCORE.RESTR.CAVITY>
0

>  <SCORE.RESTR.norm>
0

>  <SCORE.SYSTEM>
0

>  <SCORE.SYSTEM.CONST>
0

>  <SCORE.SYSTEM.DIHEDRAL>
0

>  <SCORE.SYSTEM.SOLV>
0

>  <SCORE.SYSTEM.norm>
0

>  <SCORE.heavy>
23

>  <SCORE.norm>
-0.755828

>  <RMSD>
17.049

$$$$
ligand
 OpenBabel02271912143D
libRbt.so/2013.1/901 2013/11/27
 23 25  0  0  0  0  0  0  0  0999 V2000
    8.1202   10.7030   29.1152 P   0  0  1  0  0  0  0  0  0  0  0  0
    6.6807    8.5426   28.7751 C   0  0  0  0  0  0  0  0  0  0  0  0
    7.2410    9.7147   28.1996 O   0  0  0  0  0  0  0  0  0  0  0  0
    6.1422    7.6978   27.6425 C   0  0  1  0  0  0  0  0  0  0  0  0
    5.9304    6.3427   28.0372 O   0  0  0  0  0  0  0  0  0  0  0  0
    4.8076    8.2647   27.1886 C   0  0  1  0  0  0  0  0  0  0  0  0
    4.8218    8.3484   25.7531 O   0  0  0  0  0  0  0  0  0  0  0  0
    3.7603    7.2815   27.6963 C   0  0  0  0  0  0  0  0  0  0  0  0
    4.5426    5.9949   27.9461 C   0  0  2  0  0  0  0  0  0  0  0  0
    2.5370    1.9510   30.4274 N   0  0  0  0  0  0  0  0  0  0  0  0
    2.6910    2.1158   29.1035 C   0  0  2  0  0  0  0  0  0  0  0  0
    2.2895    1.1107   28.2909 N   0  0  0  0  0  0  0  0  0  0  0  0
    3.2393    3.2476   28.5994 N   0  0  0  0  0  0  0  0  0  0  0  0
    3.6363    4.2272   29.4377 C   0  0  2  0  0  0  0  0  0  0  0  0
    3.4834    4.0744   30.7987 C   0  0  1  0  0  0  0  0  0  0  0  0
    2.9286    2.9074   31.2888 C   0  0  0  0  0  0  0  0  0  0  0  0
    2.7873    2.7466   32.5202 O   0  0  0  0  0  0  0  0  0  0  0  0
    3.9473    5.1881   31.3993 N   0  0  0  0  0  0  0  0  0  0  0  0
    4.3858    6.0119   30.4311 C   0  0  0  0  0  0  0  0  0  0  0  0
    4.1822    5.4231   29.2477 N   0  0  1  0  0  0  0  0  0  0  0  0
    9.5158   10.7124   28.5404 O   0  0  0  0  0  0  0  0  0  0  0  0
    7.3976   12.0270   29.0198 O   0  5  0  0  0  0  0  0  0  0  0  0
    8.0344   10.0599   30.4730 O   0  0  0  0  0  0  0  0  0  0  0  0
  1  3  1  6  0  0  0
  1 21  1  0  0  0  0
  1 22  1  0  0  0  0
  1 23  2  0  0  0  0
  2  3  1  0  0  0  0
  4  2  1  1  0  0  0
  4  5  1  0  0  0  0
  4  6  1  0  0  0  0
  6  7  1  6  0  0  0
  6  8  1  0  0  0  0
  8  9  1  0  0  0  0
  9  5  1  1  0  0  0
  9 20  1  0  0  0  0
 10 11  1  0  0  0  0
 10 16  1  0  0  0  0
 11 12  1  1  0  0  0
 11 13  1  0  0  0  0
 14 13  1  6  0  0  0
 14 15  1  0  0  0  0
 14 20  1  0  0  0  0
 15 16  1  1  0  0  0
 15 18  1  0  0  0  0
 16 17  2  0  0  0  0
 18 19  1  0  0  0  0
 20 19  1  1  0  0  0
M  CHG  1  22  -1
M  END
>  <CHROM.1>
117.16506503,162.10398214,-169.64413491,-124.81038105,5.18513710,6.66665728
29.10040070,-0.41521185,0.95090736,1.88484388

>  <Name>
ligand

>  <RI>
0

>  <Rbt.Current_Directory>
/home/itssahil/PROJECTS/Mol_Feturizer/Test_systems_manuscript/rnas/3slm

>  <Rbt.Executable>
rbdock ($Id: //depot/dev/client3/rdock/2013.1/src/exe/rbdock.cxx#4 $)

>  <Rbt.Library>
libRbt.so (2013.1, Build901 2013/11/27)

>  <Rbt.Parameter_File>
/export/apps/rDock/src/rDock_2013.1_src/data/scripts/dock_solv.prm

>  <Rbt.Receptor>
prm/blind_docking_80.prm

>  <SCORE>
-17.296

>  <SCORE.INTER>
-14.8379

>  <SCORE.INTER.CONST>
1

>  <SCORE.INTER.POLAR>
0

>  <SCORE.INTER.ROT>
4

>  <SCORE.INTER.SOLV>
20.3878

>  <SCORE.INTER.VDW>
-22.9545

>  <SCORE.INTER.norm>
-0.645125

>  <SCORE.INTRA>
-2.45808

>  <SCORE.INTRA.DIHEDRAL>
-3.4279

>  <SCORE.INTRA.DIHEDRAL.0>
8.62657

>  <SCORE.INTRA.POLAR>
0

>  <SCORE.INTRA.POLAR.0>
0

>  <SCORE.INTRA.REPUL>
0

>  <SCORE.INTRA.REPUL.0>
0

>  <SCORE.INTRA.SOLV>
-0.205978

>  <SCORE.INTRA.SOLV.lig_0>
-66.3641

>  <SCORE.INTRA.VDW>
-0.641143

>  <SCORE.INTRA.VDW.0>
0.452231

>  <SCORE.INTRA.norm>
-0.106873

>  <SCORE.RESTR>
0

>  <SCORE.RESTR.CAVITY>
0

>  <SCORE.RESTR.norm>
0

>  <SCORE.SYSTEM>
0

>  <SCORE.SYSTEM.CONST>
0

>  <SCORE.SYSTEM.DIHEDRAL>
0

>  <SCORE.SYSTEM.SOLV>
0

>  <SCORE.SYSTEM.norm>
0

>  <SCORE.heavy>
23

>  <SCORE.norm>
-0.751998

>  <RMSD>
17.077

$$$$
ligand
 OpenBabel02271912143D
libRbt.so/2013.1/901 2013/11/27
 23 25  0  0  0  0  0  0  0  0999 V2000
    2.3993    5.3463   28.1840 P   0  0  1  0  0  0  0  0  0  0  0  0
    4.9478    5.8706   27.8916 C   0  0  0  0  0  0  0  0  0  0  0  0
    3.6512    5.8548   27.3108 O   0  0  0  0  0  0  0  0  0  0  0  0
    5.0333    7.0990   28.7693 C   0  0  1  0  0  0  0  0  0  0  0  0
    5.0355    6.7678   30.1576 O   0  0  0  0  0  0  0  0  0  0  0  0
    6.3244    7.8401   28.4652 C   0  0  1  0  0  0  0  0  0  0  0  0
    6.0130    9.2350   28.3065 O   0  0  0  0  0  0  0  0  0  0  0  0
    7.2257    7.5859   29.6670 C   0  0  0  0  0  0  0  0  0  0  0  0
    6.2638    7.1712   30.7772 C   0  0  2  0  0  0  0  0  0  0  0  0
    5.0536    2.7485   33.1239 N   0  0  0  0  0  0  0  0  0  0  0  0
    4.2209    3.6510   32.5800 C   0  0  2  0  0  0  0  0  0  0  0  0
    2.8930    3.3944   32.6273 N   0  0  0  0  0  0  0  0  0  0  0  0
    4.6965    4.7766   31.9946 N   0  0  0  0  0  0  0  0  0  0  0  0
    6.0266    4.9983   31.9574 C   0  0  2  0  0  0  0  0  0  0  0  0
    6.8943    4.0829   32.5128 C   0  0  1  0  0  0  0  0  0  0  0  0
    6.3852    2.9387   33.0970 C   0  0  0  0  0  0  0  0  0  0  0  0
    7.1557    2.0930   33.6006 O   0  0  0  0  0  0  0  0  0  0  0  0
    8.1500    4.5442   32.3490 N   0  0  0  0  0  0  0  0  0  0  0  0
    8.0636    5.7182   31.6989 C   0  0  0  0  0  0  0  0  0  0  0  0
    6.7723    5.9869   31.4770 N   0  0  1  0  0  0  0  0  0  0  0  0
    2.4112    6.1330   29.4720 O   0  0  0  0  0  0  0  0  0  0  0  0
    1.2043    5.6166   27.2991 O   0  5  0  0  0  0  0  0  0  0  0  0
    2.6989    3.8835   28.3711 O   0  0  0  0  0  0  0  0  0  0  0  0
  1  3  1  6  0  0  0
  1 21  1  0  0  0  0
  1 22  1  0  0  0  0
  1 23  2  0  0  0  0
  2  3  1  0  0  0  0
  4  2  1  6  0  0  0
  4  5  1  0  0  0  0
  4  6  1  0  0  0  0
  6  7  1  1  0  0  0
  6  8  1  0  0  0  0
  8  9  1  0  0  0  0
  9  5  1  6  0  0  0
  9 20  1  0  0  0  0
 10 11  1  0  0  0  0
 10 16  1  0  0  0  0
 11 12  1  6  0  0  0
 11 13  1  0  0  0  0
 14 13  1  1  0  0  0
 14 15  1  0  0  0  0
 14 20  1  0  0  0  0
 15 16  1  6  0  0  0
 15 18  1  0  0  0  0
 16 17  2  0  0  0  0
 18 19  1  0  0  0  0
 20 19  1  6  0  0  0
M  CHG  1  22  -1
M  END
>  <CHROM.1>
52.61467495,108.75476237,-78.84577911,-27.67976778,4.97022960,5.38811900
30.29476294,2.17594385,-0.48241589,-0.77335925

>  <Name>
ligand

>  <RI>
0

>  <Rbt.Current_Directory>
/home/itssahil/PROJECTS/Mol_Feturizer/Test_systems_manuscript/rnas/3slm

>  <Rbt.Executable>
rbdock ($Id: //depot/dev/client3/rdock/2013.1/src/exe/rbdock.cxx#4 $)

>  <Rbt.Library>
libRbt.so (2013.1, Build901 2013/11/27)

>  <Rbt.Parameter_File>
/export/apps/rDock/src/rDock_2013.1_src/data/scripts/dock_solv.prm

>  <Rbt.Receptor>
prm/blind_docking_60.prm

>  <SCORE>
-18.9285

>  <SCORE.INTER>
-17.203

>  <SCORE.INTER.CONST>
1

>  <SCORE.INTER.POLAR>
0

>  <SCORE.INTER.ROT>
4

>  <SCORE.INTER.SOLV>
15.2174

>  <SCORE.INTER.VDW>
-22.8078

>  <SCORE.INTER.norm>
-0.747958

>  <SCORE.INTRA>
-1.72607

>  <SCORE.INTRA.DIHEDRAL>
-0.839406

>  <SCORE.INTRA.DIHEDRAL.0>
8.62657

>  <SCORE.INTRA.POLAR>
0

>  <SCORE.INTRA.POLAR.0>
0

>  <SCORE.INTRA.REPUL>
0

>  <SCORE.INTRA.REPUL.0>
0

>  <SCORE.INTRA.SOLV>
0.820751

>  <SCORE.INTRA.SOLV.lig_0>
-66.3641

>  <SCORE.INTRA.VDW>
-1.71674

>  <SCORE.INTRA.VDW.0>
0.452231

>  <SCORE.INTRA.norm>
-0.0750464

>  <SCORE.RESTR>
0.000601462

>  <SCORE.RESTR.CAVITY>
0.000601462

>  <SCORE.RESTR.norm>
2.61505e-05

>  <SCORE.SYSTEM>
0

>  <SCORE.SYSTEM.CONST>
0

>  <SCORE.SYSTEM.DIHEDRAL>
0

>  <SCORE.SYSTEM.SOLV>
0

>  <SCORE.SYSTEM.norm>
0

>  <SCORE.heavy>
23

>  <SCORE.norm>
-0.822978

>  <RMSD>
17.094

$$$$
ligand
 OpenBabel02271912143D
libRbt.so/2013.1/901 2013/11/27
 23 25  0  0  0  0  0  0  0  0999 V2000
    2.6457    3.8003   28.4075 P   0  0  1  0  0  0  0  0  0  0  0  0
    4.4136    5.7312   28.3691 C   0  0  0  0  0  0  0  0  0  0  0  0
    3.2315    5.1974   28.9491 O   0  0  0  0  0  0  0  0  0  0  0  0
    4.7575    6.9931   29.1278 C   0  0  1  0  0  0  0  0  0  0  0  0
    4.9310    6.7501   30.5234 O   0  0  0  0  0  0  0  0  0  0  0  0
    6.0599    7.5599   28.5883 C   0  0  1  0  0  0  0  0  0  0  0  0
    5.8772    8.9691   28.3670 O   0  0  0  0  0  0  0  0  0  0  0  0
    7.0979    7.2779   29.6673 C   0  0  0  0  0  0  0  0  0  0  0  0
    6.2733    7.0463   30.9307 C   0  0  2  0  0  0  0  0  0  0  0  0
    4.9487    2.7983   33.5253 N   0  0  0  0  0  0  0  0  0  0  0  0
    4.1396    3.7339   33.0021 C   0  0  2  0  0  0  0  0  0  0  0  0
    2.8044    3.5670   33.1468 N   0  0  0  0  0  0  0  0  0  0  0  0
    4.6444    4.8044   32.3425 N   0  0  0  0  0  0  0  0  0  0  0  0
    5.9802    4.9367   32.2091 C   0  0  2  0  0  0  0  0  0  0  0  0
    6.8241    3.9865   32.7421 C   0  0  1  0  0  0  0  0  0  0  0  0
    6.2847    2.8996   33.4035 C   0  0  0  0  0  0  0  0  0  0  0  0
    7.0327    2.0233   33.8884 O   0  0  0  0  0  0  0  0  0  0  0  0
    8.0924    4.3581   32.4780 N   0  0  0  0  0  0  0  0  0  0  0  0
    8.0362    5.5115   31.7889 C   0  0  0  0  0  0  0  0  0  0  0  0
    6.7524    5.8566   31.6420 N   0  0  1  0  0  0  0  0  0  0  0  0
    3.6807    2.7428   28.7053 O   0  0  0  0  0  0  0  0  0  0  0  0
    1.3475    3.6324   29.1629 O   0  5  0  0  0  0  0  0  0  0  0  0
    2.4639    4.0655   26.9375 O   0  0  0  0  0  0  0  0  0  0  0  0
  1  3  1  1  0  0  0
  1 21  1  0  0  0  0
  1 22  1  0  0  0  0
  1 23  2  0  0  0  0
  2  3  1  0  0  0  0
  4  2  1  6  0  0  0
  4  5  1  0  0  0  0
  4  6  1  0  0  0  0
  6  7  1  1  0  0  0
  6  8  1  0  0  0  0
  8  9  1  0  0  0  0
  9  5  1  6  0  0  0
  9 20  1  0  0  0  0
 10 11  1  0  0  0  0
 10 16  1  0  0  0  0
 11 12  1  6  0  0  0
 11 13  1  0  0  0  0
 14 13  1  1  0  0  0
 14 15  1  0  0  0  0
 14 20  1  0  0  0  0
 15 16  1  6  0  0  0
 15 18  1  0  0  0  0
 16 17  2  0  0  0  0
 18 19  1  0  0  0  0
 20 19  1  6  0  0  0
M  CHG  1  22  -1
M  END
>  <CHROM.1>
63.57750305,57.58514068,-176.86308320,-22.12711987,4.93882002,4.90354396
30.56417586,2.29881514,-0.64940526,-0.80521205

>  <Name>
ligand

>  <RI>
0

>  <Rbt.Current_Directory>
/home/itssahil/PROJECTS/Mol_Feturizer/Test_systems_manuscript/rnas/3slm

>  <Rbt.Executable>
rbdock ($Id: //depot/dev/client3/rdock/2013.1/src/exe/rbdock.cxx#4 $)

>  <Rbt.Library>
libRbt.so (2013.1, Build901 2013/11/27)

>  <Rbt.Parameter_File>
/export/apps/rDock/src/rDock_2013.1_src/data/scripts/dock_solv.prm

>  <Rbt.Receptor>
prm/blind_docking_80.prm

>  <SCORE>
-21.1146

>  <SCORE.INTER>
-15.7893

>  <SCORE.INTER.CONST>
1

>  <SCORE.INTER.POLAR>
0

>  <SCORE.INTER.ROT>
4

>  <SCORE.INTER.SOLV>
11.5708

>  <SCORE.INTER.VDW>
-20.6498

>  <SCORE.INTER.norm>
-0.68649

>  <SCORE.INTRA>
-5.32537

>  <SCORE.INTRA.DIHEDRAL>
-7.27375

>  <SCORE.INTRA.DIHEDRAL.0>
8.62657

>  <SCORE.INTRA.POLAR>
0

>  <SCORE.INTRA.POLAR.0>
0

>  <SCORE.INTRA.REPUL>
0

>  <SCORE.INTRA.REPUL.0>
0

>  <SCORE.INTRA.SOLV>
-0.172841

>  <SCORE.INTRA.SOLV.lig_0>
-66.3641

>  <SCORE.INTRA.VDW>
-1.60207

>  <SCORE.INTRA.VDW.0>
0.452231

>  <SCORE.INTRA.norm>
-0.231538

>  <SCORE.RESTR>
0

>  <SCORE.RESTR.CAVITY>
0

>  <SCORE.RESTR.norm>
0

>  <SCORE.SYSTEM>
0

>  <SCORE.SYSTEM.CONST>
0

>  <SCORE.SYSTEM.DIHEDRAL>
0

>  <SCORE.SYSTEM.SOLV>
0

>  <SCORE.SYSTEM.norm>
0

>  <SCORE.heavy>
23

>  <SCORE.norm>
-0.918028

>  <RMSD>
17.094

$$$$
ligand
 OpenBabel02271912143D
libRbt.so/2013.1/901 2013/11/27
 23 25  0  0  0  0  0  0  0  0999 V2000
    8.0895   11.3133   27.7237 P   0  0  1  0  0  0  0  0  0  0  0  0
    6.6691    9.1281   27.9736 C   0  0  0  0  0  0  0  0  0  0  0  0
    7.2667   10.0783   27.1025 O   0  0  0  0  0  0  0  0  0  0  0  0
    6.1271    8.0078   27.1147 C   0  0  1  0  0  0  0  0  0  0  0  0
    5.8910    6.8193   27.8686 O   0  0  0  0  0  0  0  0  0  0  0  0
    4.8054    8.4425   26.5042 C   0  0  1  0  0  0  0  0  0  0  0  0
    4.8330    8.1224   25.1025 O   0  0  0  0  0  0  0  0  0  0  0  0
    3.7388    7.6530   27.2527 C   0  0  0  0  0  0  0  0  0  0  0  0
    4.4988    6.4773   27.8609 C   0  0  2  0  0  0  0  0  0  0  0  0
    6.0757    6.5990   32.7630 N   0  0  0  0  0  0  0  0  0  0  0  0
    6.7998    6.8278   31.6553 C   0  0  2  0  0  0  0  0  0  0  0  0
    8.1073    7.1417   31.8090 N   0  0  0  0  0  0  0  0  0  0  0  0
    6.2365    6.7558   30.4251 N   0  0  0  0  0  0  0  0  0  0  0  0
    4.9284    6.4481   30.3073 C   0  0  2  0  0  0  0  0  0  0  0  0
    4.1720    6.2086   31.4341 C   0  0  1  0  0  0  0  0  0  0  0  0
    4.7677    6.2958   32.6780 C   0  0  0  0  0  0  0  0  0  0  0  0
    4.0975    6.0885   33.7126 O   0  0  0  0  0  0  0  0  0  0  0  0
    2.9158    5.9191   31.0409 N   0  0  0  0  0  0  0  0  0  0  0  0
    2.8917    5.9849   29.6979 C   0  0  0  0  0  0  0  0  0  0  0  0
    4.1186    6.2956   29.2656 N   0  0  1  0  0  0  0  0  0  0  0  0
    7.1173   12.1209   28.5487 O   0  0  0  0  0  0  0  0  0  0  0  0
    9.1884   10.6530   28.5241 O   0  5  0  0  0  0  0  0  0  0  0  0
    8.5799   12.0344   26.4973 O   0  0  0  0  0  0  0  0  0  0  0  0
  1  3  1  6  0  0  0
  1 21  1  0  0  0  0
  1 22  1  0  0  0  0
  1 23  2  0  0  0  0
  2  3  1  0  0  0  0
  4  2  1  1  0  0  0
  4  5  1  0  0  0  0
  4  6  1  0  0  0  0
  6  7  1  6  0  0  0
  6  8  1  0  0  0  0
  8  9  1  0  0  0  0
  9  5  1  1  0  0  0
  9 20  1  0  0  0  0
 10 11  1  0  0  0  0
 10 16  1  0  0  0  0
 11 12  1  1  0  0  0
 11 13  1  0  0  0  0
 14 13  1  6  0  0  0
 14 15  1  0  0  0  0
 14 20  1  0  0  0  0
 15 16  1  1  0  0  0
 15 18  1  0  0  0  0
 16 17  2  0  0  0  0
 18 19  1  0  0  0  0
 20 19  1  1  0  0  0
M  CHG  1  22  -1
M  END
>  <CHROM.1>
-61.91915523,161.41259981,-172.93252044,0.96013097,5.92800235,8.16840195
29.09732058,-0.93834878,0.72459021,1.94244249

>  <Name>
ligand

>  <RI>
0

>  <Rbt.Current_Directory>
/home/itssahil/PROJECTS/Mol_Feturizer/Test_systems_manuscript/rnas/3slm

>  <Rbt.Executable>
rbdock ($Id: //depot/dev/client3/rdock/2013.1/src/exe/rbdock.cxx#4 $)

>  <Rbt.Library>
libRbt.so (2013.1, Build901 2013/11/27)

>  <Rbt.Parameter_File>
/export/apps/rDock/src/rDock_2013.1_src/data/scripts/dock_solv.prm

>  <Rbt.Receptor>
prm/blind_docking_40.prm

>  <SCORE>
-19.428

>  <SCORE.INTER>
-14.7367

>  <SCORE.INTER.CONST>
1

>  <SCORE.INTER.POLAR>
0

>  <SCORE.INTER.ROT>
4

>  <SCORE.INTER.SOLV>
25.5138

>  <SCORE.INTER.VDW>
-24.5957

>  <SCORE.INTER.norm>
-0.640725

>  <SCORE.INTRA>
-4.69129

>  <SCORE.INTRA.DIHEDRAL>
-6.02704

>  <SCORE.INTRA.DIHEDRAL.0>
8.62657

>  <SCORE.INTRA.POLAR>
0

>  <SCORE.INTRA.POLAR.0>
0

>  <SCORE.INTRA.REPUL>
0

>  <SCORE.INTRA.REPUL.0>
0

>  <SCORE.INTRA.SOLV>
-0.32979

>  <SCORE.INTRA.SOLV.lig_0>
-66.3641

>  <SCORE.INTRA.VDW>
-1.51288

>  <SCORE.INTRA.VDW.0>
0.452231

>  <SCORE.INTRA.norm>
-0.203969

>  <SCORE.RESTR>
0

>  <SCORE.RESTR.CAVITY>
0

>  <SCORE.RESTR.norm>
0

>  <SCORE.SYSTEM>
0

>  <SCORE.SYSTEM.CONST>
0

>  <SCORE.SYSTEM.DIHEDRAL>
0

>  <SCORE.SYSTEM.SOLV>
0

>  <SCORE.SYSTEM.norm>
0

>  <SCORE.heavy>
23

>  <SCORE.norm>
-0.844694

>  <RMSD>
17.096

$$$$
ligand
 OpenBabel02271912143D
libRbt.so/2013.1/901 2013/11/27
 23 25  0  0  0  0  0  0  0  0999 V2000
    1.7714    4.5299   30.1002 P   0  0  1  0  0  0  0  0  0  0  0  0
    3.5488    6.4427   30.2932 C   0  0  0  0  0  0  0  0  0  0  0  0
    2.3275    5.8874   30.7609 O   0  0  0  0  0  0  0  0  0  0  0  0
    4.6622    5.5210   30.7374 C   0  0  1  0  0  0  0  0  0  0  0  0
    5.9081    5.8494   30.1236 O   0  0  0  0  0  0  0  0  0  0  0  0
    4.8382    5.6406   32.2418 C   0  0  1  0  0  0  0  0  0  0  0  0
    4.9103    4.3134   32.7909 O   0  0  0  0  0  0  0  0  0  0  0  0
    6.1373    6.4130   32.4337 C   0  0  0  0  0  0  0  0  0  0  0  0
    6.8729    6.2469   31.1067 C   0  0  2  0  0  0  0  0  0  0  0  0
    6.8223    9.8242   27.4010 N   0  0  0  0  0  0  0  0  0  0  0  0
    6.1459    8.6647   27.4405 C   0  0  2  0  0  0  0  0  0  0  0  0
    5.3329    8.3718   26.3989 N   0  0  0  0  0  0  0  0  0  0  0  0
    6.2667    7.8209   28.4937 N   0  0  0  0  0  0  0  0  0  0  0  0
    7.0798    8.1467   29.5196 C   0  0  2  0  0  0  0  0  0  0  0  0
    7.7823    9.3319   29.4934 C   0  0  1  0  0  0  0  0  0  0  0  0
    7.6361   10.1794   28.4117 C   0  0  0  0  0  0  0  0  0  0  0  0
    8.2595   11.2621   28.3718 O   0  0  0  0  0  0  0  0  0  0  0  0
    8.5160    9.4083   30.6213 N   0  0  0  0  0  0  0  0  0  0  0  0
    8.2681    8.2965   31.3360 C   0  0  0  0  0  0  0  0  0  0  0  0
    7.4053    7.5361   30.6534 N   0  0  1  0  0  0  0  0  0  0  0  0
    2.7673    3.4424   30.4220 O   0  0  0  0  0  0  0  0  0  0  0  0
    0.4150    4.3426   30.7399 O   0  5  0  0  0  0  0  0  0  0  0  0
    1.7111    4.8749   28.6367 O   0  0  0  0  0  0  0  0  0  0  0  0
  1  3  1  1  0  0  0
  1 21  1  0  0  0  0
  1 22  1  0  0  0  0
  1 23  2  0  0  0  0
  2  3  1  0  0  0  0
  4  2  1  6  0  0  0
  4  5  1  0  0  0  0
  4  6  1  0  0  0  0
  6  7  1  1  0  0  0
  6  8  1  0  0  0  0
  8  9  1  0  0  0  0
  9  5  1  6  0  0  0
  9 20  1  0  0  0  0
 10 11  1  0  0  0  0
 10 16  1  0  0  0  0
 11 12  1  1  0  0  0
 11 13  1  0  0  0  0
 14 13  1  6  0  0  0
 14 15  1  0  0  0  0
 14 20  1  0  0  0  0
 15 16  1  1  0  0  0
 15 18  1  0  0  0  0
 16 17  2  0  0  0  0
 18 19  1  0  0  0  0
 20 19  1  1  0  0  0
M  CHG  1  22  -1
M  END
>  <CHROM.1>
64.45402613,169.55540254,-69.89245787,-2.94705966,5.14169117,6.83328531,29.96578949
2.55897531,0.52725335,2.16854955

>  <Name>
ligand

>  <RI>
0

>  <Rbt.Current_Directory>
/home/itssahil/PROJECTS/Mol_Feturizer/Test_systems_manuscript/rnas/3slm

>  <Rbt.Executable>
rbdock ($Id: //depot/dev/client3/rdock/2013.1/src/exe/rbdock.cxx#4 $)

>  <Rbt.Library>
libRbt.so (2013.1, Build901 2013/11/27)

>  <Rbt.Parameter_File>
/export/apps/rDock/src/rDock_2013.1_src/data/scripts/dock_solv.prm

>  <Rbt.Receptor>
prm/blind_docking_40.prm

>  <SCORE>
-19.4978

>  <SCORE.INTER>
-15.222

>  <SCORE.INTER.CONST>
1

>  <SCORE.INTER.POLAR>
0

>  <SCORE.INTER.ROT>
4

>  <SCORE.INTER.SOLV>
13.1241

>  <SCORE.INTER.VDW>
-20.7893

>  <SCORE.INTER.norm>
-0.661826

>  <SCORE.INTRA>
-4.27582

>  <SCORE.INTRA.DIHEDRAL>
-6.51745

>  <SCORE.INTRA.DIHEDRAL.0>
8.62657

>  <SCORE.INTRA.POLAR>
0

>  <SCORE.INTRA.POLAR.0>
0

>  <SCORE.INTRA.REPUL>
0

>  <SCORE.INTRA.REPUL.0>
0

>  <SCORE.INTRA.SOLV>
0.774929

>  <SCORE.INTRA.SOLV.lig_0>
-66.3641

>  <SCORE.INTRA.VDW>
-1.40456

>  <SCORE.INTRA.VDW.0>
0.452231

>  <SCORE.INTRA.norm>
-0.185905

>  <SCORE.RESTR>
0

>  <SCORE.RESTR.CAVITY>
0

>  <SCORE.RESTR.norm>
0

>  <SCORE.SYSTEM>
0

>  <SCORE.SYSTEM.CONST>
0

>  <SCORE.SYSTEM.DIHEDRAL>
0

>  <SCORE.SYSTEM.SOLV>
0

>  <SCORE.SYSTEM.norm>
0

>  <SCORE.heavy>
23

>  <SCORE.norm>
-0.847731

>  <RMSD>
17.113

$$$$
ligand
 OpenBabel02271912143D
libRbt.so/2013.1/901 2013/11/27
 23 25  0  0  0  0  0  0  0  0999 V2000
    3.1212    4.7161   27.2128 P   0  0  1  0  0  0  0  0  0  0  0  0
    5.0335    6.3484   27.9436 C   0  0  0  0  0  0  0  0  0  0  0  0
    3.6489    6.0311   27.9748 O   0  0  0  0  0  0  0  0  0  0  0  0
    5.2402    7.5515   28.8360 C   0  0  1  0  0  0  0  0  0  0  0  0
    5.1496    7.2153   30.2201 O   0  0  0  0  0  0  0  0  0  0  0  0
    6.6245    8.1258   28.5859 C   0  0  1  0  0  0  0  0  0  0  0  0
    6.4968    9.5497   28.4299 O   0  0  0  0  0  0  0  0  0  0  0  0
    7.4417    7.7538   29.8167 C   0  0  0  0  0  0  0  0  0  0  0  0
    6.3951    7.4575   30.8874 C   0  0  2  0  0  0  0  0  0  0  0  0
    4.6243    3.6158   33.8264 N   0  0  0  0  0  0  0  0  0  0  0  0
    3.9490    4.6785   33.3589 C   0  0  2  0  0  0  0  0  0  0  0  0
    2.6359    4.7796   33.6708 N   0  0  0  0  0  0  0  0  0  0  0  0
    4.5609    5.6130   32.5922 N   0  0  0  0  0  0  0  0  0  0  0  0
    5.8694    5.4781   32.2932 C   0  0  2  0  0  0  0  0  0  0  0  0
    6.5770    4.3945   32.7668 C   0  0  1  0  0  0  0  0  0  0  0  0
    5.9285    3.4507   33.5404 C   0  0  0  0  0  0  0  0  0  0  0  0
    6.5508    2.4573   33.9742 O   0  0  0  0  0  0  0  0  0  0  0  0
    7.8488    4.5042   32.3346 N   0  0  0  0  0  0  0  0  0  0  0  0
    7.9269    5.6291   31.6019 C   0  0  0  0  0  0  0  0  0  0  0  0
    6.7246    6.2149   31.5933 N   0  0  1  0  0  0  0  0  0  0  0  0
    1.6262    4.8617   27.0653 O   0  0  0  0  0  0  0  0  0  0  0  0
    3.8804    4.7232   25.9060 O   0  5  0  0  0  0  0  0  0  0  0  0
    3.5274    3.6077   28.1460 O   0  0  0  0  0  0  0  0  0  0  0  0
  1  3  1  1  0  0  0
  1 21  1  0  0  0  0
  1 22  1  0  0  0  0
  1 23  2  0  0  0  0
  2  3  1  0  0  0  0
  4  2  1  6  0  0  0
  4  5  1  0  0  0  0
  4  6  1  0  0  0  0
  6  7  1  1  0  0  0
  6  8  1  0  0  0  0
  8  9  1  0  0  0  0
  9  5  1  6  0  0  0
  9 20  1  0  0  0  0
 10 11  1  0  0  0  0
 10 16  1  0  0  0  0
 11 12  1  6  0  0  0
 11 13  1  0  0  0  0
 14 13  1  1  0  0  0
 14 15  1  0  0  0  0
 14 20  1  0  0  0  0
 15 16  1  6  0  0  0
 15 18  1  0  0  0  0
 16 17  2  0  0  0  0
 18 19  1  0  0  0  0
 20 19  1  6  0  0  0
M  CHG  1  22  -1
M  END
>  <CHROM.1>
-163.36377792,73.72748979,-175.11299231,-43.58226445,5.10478516,5.55715413
30.25553325,2.00996038,-0.73446437,-1.02094985

>  <Name>
ligand

>  <RI>
0

>  <Rbt.Current_Directory>
/home/itssahil/PROJECTS/Mol_Feturizer/Test_systems_manuscript/rnas/3slm

>  <Rbt.Executable>
rbdock ($Id: //depot/dev/client3/rdock/2013.1/src/exe/rbdock.cxx#4 $)

>  <Rbt.Library>
libRbt.so (2013.1, Build901 2013/11/27)

>  <Rbt.Parameter_File>
/export/apps/rDock/src/rDock_2013.1_src/data/scripts/dock_solv.prm

>  <Rbt.Receptor>
prm/blind_docking_60.prm

>  <SCORE>
-20.7216

>  <SCORE.INTER>
-16.9124

>  <SCORE.INTER.CONST>
1

>  <SCORE.INTER.POLAR>
0

>  <SCORE.INTER.ROT>
4

>  <SCORE.INTER.SOLV>
10.2385

>  <SCORE.INTER.VDW>
-20.9544

>  <SCORE.INTER.norm>
-0.735321

>  <SCORE.INTRA>
-3.80925

>  <SCORE.INTRA.DIHEDRAL>
-6.15755

>  <SCORE.INTRA.DIHEDRAL.0>
8.62657

>  <SCORE.INTRA.POLAR>
0

>  <SCORE.INTRA.POLAR.0>
0

>  <SCORE.INTRA.REPUL>
0

>  <SCORE.INTRA.REPUL.0>
0

>  <SCORE.INTRA.SOLV>
-0.0261905

>  <SCORE.INTRA.SOLV.lig_0>
-66.3641

>  <SCORE.INTRA.VDW>
-0.717379

>  <SCORE.INTRA.VDW.0>
0.452231

>  <SCORE.INTRA.norm>
-0.16562

>  <SCORE.RESTR>
0

>  <SCORE.RESTR.CAVITY>
0

>  <SCORE.RESTR.norm>
0

>  <SCORE.SYSTEM>
0

>  <SCORE.SYSTEM.CONST>
0

>  <SCORE.SYSTEM.DIHEDRAL>
0

>  <SCORE.SYSTEM.SOLV>
0

>  <SCORE.SYSTEM.norm>
0

>  <SCORE.heavy>
23

>  <SCORE.norm>
-0.90094

>  <RMSD>
17.120

$$$$
ligand
 OpenBabel02271912143D
libRbt.so/2013.1/901 2013/11/27
 23 25  0  0  0  0  0  0  0  0999 V2000
    3.6612    3.2673   25.3671 P   0  0  1  0  0  0  0  0  0  0  0  0
    4.0362    5.0497   27.2480 C   0  0  0  0  0  0  0  0  0  0  0  0
    3.6931    4.7869   25.8945 O   0  0  0  0  0  0  0  0  0  0  0  0
    3.9076    6.5407   27.4640 C   0  0  1  0  0  0  0  0  0  0  0  0
    4.1315    6.9073   28.8250 O   0  0  0  0  0  0  0  0  0  0  0  0
    4.9408    7.2588   26.6122 C   0  0  1  0  0  0  0  0  0  0  0  0
    4.2836    8.3393   25.9275 O   0  0  0  0  0  0  0  0  0  0  0  0
    5.9940    7.7571   27.5939 C   0  0  0  0  0  0  0  0  0  0  0  0
    5.2803    7.7568   28.9431 C   0  0  2  0  0  0  0  0  0  0  0  0
    5.6353    4.1575   32.6107 N   0  0  0  0  0  0  0  0  0  0  0  0
    4.5800    4.4416   31.8300 C   0  0  2  0  0  0  0  0  0  0  0  0
    3.4571    3.7041   31.9929 N   0  0  0  0  0  0  0  0  0  0  0  0
    4.6421    5.4281   30.9033 N   0  0  0  0  0  0  0  0  0  0  0  0
    5.7795    6.1393   30.7612 C   0  0  2  0  0  0  0  0  0  0  0  0
    6.8706    5.8616   31.5559 C   0  0  1  0  0  0  0  0  0  0  0  0
    6.7851    4.8453   32.4884 C   0  0  0  0  0  0  0  0  0  0  0  0
    7.7656    4.5734   33.2145 O   0  0  0  0  0  0  0  0  0  0  0  0
    7.8604    6.7121   31.2195 N   0  0  0  0  0  0  0  0  0  0  0  0
    7.3953    7.4966   30.2312 C   0  0  0  0  0  0  0  0  0  0  0  0
    6.1311    7.1468   29.9703 N   0  0  1  0  0  0  0  0  0  0  0  0
    5.0288    2.6824   25.6237 O   0  0  0  0  0  0  0  0  0  0  0  0
    2.5494    2.6276   26.1664 O   0  5  0  0  0  0  0  0  0  0  0  0
    3.3428    3.4311   23.9055 O   0  0  0  0  0  0  0  0  0  0  0  0
  1  3  1  1  0  0  0
  1 21  1  0  0  0  0
  1 22  1  0  0  0  0
  1 23  2  0  0  0  0
  2  3  1  0  0  0  0
  4  2  1  1  0  0  0
  4  5  1  0  0  0  0
  4  6  1  0  0  0  0
  6  7  1  1  0  0  0
  6  8  1  0  0  0  0
  8  9  1  0  0  0  0
  9  5  1  6  0  0  0
  9 20  1  0  0  0  0
 10 11  1  0  0  0  0
 10 16  1  0  0  0  0
 11 12  1  6  0  0  0
 11 13  1  0  0  0  0
 14 13  1  1  0  0  0
 14 15  1  0  0  0  0
 14 20  1  0  0  0  0
 15 16  1  6  0  0  0
 15 18  1  0  0  0  0
 16 17  2  0  0  0  0
 18 19  1  0  0  0  0
 20 19  1  6  0  0  0
M  CHG  1  22  -1
M  END
>  <CHROM.1>
-57.05368455,175.51062606,-176.96869686,-9.73617388,4.98678342,5.35328051
28.65496828,2.62924123,-1.11450683,-0.78007687

>  <Name>
ligand

>  <RI>
0

>  <Rbt.Current_Directory>
/home/itssahil/PROJECTS/Mol_Feturizer/Test_systems_manuscript/rnas/3slm

>  <Rbt.Executable>
rbdock ($Id: //depot/dev/client3/rdock/2013.1/src/exe/rbdock.cxx#4 $)

>  <Rbt.Library>
libRbt.so (2013.1, Build901 2013/11/27)

>  <Rbt.Parameter_File>
/export/apps/rDock/src/rDock_2013.1_src/data/scripts/dock_solv.prm

>  <Rbt.Receptor>
prm/blind_docking_100.prm

>  <SCORE>
-20.7068

>  <SCORE.INTER>
-15.5599

>  <SCORE.INTER.CONST>
1

>  <SCORE.INTER.POLAR>
0

>  <SCORE.INTER.ROT>
4

>  <SCORE.INTER.SOLV>
11.5505

>  <SCORE.INTER.VDW>
-20.4901

>  <SCORE.INTER.norm>
-0.676516

>  <SCORE.INTRA>
-5.14698

>  <SCORE.INTRA.DIHEDRAL>
-7.25732

>  <SCORE.INTRA.DIHEDRAL.0>
8.62657

>  <SCORE.INTRA.POLAR>
0

>  <SCORE.INTRA.POLAR.0>
0

>  <SCORE.INTRA.REPUL>
0

>  <SCORE.INTRA.REPUL.0>
0

>  <SCORE.INTRA.SOLV>
-0.483624

>  <SCORE.INTRA.SOLV.lig_0>
-66.3641

>  <SCORE.INTRA.VDW>
-1.27651

>  <SCORE.INTRA.VDW.0>
0.452231

>  <SCORE.INTRA.norm>
-0.223782

>  <SCORE.RESTR>
0

>  <SCORE.RESTR.CAVITY>
0

>  <SCORE.RESTR.norm>
0

>  <SCORE.SYSTEM>
0

>  <SCORE.SYSTEM.CONST>
0

>  <SCORE.SYSTEM.DIHEDRAL>
0

>  <SCORE.SYSTEM.SOLV>
0

>  <SCORE.SYSTEM.norm>
0

>  <SCORE.heavy>
23

>  <SCORE.norm>
-0.900298

>  <RMSD>
17.124

$$$$
ligand
 OpenBabel02271912143D
libRbt.so/2013.1/901 2013/11/27
 23 25  0  0  0  0  0  0  0  0999 V2000
    3.8720    5.6180   27.5188 P   0  0  1  0  0  0  0  0  0  0  0  0
    5.8539    6.7534   28.7988 C   0  0  0  0  0  0  0  0  0  0  0  0
    4.4489    6.6377   28.6214 O   0  0  0  0  0  0  0  0  0  0  0  0
    6.0844    7.6147   30.0201 C   0  0  1  0  0  0  0  0  0  0  0  0
    5.4328    7.0913   31.1770 O   0  0  0  0  0  0  0  0  0  0  0  0
    7.5741    7.6766   30.3125 C   0  0  1  0  0  0  0  0  0  0  0  0
    7.9281    9.0512   30.5434 O   0  0  0  0  0  0  0  0  0  0  0  0
    7.7757    6.8155   31.5530 C   0  0  0  0  0  0  0  0  0  0  0  0
    6.3884    6.7355   32.1846 C   0  0  2  0  0  0  0  0  0  0  0  0
    2.7866    3.0578   32.3669 N   0  0  0  0  0  0  0  0  0  0  0  0
    2.6590    4.3192   31.9240 C   0  0  2  0  0  0  0  0  0  0  0  0
    1.4508    4.7032   31.4503 N   0  0  0  0  0  0  0  0  0  0  0  0
    3.7088    5.1756   31.9421 N   0  0  0  0  0  0  0  0  0  0  0  0
    4.9019    4.7585   32.4136 C   0  0  2  0  0  0  0  0  0  0  0  0
    5.0488    3.4678   32.8737 C   0  0  1  0  0  0  0  0  0  0  0  0
    3.9651    2.6110   32.8374 C   0  0  0  0  0  0  0  0  0  0  0  0
    4.0793    1.4345   33.2440 O   0  0  0  0  0  0  0  0  0  0  0  0
    6.3212    3.3147   33.2907 N   0  0  0  0  0  0  0  0  0  0  0  0
    6.9527    4.4843   33.0867 C   0  0  0  0  0  0  0  0  0  0  0  0
    6.0798    5.3532   32.5652 N   0  0  1  0  0  0  0  0  0  0  0  0
    4.3043    4.2318   27.9308 O   0  0  0  0  0  0  0  0  0  0  0  0
    2.3782    5.8436   27.5604 O   0  5  0  0  0  0  0  0  0  0  0  0
    4.5244    6.0983   26.2507 O   0  0  0  0  0  0  0  0  0  0  0  0
  1  3  1  1  0  0  0
  1 21  1  0  0  0  0
  1 22  1  0  0  0  0
  1 23  2  0  0  0  0
  2  3  1  0  0  0  0
  4  2  1  6  0  0  0
  4  5  1  0  0  0  0
  4  6  1  0  0  0  0
  6  7  1  1  0  0  0
  6  8  1  0  0  0  0
  8  9  1  0  0  0  0
  9  5  1  6  0  0  0
  9 20  1  0  0  0  0
 10 11  1  0  0  0  0
 10 16  1  0  0  0  0
 11 12  1  6  0  0  0
 11 13  1  0  0  0  0
 14 13  1  1  0  0  0
 14 15  1  0  0  0  0
 14 20  1  0  0  0  0
 15 16  1  6  0  0  0
 15 18  1  0  0  0  0
 16 17  2  0  0  0  0
 18 19  1  0  0  0  0
 20 19  1  6  0  0  0
M  CHG  1  22  -1
M  END
>  <CHROM.1>
62.36238746,56.18840035,-171.80026406,-23.22782593,4.90697765,5.39677455
30.60721942,1.44960191,-0.66841887,-1.03246207

>  <Name>
ligand

>  <RI>
0

>  <Rbt.Current_Directory>
/home/itssahil/PROJECTS/Mol_Feturizer/Test_systems_manuscript/rnas/3slm

>  <Rbt.Executable>
rbdock ($Id: //depot/dev/client3/rdock/2013.1/src/exe/rbdock.cxx#4 $)

>  <Rbt.Library>
libRbt.so (2013.1, Build901 2013/11/27)

>  <Rbt.Parameter_File>
/export/apps/rDock/src/rDock_2013.1_src/data/scripts/dock_solv.prm

>  <Rbt.Receptor>
prm/blind_docking_80.prm

>  <SCORE>
-18.3263

>  <SCORE.INTER>
-13.1527

>  <SCORE.INTER.CONST>
1

>  <SCORE.INTER.POLAR>
0

>  <SCORE.INTER.ROT>
4

>  <SCORE.INTER.SOLV>
13.9668

>  <SCORE.INTER.VDW>
-19.6908

>  <SCORE.INTER.norm>
-0.571859

>  <SCORE.INTRA>
-5.17353

>  <SCORE.INTRA.DIHEDRAL>
-6.97722

>  <SCORE.INTRA.DIHEDRAL.0>
8.62657

>  <SCORE.INTRA.POLAR>
0

>  <SCORE.INTRA.POLAR.0>
0

>  <SCORE.INTRA.REPUL>
0

>  <SCORE.INTRA.REPUL.0>
0

>  <SCORE.INTRA.SOLV>
-0.0452481

>  <SCORE.INTRA.SOLV.lig_0>
-66.3641

>  <SCORE.INTRA.VDW>
-1.6623

>  <SCORE.INTRA.VDW.0>
0.452231

>  <SCORE.INTRA.norm>
-0.224936

>  <SCORE.RESTR>
0

>  <SCORE.RESTR.CAVITY>
0

>  <SCORE.RESTR.norm>
0

>  <SCORE.SYSTEM>
0

>  <SCORE.SYSTEM.CONST>
0

>  <SCORE.SYSTEM.DIHEDRAL>
0

>  <SCORE.SYSTEM.SOLV>
0

>  <SCORE.SYSTEM.norm>
0

>  <SCORE.heavy>
23

>  <SCORE.norm>
-0.796795

>  <RMSD>
17.129

$$$$
ligand
 OpenBabel02271912143D
libRbt.so/2013.1/901 2013/11/27
 23 25  0  0  0  0  0  0  0  0999 V2000
    4.5499    3.1774   33.2000 P   0  0  1  0  0  0  0  0  0  0  0  0
    3.8909    4.7139   31.1850 C   0  0  0  0  0  0  0  0  0  0  0  0
    3.6865    3.4912   31.8793 O   0  0  0  0  0  0  0  0  0  0  0  0
    2.9753    4.7072   29.9816 C   0  0  1  0  0  0  0  0  0  0  0  0
    2.8529    6.0015   29.3929 O   0  0  0  0  0  0  0  0  0  0  0  0
    3.5416    3.7686   28.9295 C   0  0  1  0  0  0  0  0  0  0  0  0
    2.4746    2.9265   28.4600 O   0  0  0  0  0  0  0  0  0  0  0  0
    4.0826    4.6759   27.8317 C   0  0  0  0  0  0  0  0  0  0  0  0
    3.3636    6.0040   28.0533 C   0  0  2  0  0  0  0  0  0  0  0  0
    7.6159    8.1169   30.0499 N   0  0  0  0  0  0  0  0  0  0  0  0
    6.9865    6.9969   30.4416 C   0  0  2  0  0  0  0  0  0  0  0  0
    7.5127    6.3070   31.4802 N   0  0  0  0  0  0  0  0  0  0  0  0
    5.8671    6.5675   29.8105 N   0  0  0  0  0  0  0  0  0  0  0  0
    5.3731    7.2745   28.7733 C   0  0  2  0  0  0  0  0  0  0  0  0
    6.0060    8.4270   28.3604 C   0  0  1  0  0  0  0  0  0  0  0  0
    7.1507    8.8400   29.0152 C   0  0  0  0  0  0  0  0  0  0  0  0
    7.7432    9.8790   28.6520 O   0  0  0  0  0  0  0  0  0  0  0  0
    5.3114    8.9373   27.3243 N   0  0  0  0  0  0  0  0  0  0  0  0
    4.2731    8.1143   27.0944 C   0  0  0  0  0  0  0  0  0  0  0  0
    4.3157    7.1174   27.9850 N   0  0  1  0  0  0  0  0  0  0  0  0
    4.7317    4.4862   33.9295 O   0  0  0  0  0  0  0  0  0  0  0  0
    3.7186    2.1585   33.9450 O   0  5  0  0  0  0  0  0  0  0  0  0
    5.8292    2.6223   32.6347 O   0  0  0  0  0  0  0  0  0  0  0  0
  1  3  1  6  0  0  0
  1 21  1  0  0  0  0
  1 22  1  0  0  0  0
  1 23  2  0  0  0  0
  2  3  1  0  0  0  0
  4  2  1  1  0  0  0
  4  5  1  0  0  0  0
  4  6  1  0  0  0  0
  6  7  1  6  0  0  0
  6  8  1  0  0  0  0
  8  9  1  0  0  0  0
  9  5  1  1  0  0  0
  9 20  1  0  0  0  0
 10 11  1  0  0  0  0
 10 16  1  0  0  0  0
 11 12  1  6  0  0  0
 11 13  1  0  0  0  0
 14 13  1  1  0  0  0
 14 15  1  0  0  0  0
 14 20  1  0  0  0  0
 15 16  1  6  0  0  0
 15 18  1  0  0  0  0
 16 17  2  0  0  0  0
 18 19  1  0  0  0  0
 20 19  1  6  0  0  0
M  CHG  1  22  -1
M  END
>  <CHROM.1>
36.29959668,165.83639459,178.51872095,56.66803706,4.89375503,5.64079204,30.19203563
-1.93335061,-0.70100058,-0.91830464

>  <Name>
ligand

>  <RI>
0

>  <Rbt.Current_Directory>
/home/itssahil/PROJECTS/Mol_Feturizer/Test_systems_manuscript/rnas/3slm

>  <Rbt.Executable>
rbdock ($Id: //depot/dev/client3/rdock/2013.1/src/exe/rbdock.cxx#4 $)

>  <Rbt.Library>
libRbt.so (2013.1, Build901 2013/11/27)

>  <Rbt.Parameter_File>
/export/apps/rDock/src/rDock_2013.1_src/data/scripts/dock_solv.prm

>  <Rbt.Receptor>
prm/blind_docking_100.prm

>  <SCORE>
-19.3126

>  <SCORE.INTER>
-14.367

>  <SCORE.INTER.CONST>
1

>  <SCORE.INTER.POLAR>
0

>  <SCORE.INTER.ROT>
4

>  <SCORE.INTER.SOLV>
16.7364

>  <SCORE.INTER.VDW>
-21.4235

>  <SCORE.INTER.norm>
-0.624652

>  <SCORE.INTRA>
-4.94561

>  <SCORE.INTRA.DIHEDRAL>
-5.9571

>  <SCORE.INTRA.DIHEDRAL.0>
8.62657

>  <SCORE.INTRA.POLAR>
0

>  <SCORE.INTRA.POLAR.0>
0

>  <SCORE.INTRA.REPUL>
0

>  <SCORE.INTRA.REPUL.0>
0

>  <SCORE.INTRA.SOLV>
0.879825

>  <SCORE.INTRA.SOLV.lig_0>
-66.3641

>  <SCORE.INTRA.VDW>
-2.40697

>  <SCORE.INTRA.VDW.0>
0.452231

>  <SCORE.INTRA.norm>
-0.215026

>  <SCORE.RESTR>
0

>  <SCORE.RESTR.CAVITY>
0

>  <SCORE.RESTR.norm>
0

>  <SCORE.SYSTEM>
0

>  <SCORE.SYSTEM.CONST>
0

>  <SCORE.SYSTEM.DIHEDRAL>
0

>  <SCORE.SYSTEM.SOLV>
0

>  <SCORE.SYSTEM.norm>
0

>  <SCORE.heavy>
23

>  <SCORE.norm>
-0.839679

>  <RMSD>
17.143

$$$$
ligand
 OpenBabel02271912143D
libRbt.so/2013.1/901 2013/11/27
 23 25  0  0  0  0  0  0  0  0999 V2000
    2.9420    4.0831   26.6019 P   0  0  1  0  0  0  0  0  0  0  0  0
    3.8416    5.1037   28.8389 C   0  0  0  0  0  0  0  0  0  0  0  0
    3.2872    5.3351   27.5514 O   0  0  0  0  0  0  0  0  0  0  0  0
    4.2554    6.4459   29.3992 C   0  0  1  0  0  0  0  0  0  0  0  0
    4.6356    6.3605   30.7722 O   0  0  0  0  0  0  0  0  0  0  0  0
    5.4495    6.9660   28.6167 C   0  0  1  0  0  0  0  0  0  0  0  0
    5.1966    8.3397   28.2748 O   0  0  0  0  0  0  0  0  0  0  0  0
    6.6401    6.8177   29.5558 C   0  0  0  0  0  0  0  0  0  0  0  0
    6.0136    6.7165   30.9440 C   0  0  2  0  0  0  0  0  0  0  0  0
    5.2026    2.3055   33.4771 N   0  0  0  0  0  0  0  0  0  0  0  0
    4.2943    3.0989   32.8861 C   0  0  2  0  0  0  0  0  0  0  0  0
    2.9965    2.7181   32.9338 N   0  0  0  0  0  0  0  0  0  0  0  0
    4.6674    4.2382   32.2547 N   0  0  0  0  0  0  0  0  0  0  0  0
    5.9705    4.5850   32.2188 C   0  0  2  0  0  0  0  0  0  0  0  0
    6.9147    3.7826   32.8221 C   0  0  1  0  0  0  0  0  0  0  0  0
    6.5100    2.6216   33.4530 C   0  0  0  0  0  0  0  0  0  0  0  0
    7.3515    1.8769   34.0007 O   0  0  0  0  0  0  0  0  0  0  0  0
    8.1224    4.3549   32.6484 N   0  0  0  0  0  0  0  0  0  0  0  0
    7.9323    5.4854   31.9454 C   0  0  0  0  0  0  0  0  0  0  0  0
    6.6242    5.6186   31.7007 N   0  0  1  0  0  0  0  0  0  0  0  0
    1.7357    4.4706   25.7818 O   0  0  0  0  0  0  0  0  0  0  0  0
    4.2042    3.8782   25.7962 O   0  5  0  0  0  0  0  0  0  0  0  0
    2.6672    2.9833   27.5916 O   0  0  0  0  0  0  0  0  0  0  0  0
  1  3  1  1  0  0  0
  1 21  1  0  0  0  0
  1 22  1  0  0  0  0
  1 23  2  0  0  0  0
  2  3  1  0  0  0  0
  4  2  1  6  0  0  0
  4  5  1  0  0  0  0
  4  6  1  0  0  0  0
  6  7  1  1  0  0  0
  6  8  1  0  0  0  0
  8  9  1  0  0  0  0
  9  5  1  6  0  0  0
  9 20  1  0  0  0  0
 10 11  1  0  0  0  0
 10 16  1  0  0  0  0
 11 12  1  6  0  0  0
 11 13  1  0  0  0  0
 14 13  1  1  0  0  0
 14 15  1  0  0  0  0
 14 20  1  0  0  0  0
 15 16  1  6  0  0  0
 15 18  1  0  0  0  0
 16 17  2  0  0  0  0
 18 19  1  0  0  0  0
 20 19  1  6  0  0  0
M  CHG  1  22  -1
M  END
>  <CHROM.1>
147.50978353,170.91804620,171.30043843,-5.93738615,4.92283663,4.68047029
30.10975838,2.30553054,-0.83234516,-0.78050228

>  <Name>
ligand

>  <RI>
0

>  <Rbt.Current_Directory>
/home/itssahil/PROJECTS/Mol_Feturizer/Test_systems_manuscript/rnas/3slm

>  <Rbt.Executable>
rbdock ($Id: //depot/dev/client3/rdock/2013.1/src/exe/rbdock.cxx#4 $)

>  <Rbt.Library>
libRbt.so (2013.1, Build901 2013/11/27)

>  <Rbt.Parameter_File>
/export/apps/rDock/src/rDock_2013.1_src/data/scripts/dock_solv.prm

>  <Rbt.Receptor>
prm/blind_docking_80.prm

>  <SCORE>
-19.4636

>  <SCORE.INTER>
-16.2043

>  <SCORE.INTER.CONST>
1

>  <SCORE.INTER.POLAR>
0

>  <SCORE.INTER.ROT>
4

>  <SCORE.INTER.SOLV>
14.7008

>  <SCORE.INTER.VDW>
-21.9698

>  <SCORE.INTER.norm>
-0.704534

>  <SCORE.INTRA>
-3.25927

>  <SCORE.INTRA.DIHEDRAL>
-5.42399

>  <SCORE.INTRA.DIHEDRAL.0>
8.62657

>  <SCORE.INTRA.POLAR>
0

>  <SCORE.INTRA.POLAR.0>
0

>  <SCORE.INTRA.REPUL>
0

>  <SCORE.INTRA.REPUL.0>
0

>  <SCORE.INTRA.SOLV>
0.32976

>  <SCORE.INTRA.SOLV.lig_0>
-66.3641

>  <SCORE.INTRA.VDW>
-0.712152

>  <SCORE.INTRA.VDW.0>
0.452231

>  <SCORE.INTRA.norm>
-0.141707

>  <SCORE.RESTR>
0

>  <SCORE.RESTR.CAVITY>
0

>  <SCORE.RESTR.norm>
0

>  <SCORE.SYSTEM>
0

>  <SCORE.SYSTEM.CONST>
0

>  <SCORE.SYSTEM.DIHEDRAL>
0

>  <SCORE.SYSTEM.SOLV>
0

>  <SCORE.SYSTEM.norm>
0

>  <SCORE.heavy>
23

>  <SCORE.norm>
-0.846242

>  <RMSD>
17.160

$$$$
ligand
 OpenBabel02271912143D
libRbt.so/2013.1/901 2013/11/27
 23 25  0  0  0  0  0  0  0  0999 V2000
    3.9364    3.9217   25.8540 P   0  0  1  0  0  0  0  0  0  0  0  0
    4.0852    5.0846   28.1951 C   0  0  0  0  0  0  0  0  0  0  0  0
    4.0192    5.2322   26.7835 O   0  0  0  0  0  0  0  0  0  0  0  0
    4.2964    6.4617   28.7828 C   0  0  1  0  0  0  0  0  0  0  0  0
    4.3986    6.4283   30.2059 O   0  0  0  0  0  0  0  0  0  0  0  0
    5.5892    7.0439   28.2366 C   0  0  1  0  0  0  0  0  0  0  0  0
    5.3272    8.3911   27.8071 O   0  0  0  0  0  0  0  0  0  0  0  0
    6.5745    6.9926   29.3975 C   0  0  0  0  0  0  0  0  0  0  0  0
    5.6902    6.8775   30.6363 C   0  0  2  0  0  0  0  0  0  0  0  0
    4.4985    2.8989   33.6830 N   0  0  0  0  0  0  0  0  0  0  0  0
    3.6633    3.6832   32.9822 C   0  0  2  0  0  0  0  0  0  0  0  0
    2.3382    3.4179   33.0539 N   0  0  0  0  0  0  0  0  0  0  0  0
    4.1340    4.7003   32.2208 N   0  0  0  0  0  0  0  0  0  0  0  0
    5.4616    4.9330   32.1650 C   0  0  2  0  0  0  0  0  0  0  0  0
    6.3317    4.1386   32.8799 C   0  0  1  0  0  0  0  0  0  0  0  0
    5.8278    3.1024   33.6429 C   0  0  0  0  0  0  0  0  0  0  0  0
    6.6007    2.3663   34.2935 O   0  0  0  0  0  0  0  0  0  0  0  0
    7.5839    4.5847   32.6577 N   0  0  0  0  0  0  0  0  0  0  0  0
    7.4931    5.6298   31.8165 C   0  0  0  0  0  0  0  0  0  0  0  0
    6.2023    5.8371   31.5342 N   0  0  1  0  0  0  0  0  0  0  0  0
    5.2256    3.1611   26.0479 O   0  0  0  0  0  0  0  0  0  0  0  0
    2.7054    3.1996   26.3514 O   0  5  0  0  0  0  0  0  0  0  0  0
    3.7843    4.5037   24.4746 O   0  0  0  0  0  0  0  0  0  0  0  0
  1  3  1  1  0  0  0
  1 21  1  0  0  0  0
  1 22  1  0  0  0  0
  1 23  2  0  0  0  0
  2  3  1  0  0  0  0
  4  2  1  6  0  0  0
  4  5  1  0  0  0  0
  4  6  1  0  0  0  0
  6  7  1  1  0  0  0
  6  8  1  0  0  0  0
  8  9  1  0  0  0  0
  9  5  1  6  0  0  0
  9 20  1  0  0  0  0
 10 11  1  0  0  0  0
 10 16  1  0  0  0  0
 11 12  1  6  0  0  0
 11 13  1  0  0  0  0
 14 13  1  1  0  0  0
 14 15  1  0  0  0  0
 14 20  1  0  0  0  0
 15 16  1  6  0  0  0
 15 18  1  0  0  0  0
 16 17  2  0  0  0  0
 18 19  1  0  0  0  0
 20 19  1  6  0  0  0
M  CHG  1  22  -1
M  END
>  <CHROM.1>
-64.12094783,-179.10637981,174.29985530,-20.71076575,4.93752584,4.84203188
29.79095818,1.96468262,-1.00906658,-1.11717042

>  <Name>
ligand

>  <RI>
0

>  <Rbt.Current_Directory>
/home/itssahil/PROJECTS/Mol_Feturizer/Test_systems_manuscript/rnas/3slm

>  <Rbt.Executable>
rbdock ($Id: //depot/dev/client3/rdock/2013.1/src/exe/rbdock.cxx#4 $)

>  <Rbt.Library>
libRbt.so (2013.1, Build901 2013/11/27)

>  <Rbt.Parameter_File>
/export/apps/rDock/src/rDock_2013.1_src/data/scripts/dock_solv.prm

>  <Rbt.Receptor>
prm/blind_docking_100.prm

>  <SCORE>
-20.8012

>  <SCORE.INTER>
-15.9656

>  <SCORE.INTER.CONST>
1

>  <SCORE.INTER.POLAR>
0

>  <SCORE.INTER.ROT>
4

>  <SCORE.INTER.SOLV>
11.8879

>  <SCORE.INTER.VDW>
-20.873

>  <SCORE.INTER.norm>
-0.694155

>  <SCORE.INTRA>
-4.83633

>  <SCORE.INTRA.DIHEDRAL>
-7.18879

>  <SCORE.INTRA.DIHEDRAL.0>
8.62657

>  <SCORE.INTRA.POLAR>
0

>  <SCORE.INTRA.POLAR.0>
0

>  <SCORE.INTRA.REPUL>
0

>  <SCORE.INTRA.REPUL.0>
0

>  <SCORE.INTRA.SOLV>
-0.416282

>  <SCORE.INTRA.SOLV.lig_0>
-66.3641

>  <SCORE.INTRA.VDW>
-1.0338

>  <SCORE.INTRA.VDW.0>
0.452231

>  <SCORE.INTRA.norm>
-0.210275

>  <SCORE.RESTR>
0.000682656

>  <SCORE.RESTR.CAVITY>
0.000682656

>  <SCORE.RESTR.norm>
2.96807e-05

>  <SCORE.SYSTEM>
0

>  <SCORE.SYSTEM.CONST>
0

>  <SCORE.SYSTEM.DIHEDRAL>
0

>  <SCORE.SYSTEM.SOLV>
0

>  <SCORE.SYSTEM.norm>
0

>  <SCORE.heavy>
23

>  <SCORE.norm>
-0.904401

>  <RMSD>
17.190

$$$$
ligand
 OpenBabel02271912143D
libRbt.so/2013.1/901 2013/11/27
 23 25  0  0  0  0  0  0  0  0999 V2000
    3.8210    3.5324   25.8307 P   0  0  1  0  0  0  0  0  0  0  0  0
    4.0315    4.9191   28.0416 C   0  0  0  0  0  0  0  0  0  0  0  0
    3.9217    4.9278   26.6251 O   0  0  0  0  0  0  0  0  0  0  0  0
    4.1638    6.3564   28.4921 C   0  0  1  0  0  0  0  0  0  0  0  0
    4.1521    6.4766   29.9142 O   0  0  0  0  0  0  0  0  0  0  0  0
    5.4828    6.9175   27.9881 C   0  0  1  0  0  0  0  0  0  0  0  0
    5.2257    8.2030   27.3971 O   0  0  0  0  0  0  0  0  0  0  0  0
    6.3726    7.0196   29.2206 C   0  0  0  0  0  0  0  0  0  0  0  0
    5.3945    7.0086   30.3923 C   0  0  2  0  0  0  0  0  0  0  0  0
    4.5029    2.5899   32.8847 N   0  0  0  0  0  0  0  0  0  0  0  0
    3.7651    3.1565   31.9160 C   0  0  2  0  0  0  0  0  0  0  0  0
    2.6473    2.5089   31.5128 N   0  0  0  0  0  0  0  0  0  0  0  0
    4.1341    4.3332   31.3547 N   0  0  0  0  0  0  0  0  0  0  0  0
    5.2586    4.9490   31.7744 C   0  0  2  0  0  0  0  0  0  0  0  0
    6.0256    4.3816   32.7689 C   0  0  1  0  0  0  0  0  0  0  0  0
    5.6324    3.1769   33.3201 C   0  0  0  0  0  0  0  0  0  0  0  0
    6.3176    2.6426   34.2186 O   0  0  0  0  0  0  0  0  0  0  0  0
    7.0754    5.1939   33.0021 N   0  0  0  0  0  0  0  0  0  0  0  0
    6.9659    6.2401   32.1644 C   0  0  0  0  0  0  0  0  0  0  0  0
    5.8563    6.0852   31.4339 N   0  0  1  0  0  0  0  0  0  0  0  0
    5.1667    2.8592   25.9491 O   0  0  0  0  0  0  0  0  0  0  0  0
    2.6944    2.8000   26.5225 O   0  5  0  0  0  0  0  0  0  0  0  0
    3.4908    3.9722   24.4300 O   0  0  0  0  0  0  0  0  0  0  0  0
  1  3  1  1  0  0  0
  1 21  1  0  0  0  0
  1 22  1  0  0  0  0
  1 23  2  0  0  0  0
  2  3  1  0  0  0  0
  4  2  1  1  0  0  0
  4  5  1  0  0  0  0
  4  6  1  0  0  0  0
  6  7  1  1  0  0  0
  6  8  1  0  0  0  0
  8  9  1  0  0  0  0
  9  5  1  6  0  0  0
  9 20  1  0  0  0  0
 10 11  1  0  0  0  0
 10 16  1  0  0  0  0
 11 12  1  6  0  0  0
 11 13  1  0  0  0  0
 14 13  1  1  0  0  0
 14 15  1  0  0  0  0
 14 20  1  0  0  0  0
 15 16  1  6  0  0  0
 15 18  1  0  0  0  0
 16 17  2  0  0  0  0
 18 19  1  0  0  0  0
 20 19  1  6  0  0  0
M  CHG  1  22  -1
M  END
>  <CHROM.1>
-69.35616387,174.36076175,177.74099274,3.93760379,4.78249062,4.71588004,29.52615395
2.15306093,-1.11144918,-1.01456992

>  <Name>
ligand

>  <RI>
0

>  <Rbt.Current_Directory>
/home/itssahil/PROJECTS/Mol_Feturizer/Test_systems_manuscript/rnas/3slm

>  <Rbt.Executable>
rbdock ($Id: //depot/dev/client3/rdock/2013.1/src/exe/rbdock.cxx#4 $)

>  <Rbt.Library>
libRbt.so (2013.1, Build901 2013/11/27)

>  <Rbt.Parameter_File>
/export/apps/rDock/src/rDock_2013.1_src/data/scripts/dock_solv.prm

>  <Rbt.Receptor>
prm/blind_docking_80.prm

>  <SCORE>
-20.3689

>  <SCORE.INTER>
-15.2697

>  <SCORE.INTER.CONST>
1

>  <SCORE.INTER.POLAR>
0

>  <SCORE.INTER.ROT>
4

>  <SCORE.INTER.SOLV>
11.6909

>  <SCORE.INTER.VDW>
-20.3435

>  <SCORE.INTER.norm>
-0.663902

>  <SCORE.INTRA>
-5.09913

>  <SCORE.INTRA.DIHEDRAL>
-7.17017

>  <SCORE.INTRA.DIHEDRAL.0>
8.62657

>  <SCORE.INTRA.POLAR>
0

>  <SCORE.INTRA.POLAR.0>
0

>  <SCORE.INTRA.REPUL>
0

>  <SCORE.INTRA.REPUL.0>
0

>  <SCORE.INTRA.SOLV>
-0.0915255

>  <SCORE.INTRA.SOLV.lig_0>
-66.3641

>  <SCORE.INTRA.VDW>
-1.46828

>  <SCORE.INTRA.VDW.0>
0.452231

>  <SCORE.INTRA.norm>
-0.221701

>  <SCORE.RESTR>
0

>  <SCORE.RESTR.CAVITY>
0

>  <SCORE.RESTR.norm>
0

>  <SCORE.SYSTEM>
0

>  <SCORE.SYSTEM.CONST>
0

>  <SCORE.SYSTEM.DIHEDRAL>
0

>  <SCORE.SYSTEM.SOLV>
0

>  <SCORE.SYSTEM.norm>
0

>  <SCORE.heavy>
23

>  <SCORE.norm>
-0.885603

>  <RMSD>
17.208

$$$$
ligand
 OpenBabel02271912143D
libRbt.so/2013.1/901 2013/11/27
 23 25  0  0  0  0  0  0  0  0999 V2000
    3.8102    4.1770   26.2718 P   0  0  1  0  0  0  0  0  0  0  0  0
    2.8807    5.9298   27.9802 C   0  0  0  0  0  0  0  0  0  0  0  0
    2.6037    5.0119   26.9317 O   0  0  0  0  0  0  0  0  0  0  0  0
    3.3844    5.1283   29.1593 C   0  0  1  0  0  0  0  0  0  0  0  0
    4.7886    5.2889   29.3573 O   0  0  0  0  0  0  0  0  0  0  0  0
    2.6794    5.5995   30.4201 C   0  0  1  0  0  0  0  0  0  0  0  0
    2.2244    4.4398   31.1385 O   0  0  0  0  0  0  0  0  0  0  0  0
    3.7296    6.3819   31.1986 C   0  0  0  0  0  0  0  0  0  0  0  0
    5.0594    5.8982   30.6264 C   0  0  2  0  0  0  0  0  0  0  0  0
    6.6916    9.2747   27.0955 N   0  0  0  0  0  0  0  0  0  0  0  0
    5.8078    8.2758   26.9383 C   0  0  2  0  0  0  0  0  0  0  0  0
    5.2492    8.1131   25.7163 N   0  0  0  0  0  0  0  0  0  0  0  0
    5.4795    7.4643   27.9724 N   0  0  0  0  0  0  0  0  0  0  0  0
    6.0488    7.6587   29.1798 C   0  0  2  0  0  0  0  0  0  0  0  0
    6.9591    8.6780   29.3571 C   0  0  1  0  0  0  0  0  0  0  0  0
    7.2716    9.4972   28.2889 C   0  0  0  0  0  0  0  0  0  0  0  0
    8.0899   10.4314   28.4306 O   0  0  0  0  0  0  0  0  0  0  0  0
    7.3766    8.6478   30.6381 N   0  0  0  0  0  0  0  0  0  0  0  0
    6.7331    7.6350   31.2450 C   0  0  0  0  0  0  0  0  0  0  0  0
    5.9402    7.0376   30.3488 N   0  0  1  0  0  0  0  0  0  0  0  0
    4.9589    5.1374   26.0811 O   0  0  0  0  0  0  0  0  0  0  0  0
    4.0785    3.0742   27.2698 O   0  5  0  0  0  0  0  0  0  0  0  0
    3.2102    3.6943   24.9789 O   0  0  0  0  0  0  0  0  0  0  0  0
  1  3  1  1  0  0  0
  1 21  1  0  0  0  0
  1 22  1  0  0  0  0
  1 23  2  0  0  0  0
  2  3  1  0  0  0  0
  4  2  1  6  0  0  0
  4  5  1  0  0  0  0
  4  6  1  0  0  0  0
  6  7  1  1  0  0  0
  6  8  1  0  0  0  0
  8  9  1  0  0  0  0
  9  5  1  6  0  0  0
  9 20  1  0  0  0  0
 10 11  1  0  0  0  0
 10 16  1  0  0  0  0
 11 12  1  1  0  0  0
 11 13  1  0  0  0  0
 14 13  1  6  0  0  0
 14 15  1  0  0  0  0
 14 20  1  0  0  0  0
 15 16  1  1  0  0  0
 15 18  1  0  0  0  0
 16 17  2  0  0  0  0
 18 19  1  0  0  0  0
 20 19  1  1  0  0  0
M  CHG  1  22  -1
M  END
>  <CHROM.1>
-42.90234385,106.74198903,-64.97656405,22.35463514,4.87854997,6.41134413
28.37577846,-2.75636265,0.87747384,1.45949851

>  <Name>
ligand

>  <RI>
0

>  <Rbt.Current_Directory>
/home/itssahil/PROJECTS/Mol_Feturizer/Test_systems_manuscript/rnas/3slm

>  <Rbt.Executable>
rbdock ($Id: //depot/dev/client3/rdock/2013.1/src/exe/rbdock.cxx#4 $)

>  <Rbt.Library>
libRbt.so (2013.1, Build901 2013/11/27)

>  <Rbt.Parameter_File>
/export/apps/rDock/src/rDock_2013.1_src/data/scripts/dock_solv.prm

>  <Rbt.Receptor>
prm/blind_docking_100.prm

>  <SCORE>
-17.2363

>  <SCORE.INTER>
-15.5244

>  <SCORE.INTER.CONST>
1

>  <SCORE.INTER.POLAR>
0

>  <SCORE.INTER.ROT>
4

>  <SCORE.INTER.SOLV>
13.5451

>  <SCORE.INTER.VDW>
-21.1313

>  <SCORE.INTER.norm>
-0.674973

>  <SCORE.INTRA>
-1.71191

>  <SCORE.INTRA.DIHEDRAL>
-2.21082

>  <SCORE.INTRA.DIHEDRAL.0>
8.62657

>  <SCORE.INTRA.POLAR>
0

>  <SCORE.INTRA.POLAR.0>
0

>  <SCORE.INTRA.REPUL>
0

>  <SCORE.INTRA.REPUL.0>
0

>  <SCORE.INTRA.SOLV>
4.4782

>  <SCORE.INTRA.SOLV.lig_0>
-66.3641

>  <SCORE.INTRA.VDW>
-2.8456

>  <SCORE.INTRA.VDW.0>
0.452231

>  <SCORE.INTRA.norm>
-0.0744307

>  <SCORE.RESTR>
0

>  <SCORE.RESTR.CAVITY>
0

>  <SCORE.RESTR.norm>
0

>  <SCORE.SYSTEM>
0

>  <SCORE.SYSTEM.CONST>
0

>  <SCORE.SYSTEM.DIHEDRAL>
0

>  <SCORE.SYSTEM.SOLV>
0

>  <SCORE.SYSTEM.norm>
0

>  <SCORE.heavy>
23

>  <SCORE.norm>
-0.749404

>  <RMSD>
17.225

$$$$
ligand
 OpenBabel02271912143D
libRbt.so/2013.1/901 2013/11/27
 23 25  0  0  0  0  0  0  0  0999 V2000
    3.5810    5.6033   31.6657 P   0  0  1  0  0  0  0  0  0  0  0  0
    5.3635    6.8477   30.2065 C   0  0  0  0  0  0  0  0  0  0  0  0
    4.1625    6.0897   30.2467 O   0  0  0  0  0  0  0  0  0  0  0  0
    5.6550    7.1534   28.7545 C   0  0  1  0  0  0  0  0  0  0  0  0
    5.7389    5.9689   27.9629 O   0  0  0  0  0  0  0  0  0  0  0  0
    4.5349    8.0117   28.1912 C   0  0  1  0  0  0  0  0  0  0  0  0
    5.1285    9.1087   27.4754 O   0  0  0  0  0  0  0  0  0  0  0  0
    3.7442    7.0879   27.2734 C   0  0  0  0  0  0  0  0  0  0  0  0
    4.7109    5.9479   26.9639 C   0  0  2  0  0  0  0  0  0  0  0  0
    2.1781    2.1665   24.5520 N   0  0  0  0  0  0  0  0  0  0  0  0
    2.6635    3.3031   24.0265 C   0  0  2  0  0  0  0  0  0  0  0  0
    2.4929    3.5091   22.6998 N   0  0  0  0  0  0  0  0  0  0  0  0
    3.3112    4.2089   24.7985 N   0  0  0  0  0  0  0  0  0  0  0  0
    3.4712    3.9692   26.1163 C   0  0  2  0  0  0  0  0  0  0  0  0
    2.9772    2.8085   26.6713 C   0  0  1  0  0  0  0  0  0  0  0  0
    2.3272    1.8966   25.8616 C   0  0  0  0  0  0  0  0  0  0  0  0
    1.8776    0.8349   26.3442 O   0  0  0  0  0  0  0  0  0  0  0  0
    3.2613    2.8209   27.9887 N   0  0  0  0  0  0  0  0  0  0  0  0
    3.9244    3.9625   28.2444 C   0  0  0  0  0  0  0  0  0  0  0  0
    4.0357    4.6537   27.1048 N   0  0  1  0  0  0  0  0  0  0  0  0
    3.3156    6.8445   32.4826 O   0  0  0  0  0  0  0  0  0  0  0  0
    2.3412    4.8193   31.3019 O   0  5  0  0  0  0  0  0  0  0  0  0
    4.6993    4.7552   32.2083 O   0  0  0  0  0  0  0  0  0  0  0  0
  1  3  1  6  0  0  0
  1 21  1  0  0  0  0
  1 22  1  0  0  0  0
  1 23  2  0  0  0  0
  2  3  1  0  0  0  0
  4  2  1  1  0  0  0
  4  5  1  0  0  0  0
  4  6  1  0  0  0  0
  6  7  1  6  0  0  0
  6  8  1  0  0  0  0
  8  9  1  0  0  0  0
  9  5  1  1  0  0  0
  9 20  1  0  0  0  0
 10 11  1  0  0  0  0
 10 16  1  0  0  0  0
 11 12  1  6  0  0  0
 11 13  1  0  0  0  0
 14 13  1  1  0  0  0
 14 15  1  0  0  0  0
 14 20  1  0  0  0  0
 15 16  1  6  0  0  0
 15 18  1  0  0  0  0
 16 17  2  0  0  0  0
 18 19  1  0  0  0  0
 20 19  1  6  0  0  0
M  CHG  1  22  -1
M  END
>  <CHROM.1>
59.82451783,-56.39757767,179.95722805,-148.89584443,3.72580169,4.97756929
28.10683131,1.03863119,1.12203949,1.51278598

>  <Name>
ligand

>  <RI>
0

>  <Rbt.Current_Directory>
/home/itssahil/PROJECTS/Mol_Feturizer/Test_systems_manuscript/rnas/3slm

>  <Rbt.Executable>
rbdock ($Id: //depot/dev/client3/rdock/2013.1/src/exe/rbdock.cxx#4 $)

>  <Rbt.Library>
libRbt.so (2013.1, Build901 2013/11/27)

>  <Rbt.Parameter_File>
/export/apps/rDock/src/rDock_2013.1_src/data/scripts/dock_solv.prm

>  <Rbt.Receptor>
prm/blind_docking_80.prm

>  <SCORE>
-17.8704

>  <SCORE.INTER>
-11.6749

>  <SCORE.INTER.CONST>
1

>  <SCORE.INTER.POLAR>
0

>  <SCORE.INTER.ROT>
4

>  <SCORE.INTER.SOLV>
8.34954

>  <SCORE.INTER.VDW>
-16.8331

>  <SCORE.INTER.norm>
-0.507605

>  <SCORE.INTRA>
-6.19551

>  <SCORE.INTRA.DIHEDRAL>
-7.31894

>  <SCORE.INTRA.DIHEDRAL.0>
8.62657

>  <SCORE.INTRA.POLAR>
0

>  <SCORE.INTRA.POLAR.0>
0

>  <SCORE.INTRA.REPUL>
0

>  <SCORE.INTRA.REPUL.0>
0

>  <SCORE.INTRA.SOLV>
-0.0141185

>  <SCORE.INTRA.SOLV.lig_0>
-66.3641

>  <SCORE.INTRA.VDW>
-2.52898

>  <SCORE.INTRA.VDW.0>
0.452231

>  <SCORE.INTRA.norm>
-0.26937

>  <SCORE.RESTR>
0

>  <SCORE.RESTR.CAVITY>
0

>  <SCORE.RESTR.norm>
0

>  <SCORE.SYSTEM>
0

>  <SCORE.SYSTEM.CONST>
0

>  <SCORE.SYSTEM.DIHEDRAL>
0

>  <SCORE.SYSTEM.SOLV>
0

>  <SCORE.SYSTEM.norm>
0

>  <SCORE.heavy>
23

>  <SCORE.norm>
-0.776975

>  <RMSD>
17.251

$$$$
ligand
 OpenBabel02271912143D
libRbt.so/2013.1/901 2013/11/27
 23 25  0  0  0  0  0  0  0  0999 V2000
    4.0485    3.0148   32.8821 P   0  0  1  0  0  0  0  0  0  0  0  0
    3.5087    4.5889   30.8606 C   0  0  0  0  0  0  0  0  0  0  0  0
    3.4562    3.2795   31.4099 O   0  0  0  0  0  0  0  0  0  0  0  0
    2.7737    4.5531   29.5397 C   0  0  1  0  0  0  0  0  0  0  0  0
    2.6852    5.8449   28.9394 O   0  0  0  0  0  0  0  0  0  0  0  0
    3.5197    3.6430   28.5785 C   0  0  1  0  0  0  0  0  0  0  0  0
    2.5638    2.7626   27.9627 O   0  0  0  0  0  0  0  0  0  0  0  0
    4.1746    4.5767   27.5683 C   0  0  0  0  0  0  0  0  0  0  0  0
    3.3799    5.8745   27.6857 C   0  0  2  0  0  0  0  0  0  0  0  0
    7.5021    7.9340   29.9873 N   0  0  0  0  0  0  0  0  0  0  0  0
    6.9106    6.7570   30.2490 C   0  0  2  0  0  0  0  0  0  0  0  0
    7.4429    5.9858   31.2255 N   0  0  0  0  0  0  0  0  0  0  0  0
    5.8224    6.3516   29.5509 N   0  0  0  0  0  0  0  0  0  0  0  0
    5.3216    7.1409   28.5784 C   0  0  2  0  0  0  0  0  0  0  0  0
    5.9157    8.3525   28.2990 C   0  0  1  0  0  0  0  0  0  0  0  0
    7.0294    8.7402   29.0196 C   0  0  0  0  0  0  0  0  0  0  0  0
    7.5869    9.8324   28.7772 O   0  0  0  0  0  0  0  0  0  0  0  0
    5.2224    8.9385   27.3029 N   0  0  0  0  0  0  0  0  0  0  0  0
    4.2229    8.1043   26.9662 C   0  0  0  0  0  0  0  0  0  0  0  0
    4.2876    7.0245   27.7528 N   0  0  1  0  0  0  0  0  0  0  0  0
    3.9441    1.5312   33.1395 O   0  0  0  0  0  0  0  0  0  0  0  0
    5.4650    3.5360   32.8038 O   0  5  0  0  0  0  0  0  0  0  0  0
    3.1440    3.8410   33.7560 O   0  0  0  0  0  0  0  0  0  0  0  0
  1  3  1  6  0  0  0
  1 21  1  0  0  0  0
  1 22  1  0  0  0  0
  1 23  2  0  0  0  0
  2  3  1  0  0  0  0
  4  2  1  1  0  0  0
  4  5  1  0  0  0  0
  4  6  1  0  0  0  0
  6  7  1  6  0  0  0
  6  8  1  0  0  0  0
  8  9  1  0  0  0  0
  9  5  1  1  0  0  0
  9 20  1  0  0  0  0
 10 11  1  0  0  0  0
 10 16  1  0  0  0  0
 11 12  1  6  0  0  0
 11 13  1  0  0  0  0
 14 13  1  1  0  0  0
 14 15  1  0  0  0  0
 14 20  1  0  0  0  0
 15 16  1  6  0  0  0
 15 18  1  0  0  0  0
 16 17  2  0  0  0  0
 18 19  1  0  0  0  0
 20 19  1  6  0  0  0
M  CHG  1  22  -1
M  END
>  <CHROM.1>
-175.84265228,175.99182648,-174.95646344,65.55248182,4.69715398,5.50388048
29.94100824,-2.02742682,-0.73210170,-0.95236762

>  <Name>
ligand

>  <RI>
0

>  <Rbt.Current_Directory>
/home/itssahil/PROJECTS/Mol_Feturizer/Test_systems_manuscript/rnas/3slm

>  <Rbt.Executable>
rbdock ($Id: //depot/dev/client3/rdock/2013.1/src/exe/rbdock.cxx#4 $)

>  <Rbt.Library>
libRbt.so (2013.1, Build901 2013/11/27)

>  <Rbt.Parameter_File>
/export/apps/rDock/src/rDock_2013.1_src/data/scripts/dock_solv.prm

>  <Rbt.Receptor>
prm/blind_docking_60.prm

>  <SCORE>
-20.6109

>  <SCORE.INTER>
-15.8439

>  <SCORE.INTER.CONST>
1

>  <SCORE.INTER.POLAR>
0

>  <SCORE.INTER.ROT>
4

>  <SCORE.INTER.SOLV>
13.0839

>  <SCORE.INTER.VDW>
-21.1906

>  <SCORE.INTER.norm>
-0.688866

>  <SCORE.INTRA>
-4.76701

>  <SCORE.INTRA.DIHEDRAL>
-7.19329

>  <SCORE.INTRA.DIHEDRAL.0>
8.62657

>  <SCORE.INTRA.POLAR>
0

>  <SCORE.INTRA.POLAR.0>
0

>  <SCORE.INTRA.REPUL>
0

>  <SCORE.INTRA.REPUL.0>
0

>  <SCORE.INTRA.SOLV>
2.20108

>  <SCORE.INTRA.SOLV.lig_0>
-66.3641

>  <SCORE.INTRA.VDW>
-2.2709

>  <SCORE.INTRA.VDW.0>
0.452231

>  <SCORE.INTRA.norm>
-0.207261

>  <SCORE.RESTR>
0

>  <SCORE.RESTR.CAVITY>
0

>  <SCORE.RESTR.norm>
0

>  <SCORE.SYSTEM>
0

>  <SCORE.SYSTEM.CONST>
0

>  <SCORE.SYSTEM.DIHEDRAL>
0

>  <SCORE.SYSTEM.SOLV>
0

>  <SCORE.SYSTEM.norm>
0

>  <SCORE.heavy>
23

>  <SCORE.norm>
-0.896127

>  <RMSD>
17.272

$$$$
ligand
 OpenBabel02271912143D
libRbt.so/2013.1/901 2013/11/27
 23 25  0  0  0  0  0  0  0  0999 V2000
    3.6021    3.2959   25.3819 P   0  0  1  0  0  0  0  0  0  0  0  0
    3.9812    5.1495   27.1918 C   0  0  0  0  0  0  0  0  0  0  0  0
    3.7584    4.8348   25.8243 O   0  0  0  0  0  0  0  0  0  0  0  0
    3.9242    6.6548   27.3229 C   0  0  1  0  0  0  0  0  0  0  0  0
    4.0856    7.0826   28.6748 O   0  0  0  0  0  0  0  0  0  0  0  0
    5.0458    7.2695   26.5027 C   0  0  1  0  0  0  0  0  0  0  0  0
    4.4932    8.3444   25.7235 O   0  0  0  0  0  0  0  0  0  0  0  0
    6.0641    7.7639   27.5225 C   0  0  0  0  0  0  0  0  0  0  0  0
    5.2712    7.8749   28.8220 C   0  0  2  0  0  0  0  0  0  0  0  0
    5.1524    4.5713   32.7722 N   0  0  0  0  0  0  0  0  0  0  0  0
    4.1581    4.8838   31.9251 C   0  0  2  0  0  0  0  0  0  0  0  0
    2.9661    4.2657   32.0946 N   0  0  0  0  0  0  0  0  0  0  0  0
    4.3463    5.7814   30.9278 N   0  0  0  0  0  0  0  0  0  0  0  0
    5.5494    6.3738   30.7816 C   0  0  2  0  0  0  0  0  0  0  0  0
    6.5793    6.0655   31.6437 C   0  0  1  0  0  0  0  0  0  0  0  0
    6.3649    5.1409   32.6481 C   0  0  0  0  0  0  0  0  0  0  0  0
    7.2879    4.8427   33.4365 O   0  0  0  0  0  0  0  0  0  0  0  0
    7.6558    6.7935   31.2865 N   0  0  0  0  0  0  0  0  0  0  0  0
    7.3031    7.5328   30.2201 C   0  0  0  0  0  0  0  0  0  0  0  0
    6.0225    7.2775   29.9309 N   0  0  1  0  0  0  0  0  0  0  0  0
    2.4690    2.7164   26.1933 O   0  0  0  0  0  0  0  0  0  0  0  0
    3.3315    3.3697   23.8968 O   0  5  0  0  0  0  0  0  0  0  0  0
    4.9464    2.7144   25.7269 O   0  0  0  0  0  0  0  0  0  0  0  0
  1  3  1  1  0  0  0
  1 21  1  0  0  0  0
  1 22  1  0  0  0  0
  1 23  2  0  0  0  0
  2  3  1  0  0  0  0
  4  2  1  1  0  0  0
  4  5  1  0  0  0  0
  4  6  1  0  0  0  0
  6  7  1  1  0  0  0
  6  8  1  0  0  0  0
  8  9  1  0  0  0  0
  9  5  1  6  0  0  0
  9 20  1  0  0  0  0
 10 11  1  0  0  0  0
 10 16  1  0  0  0  0
 11 12  1  6  0  0  0
 11 13  1  0  0  0  0
 14 13  1  1  0  0  0
 14 15  1  0  0  0  0
 14 20  1  0  0  0  0
 15 16  1  6  0  0  0
 15 18  1  0  0  0  0
 16 17  2  0  0  0  0
 18 19  1  0  0  0  0
 20 19  1  6  0  0  0
M  CHG  1  22  -1
M  END
>  <CHROM.1>
56.59842482,177.75186861,-173.52589504,-12.61734180,4.84988133,5.50203207
28.65843254,2.39815086,-1.10495868,-1.04774308

>  <Name>
ligand

>  <RI>
0

>  <Rbt.Current_Directory>
/home/itssahil/PROJECTS/Mol_Feturizer/Test_systems_manuscript/rnas/3slm

>  <Rbt.Executable>
rbdock ($Id: //depot/dev/client3/rdock/2013.1/src/exe/rbdock.cxx#4 $)

>  <Rbt.Library>
libRbt.so (2013.1, Build901 2013/11/27)

>  <Rbt.Parameter_File>
/export/apps/rDock/src/rDock_2013.1_src/data/scripts/dock_solv.prm

>  <Rbt.Receptor>
prm/blind_docking_100.prm

>  <SCORE>
-19.6796

>  <SCORE.INTER>
-14.7293

>  <SCORE.INTER.CONST>
1

>  <SCORE.INTER.POLAR>
0

>  <SCORE.INTER.ROT>
4

>  <SCORE.INTER.SOLV>
11.5251

>  <SCORE.INTER.VDW>
-19.9279

>  <SCORE.INTER.norm>
-0.640406

>  <SCORE.INTRA>
-4.95022

>  <SCORE.INTRA.DIHEDRAL>
-7.15078

>  <SCORE.INTRA.DIHEDRAL.0>
8.62657

>  <SCORE.INTRA.POLAR>
0

>  <SCORE.INTRA.POLAR.0>
0

>  <SCORE.INTRA.REPUL>
0

>  <SCORE.INTRA.REPUL.0>
0

>  <SCORE.INTRA.SOLV>
-0.466318

>  <SCORE.INTRA.SOLV.lig_0>
-66.3641

>  <SCORE.INTRA.VDW>
-1.14168

>  <SCORE.INTRA.VDW.0>
0.452231

>  <SCORE.INTRA.norm>
-0.215227

>  <SCORE.RESTR>
0

>  <SCORE.RESTR.CAVITY>
0

>  <SCORE.RESTR.norm>
0

>  <SCORE.SYSTEM>
0

>  <SCORE.SYSTEM.CONST>
0

>  <SCORE.SYSTEM.DIHEDRAL>
0

>  <SCORE.SYSTEM.SOLV>
0

>  <SCORE.SYSTEM.norm>
0

>  <SCORE.heavy>
23

>  <SCORE.norm>
-0.855633

>  <RMSD>
17.288

$$$$
ligand
 OpenBabel02271912143D
libRbt.so/2013.1/901 2013/11/27
 23 25  0  0  0  0  0  0  0  0999 V2000
    3.7332    3.2139   25.4540 P   0  0  1  0  0  0  0  0  0  0  0  0
    3.9771    5.1029   27.2506 C   0  0  0  0  0  0  0  0  0  0  0  0
    3.7294    4.7615   25.8938 O   0  0  0  0  0  0  0  0  0  0  0  0
    3.9135    6.6101   27.3547 C   0  0  1  0  0  0  0  0  0  0  0  0
    4.0480    7.0613   28.7020 O   0  0  0  0  0  0  0  0  0  0  0  0
    5.0489    7.2141   26.5457 C   0  0  1  0  0  0  0  0  0  0  0  0
    4.5084    8.2739   25.7378 O   0  0  0  0  0  0  0  0  0  0  0  0
    6.0462    7.7289   27.5760 C   0  0  0  0  0  0  0  0  0  0  0  0
    5.2285    7.8597   28.8581 C   0  0  2  0  0  0  0  0  0  0  0  0
    5.0592    4.5876   32.8327 N   0  0  0  0  0  0  0  0  0  0  0  0
    4.0824    4.8772   31.9576 C   0  0  2  0  0  0  0  0  0  0  0  0
    2.8963    4.2417   32.1018 N   0  0  0  0  0  0  0  0  0  0  0  0
    4.2822    5.7694   30.9576 N   0  0  0  0  0  0  0  0  0  0  0  0
    5.4793    6.3795   30.8373 C   0  0  2  0  0  0  0  0  0  0  0  0
    6.4913    6.0948   31.7283 C   0  0  1  0  0  0  0  0  0  0  0  0
    6.2654    5.1753   32.7349 C   0  0  0  0  0  0  0  0  0  0  0  0
    7.1723    4.8984   33.5493 O   0  0  0  0  0  0  0  0  0  0  0  0
    7.5651    6.8368   31.3926 N   0  0  0  0  0  0  0  0  0  0  0  0
    7.2286    7.5615   30.3110 C   0  0  0  0  0  0  0  0  0  0  0  0
    5.9600    7.2835   29.9911 N   0  0  1  0  0  0  0  0  0  0  0  0
    5.1241    2.6862   25.7091 O   0  0  0  0  0  0  0  0  0  0  0  0
    2.6609    2.5878   26.3156 O   0  5  0  0  0  0  0  0  0  0  0  0
    3.3760    3.2841   23.9939 O   0  0  0  0  0  0  0  0  0  0  0  0
  1  3  1  1  0  0  0
  1 21  1  0  0  0  0
  1 22  1  0  0  0  0
  1 23  2  0  0  0  0
  2  3  1  0  0  0  0
  4  2  1  1  0  0  0
  4  5  1  0  0  0  0
  4  6  1  0  0  0  0
  6  7  1  1  0  0  0
  6  8  1  0  0  0  0
  8  9  1  0  0  0  0
  9  5  1  6  0  0  0
  9 20  1  0  0  0  0
 10 11  1  0  0  0  0
 10 16  1  0  0  0  0
 11 12  1  6  0  0  0
 11 13  1  0  0  0  0
 14 13  1  1  0  0  0
 14 15  1  0  0  0  0
 14 20  1  0  0  0  0
 15 16  1  6  0  0  0
 15 18  1  0  0  0  0
 16 17  2  0  0  0  0
 18 19  1  0  0  0  0
 20 19  1  6  0  0  0
M  CHG  1  22  -1
M  END
>  <CHROM.1>
-62.71043089,175.52591358,179.84267698,-11.64996176,4.84055601,5.47468108
28.71712637,2.37602824,-1.13243366,-1.07688846

>  <Name>
ligand

>  <RI>
0

>  <Rbt.Current_Directory>
/home/itssahil/PROJECTS/Mol_Feturizer/Test_systems_manuscript/rnas/3slm

>  <Rbt.Executable>
rbdock ($Id: //depot/dev/client3/rdock/2013.1/src/exe/rbdock.cxx#4 $)

>  <Rbt.Library>
libRbt.so (2013.1, Build901 2013/11/27)

>  <Rbt.Parameter_File>
/export/apps/rDock/src/rDock_2013.1_src/data/scripts/dock_solv.prm

>  <Rbt.Receptor>
prm/blind_docking_40.prm

>  <SCORE>
-20.9198

>  <SCORE.INTER>
-15.8007

>  <SCORE.INTER.CONST>
1

>  <SCORE.INTER.POLAR>
0

>  <SCORE.INTER.ROT>
4

>  <SCORE.INTER.SOLV>
9.09017

>  <SCORE.INTER.VDW>
-19.8305

>  <SCORE.INTER.norm>
-0.686987

>  <SCORE.INTRA>
-5.11907

>  <SCORE.INTRA.DIHEDRAL>
-7.31013

>  <SCORE.INTRA.DIHEDRAL.0>
8.62657

>  <SCORE.INTRA.POLAR>
0

>  <SCORE.INTRA.POLAR.0>
0

>  <SCORE.INTRA.REPUL>
0

>  <SCORE.INTRA.REPUL.0>
0

>  <SCORE.INTRA.SOLV>
-0.442465

>  <SCORE.INTRA.SOLV.lig_0>
-66.3641

>  <SCORE.INTRA.VDW>
-1.24278

>  <SCORE.INTRA.VDW.0>
0.452231

>  <SCORE.INTRA.norm>
-0.222568

>  <SCORE.RESTR>
0

>  <SCORE.RESTR.CAVITY>
0

>  <SCORE.RESTR.norm>
0

>  <SCORE.SYSTEM>
0

>  <SCORE.SYSTEM.CONST>
0

>  <SCORE.SYSTEM.DIHEDRAL>
0

>  <SCORE.SYSTEM.SOLV>
0

>  <SCORE.SYSTEM.norm>
0

>  <SCORE.heavy>
23

>  <SCORE.norm>
-0.909556

>  <RMSD>
17.294

$$$$
ligand
 OpenBabel02271912143D
libRbt.so/2013.1/901 2013/11/27
 23 25  0  0  0  0  0  0  0  0999 V2000
    3.5536    3.3139   25.3407 P   0  0  1  0  0  0  0  0  0  0  0  0
    3.9658    5.1408   27.1704 C   0  0  0  0  0  0  0  0  0  0  0  0
    3.7614    4.8428   25.7963 O   0  0  0  0  0  0  0  0  0  0  0  0
    3.9195    6.6451   27.3170 C   0  0  1  0  0  0  0  0  0  0  0  0
    4.0844    7.0577   28.6732 O   0  0  0  0  0  0  0  0  0  0  0  0
    5.0452    7.2602   26.5027 C   0  0  1  0  0  0  0  0  0  0  0  0
    4.4999    8.3470   25.7348 O   0  0  0  0  0  0  0  0  0  0  0  0
    6.0673    7.7368   27.5270 C   0  0  0  0  0  0  0  0  0  0  0  0
    5.2758    7.8401   28.8280 C   0  0  2  0  0  0  0  0  0  0  0  0
    5.1116    4.5555   32.7924 N   0  0  0  0  0  0  0  0  0  0  0  0
    4.1165    4.8926   31.9559 C   0  0  2  0  0  0  0  0  0  0  0  0
    2.9098    4.3087   32.1419 N   0  0  0  0  0  0  0  0  0  0  0  0
    4.3178    5.7809   30.9528 N   0  0  0  0  0  0  0  0  0  0  0  0
    5.5351    6.3389   30.7901 C   0  0  2  0  0  0  0  0  0  0  0  0
    6.5663    6.0051   31.6413 C   0  0  1  0  0  0  0  0  0  0  0  0
    6.3380    5.0905   32.6518 C   0  0  0  0  0  0  0  0  0  0  0  0
    7.2617    4.7694   33.4304 O   0  0  0  0  0  0  0  0  0  0  0  0
    7.6583    6.7013   31.2686 N   0  0  0  0  0  0  0  0  0  0  0  0
    7.3137    7.4464   30.2034 C   0  0  0  0  0  0  0  0  0  0  0  0
    6.0231    7.2259   29.9303 N   0  0  1  0  0  0  0  0  0  0  0  0
    2.3712    2.7803   26.1123 O   0  0  0  0  0  0  0  0  0  0  0  0
    3.3344    3.4053   23.8481 O   0  5  0  0  0  0  0  0  0  0  0  0
    4.8600    2.6737   25.7253 O   0  0  0  0  0  0  0  0  0  0  0  0
  1  3  1  1  0  0  0
  1 21  1  0  0  0  0
  1 22  1  0  0  0  0
  1 23  2  0  0  0  0
  2  3  1  0  0  0  0
  4  2  1  1  0  0  0
  4  5  1  0  0  0  0
  4  6  1  0  0  0  0
  6  7  1  1  0  0  0
  6  8  1  0  0  0  0
  8  9  1  0  0  0  0
  9  5  1  6  0  0  0
  9 20  1  0  0  0  0
 10 11  1  0  0  0  0
 10 16  1  0  0  0  0
 11 12  1  6  0  0  0
 11 13  1  0  0  0  0
 14 13  1  1  0  0  0
 14 15  1  0  0  0  0
 14 20  1  0  0  0  0
 15 16  1  6  0  0  0
 15 18  1  0  0  0  0
 16 17  2  0  0  0  0
 18 19  1  0  0  0  0
 20 19  1  6  0  0  0
M  CHG  1  22  -1
M  END
>  <CHROM.1>
57.17838022,178.66150237,-171.65154846,-14.20086740,4.82753205,5.48606087
28.65056247,2.37033558,-1.09322492,-1.06673937

>  <Name>
ligand

>  <RI>
0

>  <Rbt.Current_Directory>
/home/itssahil/PROJECTS/Mol_Feturizer/Test_systems_manuscript/rnas/3slm

>  <Rbt.Executable>
rbdock ($Id: //depot/dev/client3/rdock/2013.1/src/exe/rbdock.cxx#4 $)

>  <Rbt.Library>
libRbt.so (2013.1, Build901 2013/11/27)

>  <Rbt.Parameter_File>
/export/apps/rDock/src/rDock_2013.1_src/data/scripts/dock_solv.prm

>  <Rbt.Receptor>
prm/blind_docking_60.prm

>  <SCORE>
-19.7105

>  <SCORE.INTER>
-14.8486

>  <SCORE.INTER.CONST>
1

>  <SCORE.INTER.POLAR>
0

>  <SCORE.INTER.ROT>
4

>  <SCORE.INTER.SOLV>
11.2463

>  <SCORE.INTER.VDW>
-19.9145

>  <SCORE.INTER.norm>
-0.64559

>  <SCORE.INTRA>
-4.86197

>  <SCORE.INTRA.DIHEDRAL>
-7.03012

>  <SCORE.INTRA.DIHEDRAL.0>
8.62657

>  <SCORE.INTRA.POLAR>
0

>  <SCORE.INTRA.POLAR.0>
0

>  <SCORE.INTRA.REPUL>
0

>  <SCORE.INTRA.REPUL.0>
0

>  <SCORE.INTRA.SOLV>
-0.483897

>  <SCORE.INTRA.SOLV.lig_0>
-66.3641

>  <SCORE.INTRA.VDW>
-1.10496

>  <SCORE.INTRA.VDW.0>
0.452231

>  <SCORE.INTRA.norm>
-0.21139

>  <SCORE.RESTR>
0

>  <SCORE.RESTR.CAVITY>
0

>  <SCORE.RESTR.norm>
0

>  <SCORE.SYSTEM>
0

>  <SCORE.SYSTEM.CONST>
0

>  <SCORE.SYSTEM.DIHEDRAL>
0

>  <SCORE.SYSTEM.SOLV>
0

>  <SCORE.SYSTEM.norm>
0

>  <SCORE.heavy>
23

>  <SCORE.norm>
-0.85698

>  <RMSD>
17.305

$$$$
ligand
 OpenBabel02271912143D
libRbt.so/2013.1/901 2013/11/27
 23 25  0  0  0  0  0  0  0  0999 V2000
    2.9503    3.8023   31.2819 P   0  0  1  0  0  0  0  0  0  0  0  0
    1.9586    4.8994   29.1213 C   0  0  0  0  0  0  0  0  0  0  0  0
    3.1151    4.5734   29.8795 O   0  0  0  0  0  0  0  0  0  0  0  0
    2.4302    5.4803   27.8073 C   0  0  1  0  0  0  0  0  0  0  0  0
    3.2667    6.6215   27.9943 O   0  0  0  0  0  0  0  0  0  0  0  0
    3.2344    4.4311   27.0584 C   0  0  1  0  0  0  0  0  0  0  0  0
    2.7686    4.3969   25.6982 O   0  0  0  0  0  0  0  0  0  0  0  0
    4.6838    4.8899   27.1577 C   0  0  0  0  0  0  0  0  0  0  0  0
    4.5856    6.3767   27.4886 C   0  0  2  0  0  0  0  0  0  0  0  0
    7.9600    9.8185   29.3051 N   0  0  0  0  0  0  0  0  0  0  0  0
    7.2755    9.8612   28.1504 C   0  0  2  0  0  0  0  0  0  0  0  0
    7.4634   10.9317   27.3439 N   0  0  0  0  0  0  0  0  0  0  0  0
    6.4178    8.8692   27.8096 N   0  0  0  0  0  0  0  0  0  0  0  0
    6.2477    7.8198   28.6399 C   0  0  2  0  0  0  0  0  0  0  0  0
    6.9441    7.7600   29.8276 C   0  0  1  0  0  0  0  0  0  0  0  0
    7.8072    8.7880   30.1564 C   0  0  0  0  0  0  0  0  0  0  0  0
    8.4433    8.7559   31.2320 O   0  0  0  0  0  0  0  0  0  0  0  0
    6.6006    6.6188   30.4569 N   0  0  0  0  0  0  0  0  0  0  0  0
    5.7038    5.9871   29.6790 C   0  0  0  0  0  0  0  0  0  0  0  0
    5.5067    6.7192   28.5772 N   0  0  1  0  0  0  0  0  0  0  0  0
    2.3788    2.4402   30.9720 O   0  0  0  0  0  0  0  0  0  0  0  0
    4.3506    3.7766   31.8500 O   0  5  0  0  0  0  0  0  0  0  0  0
    2.0030    4.6928   32.0396 O   0  0  0  0  0  0  0  0  0  0  0  0
  1  3  1  6  0  0  0
  1 21  1  0  0  0  0
  1 22  1  0  0  0  0
  1 23  2  0  0  0  0
  2  3  1  0  0  0  0
  4  2  1  1  0  0  0
  4  5  1  0  0  0  0
  4  6  1  0  0  0  0
  6  7  1  6  0  0  0
  6  8  1  0  0  0  0
  8  9  1  0  0  0  0
  9  5  1  1  0  0  0
  9 20  1  0  0  0  0
 10 11  1  0  0  0  0
 10 16  1  0  0  0  0
 11 12  1  1  0  0  0
 11 13  1  0  0  0  0
 14 13  1  6  0  0  0
 14 15  1  0  0  0  0
 14 20  1  0  0  0  0
 15 16  1  1  0  0  0
 15 18  1  0  0  0  0
 16 17  2  0  0  0  0
 18 19  1  0  0  0  0
 20 19  1  1  0  0  0
M  CHG  1  22  -1
M  END
>  <CHROM.1>
64.80488165,-57.47131742,-174.25642846,-104.42464052,4.77063776,6.22032339
29.26176696,-2.74732960,-0.77025695,-1.22796918

>  <Name>
ligand

>  <RI>
0

>  <Rbt.Current_Directory>
/home/itssahil/PROJECTS/Mol_Feturizer/Test_systems_manuscript/rnas/3slm

>  <Rbt.Executable>
rbdock ($Id: //depot/dev/client3/rdock/2013.1/src/exe/rbdock.cxx#4 $)

>  <Rbt.Library>
libRbt.so (2013.1, Build901 2013/11/27)

>  <Rbt.Parameter_File>
/export/apps/rDock/src/rDock_2013.1_src/data/scripts/dock_solv.prm

>  <Rbt.Receptor>
prm/blind_docking_40.prm

>  <SCORE>
-20.7446

>  <SCORE.INTER>
-14.9519

>  <SCORE.INTER.CONST>
1

>  <SCORE.INTER.POLAR>
0

>  <SCORE.INTER.ROT>
4

>  <SCORE.INTER.SOLV>
15.109

>  <SCORE.INTER.VDW>
-21.2709

>  <SCORE.INTER.norm>
-0.650082

>  <SCORE.INTRA>
-5.79274

>  <SCORE.INTRA.DIHEDRAL>
-7.23412

>  <SCORE.INTRA.DIHEDRAL.0>
8.62657

>  <SCORE.INTRA.POLAR>
0

>  <SCORE.INTRA.POLAR.0>
0

>  <SCORE.INTRA.REPUL>
0

>  <SCORE.INTRA.REPUL.0>
0

>  <SCORE.INTRA.SOLV>
0.0988107

>  <SCORE.INTRA.SOLV.lig_0>
-66.3641

>  <SCORE.INTRA.VDW>
-2.22509

>  <SCORE.INTRA.VDW.0>
0.452231

>  <SCORE.INTRA.norm>
-0.251858

>  <SCORE.RESTR>
0

>  <SCORE.RESTR.CAVITY>
0

>  <SCORE.RESTR.norm>
0

>  <SCORE.SYSTEM>
0

>  <SCORE.SYSTEM.CONST>
0

>  <SCORE.SYSTEM.DIHEDRAL>
0

>  <SCORE.SYSTEM.SOLV>
0

>  <SCORE.SYSTEM.norm>
0

>  <SCORE.heavy>
23

>  <SCORE.norm>
-0.90194

>  <RMSD>
17.306

$$$$
ligand
 OpenBabel02271912143D
libRbt.so/2013.1/901 2013/11/27
 23 25  0  0  0  0  0  0  0  0999 V2000
    3.7026    3.2211   25.4394 P   0  0  1  0  0  0  0  0  0  0  0  0
    3.9840    5.1028   27.2381 C   0  0  0  0  0  0  0  0  0  0  0  0
    3.7367    4.7682   25.8796 O   0  0  0  0  0  0  0  0  0  0  0  0
    3.9195    6.6094   27.3500 C   0  0  1  0  0  0  0  0  0  0  0  0
    4.0557    7.0539   28.6993 O   0  0  0  0  0  0  0  0  0  0  0  0
    5.0533    7.2182   26.5423 C   0  0  1  0  0  0  0  0  0  0  0  0
    4.5108    8.2817   25.7406 O   0  0  0  0  0  0  0  0  0  0  0  0
    6.0518    7.7285   27.5737 C   0  0  0  0  0  0  0  0  0  0  0  0
    5.2358    7.8522   28.8577 C   0  0  2  0  0  0  0  0  0  0  0  0
    5.0456    4.6269   32.8693 N   0  0  0  0  0  0  0  0  0  0  0  0
    4.0637    4.9303   32.0047 C   0  0  2  0  0  0  0  0  0  0  0  0
    2.8651    4.3246   32.1721 N   0  0  0  0  0  0  0  0  0  0  0  0
    4.2703    5.8070   30.9925 N   0  0  0  0  0  0  0  0  0  0  0  0
    5.4796    6.3874   30.8491 C   0  0  2  0  0  0  0  0  0  0  0  0
    6.4970    6.0883   31.7291 C   0  0  1  0  0  0  0  0  0  0  0  0
    6.2638    5.1850   32.7486 C   0  0  0  0  0  0  0  0  0  0  0  0
    7.1753    4.8952   33.5534 O   0  0  0  0  0  0  0  0  0  0  0  0
    7.5832    6.8011   31.3706 N   0  0  0  0  0  0  0  0  0  0  0  0
    7.2486    7.5222   30.2860 C   0  0  0  0  0  0  0  0  0  0  0  0
    5.9695    7.2709   29.9867 N   0  0  1  0  0  0  0  0  0  0  0  0
    3.3381    3.1869   23.9751 O   0  0  0  0  0  0  0  0  0  0  0  0
    5.0965    2.7242   25.7468 O   0  5  0  0  0  0  0  0  0  0  0  0
    2.6403    2.6454   26.3362 O   0  0  0  0  0  0  0  0  0  0  0  0
  1  3  1  1  0  0  0
  1 21  1  0  0  0  0
  1 22  1  0  0  0  0
  1 23  2  0  0  0  0
  2  3  1  0  0  0  0
  4  2  1  1  0  0  0
  4  5  1  0  0  0  0
  4  6  1  0  0  0  0
  6  7  1  1  0  0  0
  6  8  1  0  0  0  0
  8  9  1  0  0  0  0
  9  5  1  6  0  0  0
  9 20  1  0  0  0  0
 10 11  1  0  0  0  0
 10 16  1  0  0  0  0
 11 12  1  6  0  0  0
 11 13  1  0  0  0  0
 14 13  1  1  0  0  0
 14 15  1  0  0  0  0
 14 20  1  0  0  0  0
 15 16  1  6  0  0  0
 15 18  1  0  0  0  0
 16 17  2  0  0  0  0
 18 19  1  0  0  0  0
 20 19  1  6  0  0  0
M  CHG  1  22  -1
M  END
>  <CHROM.1>
176.58411799,175.62319394,-178.53666349,-13.44996094,4.83486899,5.48073542
28.72269991,2.35767109,-1.12420359,-1.09615767

>  <Name>
ligand

>  <RI>
0

>  <Rbt.Current_Directory>
/home/itssahil/PROJECTS/Mol_Feturizer/Test_systems_manuscript/rnas/3slm

>  <Rbt.Executable>
rbdock ($Id: //depot/dev/client3/rdock/2013.1/src/exe/rbdock.cxx#4 $)

>  <Rbt.Library>
libRbt.so (2013.1, Build901 2013/11/27)

>  <Rbt.Parameter_File>
/export/apps/rDock/src/rDock_2013.1_src/data/scripts/dock_solv.prm

>  <Rbt.Receptor>
prm/blind_docking_60.prm

>  <SCORE>
-19.1994

>  <SCORE.INTER>
-14.5968

>  <SCORE.INTER.CONST>
1

>  <SCORE.INTER.POLAR>
0

>  <SCORE.INTER.ROT>
4

>  <SCORE.INTER.SOLV>
11.5537

>  <SCORE.INTER.VDW>
-19.8491

>  <SCORE.INTER.norm>
-0.634643

>  <SCORE.INTRA>
-4.60261

>  <SCORE.INTRA.DIHEDRAL>
-7.2927

>  <SCORE.INTRA.DIHEDRAL.0>
8.62657

>  <SCORE.INTRA.POLAR>
0

>  <SCORE.INTRA.POLAR.0>
0

>  <SCORE.INTRA.REPUL>
0

>  <SCORE.INTRA.REPUL.0>
0

>  <SCORE.INTRA.SOLV>
0.241174

>  <SCORE.INTRA.SOLV.lig_0>
-66.3641

>  <SCORE.INTRA.VDW>
-1.07684

>  <SCORE.INTRA.VDW.0>
0.452231

>  <SCORE.INTRA.norm>
-0.200113

>  <SCORE.RESTR>
0

>  <SCORE.RESTR.CAVITY>
0

>  <SCORE.RESTR.norm>
0

>  <SCORE.SYSTEM>
0

>  <SCORE.SYSTEM.CONST>
0

>  <SCORE.SYSTEM.DIHEDRAL>
0

>  <SCORE.SYSTEM.SOLV>
0

>  <SCORE.SYSTEM.norm>
0

>  <SCORE.heavy>
23

>  <SCORE.norm>
-0.834756

>  <RMSD>
17.315

$$$$
ligand
 OpenBabel02271912143D
libRbt.so/2013.1/901 2013/11/27
 23 25  0  0  0  0  0  0  0  0999 V2000
    2.7130    3.9022   26.6092 P   0  0  1  0  0  0  0  0  0  0  0  0
    4.7421    5.5511   26.4698 C   0  0  0  0  0  0  0  0  0  0  0  0
    4.1999    4.3586   27.0202 O   0  0  0  0  0  0  0  0  0  0  0  0
    4.0707    6.7140   27.1650 C   0  0  1  0  0  0  0  0  0  0  0  0
    4.1535    6.6105   28.5861 O   0  0  0  0  0  0  0  0  0  0  0  0
    4.7563    8.0053   26.7513 C   0  0  1  0  0  0  0  0  0  0  0  0
    3.7392    8.9592   26.3995 O   0  0  0  0  0  0  0  0  0  0  0  0
    5.5570    8.4432   27.9712 C   0  0  0  0  0  0  0  0  0  0  0  0
    4.9056    7.7006   29.1349 C   0  0  2  0  0  0  0  0  0  0  0  0
    5.9347    4.0977   32.6693 N   0  0  0  0  0  0  0  0  0  0  0  0
    4.7549    4.3758   32.0908 C   0  0  2  0  0  0  0  0  0  0  0  0
    3.6841    3.6301   32.4498 N   0  0  0  0  0  0  0  0  0  0  0  0
    4.6437    5.3642   31.1708 N   0  0  0  0  0  0  0  0  0  0  0  0
    5.7326    6.0836   30.8296 C   0  0  2  0  0  0  0  0  0  0  0  0
    6.9501    5.8121   31.4154 C   0  0  1  0  0  0  0  0  0  0  0  0
    7.0395    4.7937   32.3453 C   0  0  0  0  0  0  0  0  0  0  0  0
    8.1358    4.5274   32.8834 O   0  0  0  0  0  0  0  0  0  0  0  0
    7.8581    6.6701   30.9098 N   0  0  0  0  0  0  0  0  0  0  0  0
    7.2186    7.4530   30.0231 C   0  0  0  0  0  0  0  0  0  0  0  0
    5.9304    7.0949   29.9915 N   0  0  1  0  0  0  0  0  0  0  0  0
    1.7717    4.9789   27.0918 O   0  0  0  0  0  0  0  0  0  0  0  0
    2.7784    3.7590   25.1060 O   0  5  0  0  0  0  0  0  0  0  0  0
    2.5547    2.5954   27.3382 O   0  0  0  0  0  0  0  0  0  0  0  0
  1  3  1  1  0  0  0
  1 21  1  0  0  0  0
  1 22  1  0  0  0  0
  1 23  2  0  0  0  0
  2  3  1  0  0  0  0
  4  2  1  6  0  0  0
  4  5  1  0  0  0  0
  4  6  1  0  0  0  0
  6  7  1  1  0  0  0
  6  8  1  0  0  0  0
  8  9  1  0  0  0  0
  9  5  1  6  0  0  0
  9 20  1  0  0  0  0
 10 11  1  0  0  0  0
 10 16  1  0  0  0  0
 11 12  1  6  0  0  0
 11 13  1  0  0  0  0
 14 13  1  1  0  0  0
 14 15  1  0  0  0  0
 14 20  1  0  0  0  0
 15 16  1  6  0  0  0
 15 18  1  0  0  0  0
 16 17  2  0  0  0  0
 18 19  1  0  0  0  0
 20 19  1  6  0  0  0
M  CHG  1  22  -1
M  END
>  <CHROM.1>
-62.80029455,52.65511323,74.56214361,-42.75705471,4.75702199,5.58651827,28.99635707
2.58375360,-0.88544130,-0.72595604

>  <Name>
ligand

>  <RI>
0

>  <Rbt.Current_Directory>
/home/itssahil/PROJECTS/Mol_Feturizer/Test_systems_manuscript/rnas/3slm

>  <Rbt.Executable>
rbdock ($Id: //depot/dev/client3/rdock/2013.1/src/exe/rbdock.cxx#4 $)

>  <Rbt.Library>
libRbt.so (2013.1, Build901 2013/11/27)

>  <Rbt.Parameter_File>
/export/apps/rDock/src/rDock_2013.1_src/data/scripts/dock_solv.prm

>  <Rbt.Receptor>
prm/blind_docking_40.prm

>  <SCORE>
-20.5335

>  <SCORE.INTER>
-16.5585

>  <SCORE.INTER.CONST>
1

>  <SCORE.INTER.POLAR>
0

>  <SCORE.INTER.ROT>
4

>  <SCORE.INTER.SOLV>
13.9356

>  <SCORE.INTER.VDW>
-21.9508

>  <SCORE.INTER.norm>
-0.719934

>  <SCORE.INTRA>
-3.97497

>  <SCORE.INTRA.DIHEDRAL>
-6.18445

>  <SCORE.INTRA.DIHEDRAL.0>
8.62657

>  <SCORE.INTRA.POLAR>
0

>  <SCORE.INTRA.POLAR.0>
0

>  <SCORE.INTRA.REPUL>
0

>  <SCORE.INTRA.REPUL.0>
0

>  <SCORE.INTRA.SOLV>
0.417102

>  <SCORE.INTRA.SOLV.lig_0>
-66.3641

>  <SCORE.INTRA.VDW>
-1.0913

>  <SCORE.INTRA.VDW.0>
0.452231

>  <SCORE.INTRA.norm>
-0.172825

>  <SCORE.RESTR>
0

>  <SCORE.RESTR.CAVITY>
0

>  <SCORE.RESTR.norm>
0

>  <SCORE.SYSTEM>
0

>  <SCORE.SYSTEM.CONST>
0

>  <SCORE.SYSTEM.DIHEDRAL>
0

>  <SCORE.SYSTEM.SOLV>
0

>  <SCORE.SYSTEM.norm>
0

>  <SCORE.heavy>
23

>  <SCORE.norm>
-0.892759

>  <RMSD>
17.324

$$$$
ligand
 OpenBabel02271912143D
libRbt.so/2013.1/901 2013/11/27
 23 25  0  0  0  0  0  0  0  0999 V2000
    2.3165    0.8352   27.4675 P   0  0  1  0  0  0  0  0  0  0  0  0
    3.4265    2.7111   28.9181 C   0  0  0  0  0  0  0  0  0  0  0  0
    3.6060    1.5884   28.0660 O   0  0  0  0  0  0  0  0  0  0  0  0
    2.9947    3.8713   28.0499 C   0  0  1  0  0  0  0  0  0  0  0  0
    3.1297    5.1236   28.7211 O   0  0  0  0  0  0  0  0  0  0  0  0
    3.8653    3.9137   26.8054 C   0  0  1  0  0  0  0  0  0  0  0  0
    3.0061    4.0731   25.6633 O   0  0  0  0  0  0  0  0  0  0  0  0
    4.7879    5.1102   27.0015 C   0  0  0  0  0  0  0  0  0  0  0  0
    4.0801    5.9625   28.0515 C   0  0  2  0  0  0  0  0  0  0  0  0
    7.7109    9.3824   29.3373 N   0  0  0  0  0  0  0  0  0  0  0  0
    7.0248    9.2979   28.1858 C   0  0  2  0  0  0  0  0  0  0  0  0
    7.2870   10.2150   27.2256 N   0  0  0  0  0  0  0  0  0  0  0  0
    6.0940    8.3318   27.9964 N   0  0  0  0  0  0  0  0  0  0  0  0
    5.8512    7.4379   28.9771 C   0  0  2  0  0  0  0  0  0  0  0  0
    6.5481    7.5096   30.1638 C   0  0  1  0  0  0  0  0  0  0  0  0
    7.4869    8.5091   30.3359 C   0  0  0  0  0  0  0  0  0  0  0  0
    8.1251    8.5954   31.4072 O   0  0  0  0  0  0  0  0  0  0  0  0
    6.1245    6.5073   30.9589 N   0  0  0  0  0  0  0  0  0  0  0  0
    5.1789    5.8320   30.2821 C   0  0  0  0  0  0  0  0  0  0  0  0
    5.0303    6.3988   29.0798 N   0  0  1  0  0  0  0  0  0  0  0  0
    1.9272    1.5633   26.2040 O   0  0  0  0  0  0  0  0  0  0  0  0
    2.7918   -0.5827   27.2490 O   0  5  0  0  0  0  0  0  0  0  0  0
    1.3081    0.9745   28.5757 O   0  0  0  0  0  0  0  0  0  0  0  0
  1  3  1  1  0  0  0
  1 21  1  0  0  0  0
  1 22  1  0  0  0  0
  1 23  2  0  0  0  0
  2  3  1  0  0  0  0
  4  2  1  1  0  0  0
  4  5  1  0  0  0  0
  4  6  1  0  0  0  0
  6  7  1  6  0  0  0
  6  8  1  0  0  0  0
  8  9  1  0  0  0  0
  9  5  1  1  0  0  0
  9 20  1  0  0  0  0
 10 11  1  0  0  0  0
 10 16  1  0  0  0  0
 11 12  1  1  0  0  0
 11 13  1  0  0  0  0
 14 13  1  6  0  0  0
 14 15  1  0  0  0  0
 14 20  1  0  0  0  0
 15 16  1  1  0  0  0
 15 18  1  0  0  0  0
 16 17  2  0  0  0  0
 18 19  1  0  0  0  0
 20 19  1  1  0  0  0
M  CHG  1  22  -1
M  END
>  <CHROM.1>
86.18556852,-164.26641267,-73.95374542,-161.63803897,4.55299393,4.97205786
28.37084846,-2.88427948,-1.00643498,-1.00270323

>  <Name>
ligand

>  <RI>
0

>  <Rbt.Current_Directory>
/home/itssahil/PROJECTS/Mol_Feturizer/Test_systems_manuscript/rnas/3slm

>  <Rbt.Executable>
rbdock ($Id: //depot/dev/client3/rdock/2013.1/src/exe/rbdock.cxx#4 $)

>  <Rbt.Library>
libRbt.so (2013.1, Build901 2013/11/27)

>  <Rbt.Parameter_File>
/export/apps/rDock/src/rDock_2013.1_src/data/scripts/dock_solv.prm

>  <Rbt.Receptor>
prm/blind_docking_100.prm

>  <SCORE>
-15.2503

>  <SCORE.INTER>
-12.7156

>  <SCORE.INTER.CONST>
1

>  <SCORE.INTER.POLAR>
0

>  <SCORE.INTER.ROT>
4

>  <SCORE.INTER.SOLV>
15.2902

>  <SCORE.INTER.VDW>
-19.8404

>  <SCORE.INTER.norm>
-0.552851

>  <SCORE.INTRA>
-2.54073

>  <SCORE.INTRA.DIHEDRAL>
-4.61719

>  <SCORE.INTRA.DIHEDRAL.0>
8.62657

>  <SCORE.INTRA.POLAR>
0

>  <SCORE.INTRA.POLAR.0>
0

>  <SCORE.INTRA.REPUL>
0

>  <SCORE.INTRA.REPUL.0>
0

>  <SCORE.INTRA.SOLV>
1.36518

>  <SCORE.INTRA.SOLV.lig_0>
-66.3641

>  <SCORE.INTRA.VDW>
-0.914724

>  <SCORE.INTRA.VDW.0>
0.452231

>  <SCORE.INTRA.norm>
-0.110466

>  <SCORE.RESTR>
0.00597726

>  <SCORE.RESTR.CAVITY>
0.00597726

>  <SCORE.RESTR.norm>
0.000259881

>  <SCORE.SYSTEM>
0

>  <SCORE.SYSTEM.CONST>
0

>  <SCORE.SYSTEM.DIHEDRAL>
0

>  <SCORE.SYSTEM.SOLV>
0

>  <SCORE.SYSTEM.norm>
0

>  <SCORE.heavy>
23

>  <SCORE.norm>
-0.663057

>  <RMSD>
17.361

$$$$
ligand
 OpenBabel02271912143D
libRbt.so/2013.1/901 2013/11/27
 23 25  0  0  0  0  0  0  0  0999 V2000
    8.4849   10.9266   29.1998 P   0  0  1  0  0  0  0  0  0  0  0  0
    6.5783    9.6906   27.8988 C   0  0  0  0  0  0  0  0  0  0  0  0
    7.7518    9.5871   28.6931 O   0  0  0  0  0  0  0  0  0  0  0  0
    6.2838    8.3133   27.3485 C   0  0  1  0  0  0  0  0  0  0  0  0
    6.4874    7.2909   28.3232 O   0  0  0  0  0  0  0  0  0  0  0  0
    4.8314    8.2531   26.9067 C   0  0  1  0  0  0  0  0  0  0  0  0
    4.7863    7.6627   25.5961 O   0  0  0  0  0  0  0  0  0  0  0  0
    4.1301    7.3913   27.9492 C   0  0  0  0  0  0  0  0  0  0  0  0
    5.2604    6.6074   28.6108 C   0  0  2  0  0  0  0  0  0  0  0  0
    2.2518    5.4375   32.6247 N   0  0  0  0  0  0  0  0  0  0  0  0
    1.9962    5.2558   31.3188 C   0  0  2  0  0  0  0  0  0  0  0  0
    0.8154    4.6883   30.9792 N   0  0  0  0  0  0  0  0  0  0  0  0
    2.8960    5.6202   30.3735 N   0  0  0  0  0  0  0  0  0  0  0  0
    4.0671    6.1761   30.7464 C   0  0  2  0  0  0  0  0  0  0  0  0
    4.3437    6.3711   32.0823 C   0  0  1  0  0  0  0  0  0  0  0  0
    3.4132    5.9839   33.0277 C   0  0  0  0  0  0  0  0  0  0  0  0
    3.6477    6.1462   34.2447 O   0  0  0  0  0  0  0  0  0  0  0  0
    5.5605    6.9428   32.1783 N   0  0  0  0  0  0  0  0  0  0  0  0
    6.0321    7.0926   30.9280 C   0  0  0  0  0  0  0  0  0  0  0  0
    5.1143    6.6343   30.0698 N   0  0  1  0  0  0  0  0  0  0  0  0
    7.4025   11.8849   29.6336 O   0  0  0  0  0  0  0  0  0  0  0  0
    9.3812   10.4500   30.3195 O   0  5  0  0  0  0  0  0  0  0  0  0
    9.2314   11.3790   27.9740 O   0  0  0  0  0  0  0  0  0  0  0  0
  1  3  1  6  0  0  0
  1 21  1  0  0  0  0
  1 22  1  0  0  0  0
  1 23  2  0  0  0  0
  2  3  1  0  0  0  0
  4  2  1  1  0  0  0
  4  5  1  0  0  0  0
  4  6  1  0  0  0  0
  6  7  1  6  0  0  0
  6  8  1  0  0  0  0
  8  9  1  0  0  0  0
  9  5  1  1  0  0  0
  9 20  1  0  0  0  0
 10 11  1  0  0  0  0
 10 16  1  0  0  0  0
 11 12  1  1  0  0  0
 11 13  1  0  0  0  0
 14 13  1  6  0  0  0
 14 15  1  0  0  0  0
 14 20  1  0  0  0  0
 15 16  1  1  0  0  0
 15 18  1  0  0  0  0
 16 17  2  0  0  0  0
 18 19  1  0  0  0  0
 20 19  1  1  0  0  0
M  CHG  1  22  -1
M  END
>  <CHROM.1>
41.70698710,41.35662005,168.73861383,175.77339076,5.51692445,7.91294003,29.78004240
-0.47894312,0.72189613,1.65060874

>  <Name>
ligand

>  <RI>
0

>  <Rbt.Current_Directory>
/home/itssahil/PROJECTS/Mol_Feturizer/Test_systems_manuscript/rnas/3slm

>  <Rbt.Executable>
rbdock ($Id: //depot/dev/client3/rdock/2013.1/src/exe/rbdock.cxx#4 $)

>  <Rbt.Library>
libRbt.so (2013.1, Build901 2013/11/27)

>  <Rbt.Parameter_File>
/export/apps/rDock/src/rDock_2013.1_src/data/scripts/dock_solv.prm

>  <Rbt.Receptor>
prm/blind_docking_60.prm

>  <SCORE>
-20.529

>  <SCORE.INTER>
-16.2174

>  <SCORE.INTER.CONST>
1

>  <SCORE.INTER.POLAR>
0

>  <SCORE.INTER.ROT>
4

>  <SCORE.INTER.SOLV>
15.8026

>  <SCORE.INTER.VDW>
-22.3458

>  <SCORE.INTER.norm>
-0.705107

>  <SCORE.INTRA>
-4.3116

>  <SCORE.INTRA.DIHEDRAL>
-5.19277

>  <SCORE.INTRA.DIHEDRAL.0>
8.62657

>  <SCORE.INTRA.POLAR>
0

>  <SCORE.INTRA.POLAR.0>
0

>  <SCORE.INTRA.REPUL>
0

>  <SCORE.INTRA.REPUL.0>
0

>  <SCORE.INTRA.SOLV>
-0.710365

>  <SCORE.INTRA.SOLV.lig_0>
-66.3641

>  <SCORE.INTRA.VDW>
-1.36003

>  <SCORE.INTRA.VDW.0>
0.452231

>  <SCORE.INTRA.norm>
-0.187461

>  <SCORE.RESTR>
0

>  <SCORE.RESTR.CAVITY>
0

>  <SCORE.RESTR.norm>
0

>  <SCORE.SYSTEM>
0

>  <SCORE.SYSTEM.CONST>
0

>  <SCORE.SYSTEM.DIHEDRAL>
0

>  <SCORE.SYSTEM.SOLV>
0

>  <SCORE.SYSTEM.norm>
0

>  <SCORE.heavy>
23

>  <SCORE.norm>
-0.892567

>  <RMSD>
17.376

$$$$
ligand
 OpenBabel02271912143D
libRbt.so/2013.1/901 2013/11/27
 23 25  0  0  0  0  0  0  0  0999 V2000
    1.8411    4.8172   28.3518 P   0  0  1  0  0  0  0  0  0  0  0  0
    4.1388    6.0556   28.5572 C   0  0  0  0  0  0  0  0  0  0  0  0
    2.8520    5.8137   29.1090 O   0  0  0  0  0  0  0  0  0  0  0  0
    4.6985    7.2830   29.2404 C   0  0  1  0  0  0  0  0  0  0  0  0
    4.9873    7.0461   30.6178 O   0  0  0  0  0  0  0  0  0  0  0  0
    5.9932    7.6876   28.5559 C   0  0  1  0  0  0  0  0  0  0  0  0
    5.9474    9.1044   28.3134 O   0  0  0  0  0  0  0  0  0  0  0  0
    7.0992    7.3076   29.5325 C   0  0  0  0  0  0  0  0  0  0  0  0
    6.3892    7.1939   30.8788 C   0  0  2  0  0  0  0  0  0  0  0  0
    4.8395    3.0160   33.4626 N   0  0  0  0  0  0  0  0  0  0  0  0
    4.0832    4.0058   32.9607 C   0  0  2  0  0  0  0  0  0  0  0  0
    2.7427    3.9230   33.1271 N   0  0  0  0  0  0  0  0  0  0  0  0
    4.6443    5.0479   32.3010 N   0  0  0  0  0  0  0  0  0  0  0  0
    5.9834    5.0960   32.1456 C   0  0  2  0  0  0  0  0  0  0  0  0
    6.7737    4.0891   32.6564 C   0  0  1  0  0  0  0  0  0  0  0  0
    6.1771    3.0330   33.3185 C   0  0  0  0  0  0  0  0  0  0  0  0
    6.8756    2.1066   33.7836 O   0  0  0  0  0  0  0  0  0  0  0  0
    8.0585    4.3816   32.3734 N   0  0  0  0  0  0  0  0  0  0  0  0
    8.0646    5.5423   31.6945 C   0  0  0  0  0  0  0  0  0  0  0  0
    6.8032    5.9698   31.5724 N   0  0  1  0  0  0  0  0  0  0  0  0
    1.3440    5.5416   27.1245 O   0  0  0  0  0  0  0  0  0  0  0  0
    2.6840    3.5977   28.0576 O   0  5  0  0  0  0  0  0  0  0  0  0
    0.7722    4.5827   29.3848 O   0  0  0  0  0  0  0  0  0  0  0  0
  1  3  1  1  0  0  0
  1 21  1  0  0  0  0
  1 22  1  0  0  0  0
  1 23  2  0  0  0  0
  2  3  1  0  0  0  0
  4  2  1  6  0  0  0
  4  5  1  0  0  0  0
  4  6  1  0  0  0  0
  6  7  1  1  0  0  0
  6  8  1  0  0  0  0
  8  9  1  0  0  0  0
  9  5  1  6  0  0  0
  9 20  1  0  0  0  0
 10 11  1  0  0  0  0
 10 16  1  0  0  0  0
 11 12  1  6  0  0  0
 11 13  1  0  0  0  0
 14 13  1  1  0  0  0
 14 15  1  0  0  0  0
 14 20  1  0  0  0  0
 15 16  1  6  0  0  0
 15 18  1  0  0  0  0
 16 17  2  0  0  0  0
 18 19  1  0  0  0  0
 20 19  1  6  0  0  0
M  CHG  1  22  -1
M  END
>  <CHROM.1>
-73.03937772,67.96103224,164.63646125,-16.16903059,4.69518484,5.30380979
30.53032962,2.37328507,-0.47128128,-0.80099745

>  <Name>
ligand

>  <RI>
0

>  <Rbt.Current_Directory>
/home/itssahil/PROJECTS/Mol_Feturizer/Test_systems_manuscript/rnas/3slm

>  <Rbt.Executable>
rbdock ($Id: //depot/dev/client3/rdock/2013.1/src/exe/rbdock.cxx#4 $)

>  <Rbt.Library>
libRbt.so (2013.1, Build901 2013/11/27)

>  <Rbt.Parameter_File>
/export/apps/rDock/src/rDock_2013.1_src/data/scripts/dock_solv.prm

>  <Rbt.Receptor>
prm/blind_docking_80.prm

>  <SCORE>
-21.6019

>  <SCORE.INTER>
-17.1119

>  <SCORE.INTER.CONST>
1

>  <SCORE.INTER.POLAR>
0

>  <SCORE.INTER.ROT>
4

>  <SCORE.INTER.SOLV>
11.6767

>  <SCORE.INTER.VDW>
-21.5668

>  <SCORE.INTER.norm>
-0.743997

>  <SCORE.INTRA>
-4.48993

>  <SCORE.INTRA.DIHEDRAL>
-5.80047

>  <SCORE.INTRA.DIHEDRAL.0>
8.62657

>  <SCORE.INTRA.POLAR>
0

>  <SCORE.INTRA.POLAR.0>
0

>  <SCORE.INTRA.REPUL>
0

>  <SCORE.INTRA.REPUL.0>
0

>  <SCORE.INTRA.SOLV>
-0.289436

>  <SCORE.INTRA.SOLV.lig_0>
-66.3641

>  <SCORE.INTRA.VDW>
-1.44498

>  <SCORE.INTRA.VDW.0>
0.452231

>  <SCORE.INTRA.norm>
-0.195215

>  <SCORE.RESTR>
0

>  <SCORE.RESTR.CAVITY>
0

>  <SCORE.RESTR.norm>
0

>  <SCORE.SYSTEM>
0

>  <SCORE.SYSTEM.CONST>
0

>  <SCORE.SYSTEM.DIHEDRAL>
0

>  <SCORE.SYSTEM.SOLV>
0

>  <SCORE.SYSTEM.norm>
0

>  <SCORE.heavy>
23

>  <SCORE.norm>
-0.939211

>  <RMSD>
17.400

$$$$
ligand
 OpenBabel02271912143D
libRbt.so/2013.1/901 2013/11/27
 23 25  0  0  0  0  0  0  0  0999 V2000
    2.1493    5.1007   27.7911 P   0  0  1  0  0  0  0  0  0  0  0  0
    4.4160    6.1859   28.5259 C   0  0  0  0  0  0  0  0  0  0  0  0
    2.9988    6.2787   28.4832 O   0  0  0  0  0  0  0  0  0  0  0  0
    4.9215    7.3718   29.3162 C   0  0  1  0  0  0  0  0  0  0  0  0
    5.0947    7.0613   30.6984 O   0  0  0  0  0  0  0  0  0  0  0  0
    6.2697    7.8015   28.7628 C   0  0  1  0  0  0  0  0  0  0  0  0
    6.2489    9.2293   28.5920 O   0  0  0  0  0  0  0  0  0  0  0  0
    7.2900    7.3627   29.8058 C   0  0  0  0  0  0  0  0  0  0  0  0
    6.4708    7.1845   31.0813 C   0  0  2  0  0  0  0  0  0  0  0  0
    4.8571    3.3760   34.1510 N   0  0  0  0  0  0  0  0  0  0  0  0
    4.1789    4.4676   33.7610 C   0  0  2  0  0  0  0  0  0  0  0  0
    2.9077    4.6125   34.2020 N   0  0  0  0  0  0  0  0  0  0  0  0
    4.7465    5.3881   32.9447 N   0  0  0  0  0  0  0  0  0  0  0  0
    6.0132    5.2094   32.5167 C   0  0  2  0  0  0  0  0  0  0  0  0
    6.7234    4.0956   32.9094 C   0  0  1  0  0  0  0  0  0  0  0  0
    6.1197    3.1671   33.7360 C   0  0  0  0  0  0  0  0  0  0  0  0
    6.7445    2.1469   34.0984 O   0  0  0  0  0  0  0  0  0  0  0  0
    7.9496    4.1643   32.3544 N   0  0  0  0  0  0  0  0  0  0  0  0
    7.9967    5.2939   31.6263 C   0  0  0  0  0  0  0  0  0  0  0  0
    6.8220    5.9228   31.7413 N   0  0  1  0  0  0  0  0  0  0  0  0
    0.7884    5.6686   27.4693 O   0  0  0  0  0  0  0  0  0  0  0  0
    2.9700    4.7234   26.5793 O   0  5  0  0  0  0  0  0  0  0  0  0
    2.1207    4.0417   28.8598 O   0  0  0  0  0  0  0  0  0  0  0  0
  1  3  1  1  0  0  0
  1 21  1  0  0  0  0
  1 22  1  0  0  0  0
  1 23  2  0  0  0  0
  2  3  1  0  0  0  0
  4  2  1  6  0  0  0
  4  5  1  0  0  0  0
  4  6  1  0  0  0  0
  6  7  1  1  0  0  0
  6  8  1  0  0  0  0
  8  9  1  0  0  0  0
  9  5  1  6  0  0  0
  9 20  1  0  0  0  0
 10 11  1  0  0  0  0
 10 16  1  0  0  0  0
 11 12  1  6  0  0  0
 11 13  1  0  0  0  0
 14 13  1  1  0  0  0
 14 15  1  0  0  0  0
 14 20  1  0  0  0  0
 15 16  1  6  0  0  0
 15 18  1  0  0  0  0
 16 17  2  0  0  0  0
 18 19  1  0  0  0  0
 20 19  1  6  0  0  0
M  CHG  1  22  -1
M  END
>  <CHROM.1>
-160.83508751,93.38648993,-175.93417417,-35.92643706,4.84175927,5.47134656
30.59999901,2.17594845,-0.51502015,-0.92473644

>  <Name>
ligand

>  <RI>
0

>  <Rbt.Current_Directory>
/home/itssahil/PROJECTS/Mol_Feturizer/Test_systems_manuscript/rnas/3slm

>  <Rbt.Executable>
rbdock ($Id: //depot/dev/client3/rdock/2013.1/src/exe/rbdock.cxx#4 $)

>  <Rbt.Library>
libRbt.so (2013.1, Build901 2013/11/27)

>  <Rbt.Parameter_File>
/export/apps/rDock/src/rDock_2013.1_src/data/scripts/dock_solv.prm

>  <Rbt.Receptor>
prm/blind_docking_80.prm

>  <SCORE>
-21.0656

>  <SCORE.INTER>
-18.4764

>  <SCORE.INTER.CONST>
1

>  <SCORE.INTER.POLAR>
0

>  <SCORE.INTER.ROT>
4

>  <SCORE.INTER.SOLV>
10.5499

>  <SCORE.INTER.VDW>
-22.1009

>  <SCORE.INTER.norm>
-0.80332

>  <SCORE.INTRA>
-2.58923

>  <SCORE.INTRA.DIHEDRAL>
-3.59767

>  <SCORE.INTRA.DIHEDRAL.0>
8.62657

>  <SCORE.INTRA.POLAR>
0

>  <SCORE.INTRA.POLAR.0>
0

>  <SCORE.INTRA.REPUL>
0

>  <SCORE.INTRA.REPUL.0>
0

>  <SCORE.INTRA.SOLV>
-0.0861855

>  <SCORE.INTRA.SOLV.lig_0>
-66.3641

>  <SCORE.INTRA.VDW>
-0.747305

>  <SCORE.INTRA.VDW.0>
0.452231

>  <SCORE.INTRA.norm>
-0.112575

>  <SCORE.RESTR>
0

>  <SCORE.RESTR.CAVITY>
0

>  <SCORE.RESTR.norm>
0

>  <SCORE.SYSTEM>
0

>  <SCORE.SYSTEM.CONST>
0

>  <SCORE.SYSTEM.DIHEDRAL>
0

>  <SCORE.SYSTEM.SOLV>
0

>  <SCORE.SYSTEM.norm>
0

>  <SCORE.heavy>
23

>  <SCORE.norm>
-0.915896

>  <RMSD>
17.403

$$$$
ligand
 OpenBabel02271912143D
libRbt.so/2013.1/901 2013/11/27
 23 25  0  0  0  0  0  0  0  0999 V2000
    4.7039    8.1450   27.2457 P   0  0  1  0  0  0  0  0  0  0  0  0
    4.0610    5.7142   27.9759 C   0  0  0  0  0  0  0  0  0  0  0  0
    3.6302    6.9664   27.4610 O   0  0  0  0  0  0  0  0  0  0  0  0
    2.8569    4.7999   28.0034 C   0  0  1  0  0  0  0  0  0  0  0  0
    2.6769    4.1118   26.7661 O   0  0  0  0  0  0  0  0  0  0  0  0
    3.0470    3.7578   29.0927 C   0  0  1  0  0  0  0  0  0  0  0  0
    1.8333    3.6867   29.8608 O   0  0  0  0  0  0  0  0  0  0  0  0
    3.3377    2.4561   28.3563 C   0  0  0  0  0  0  0  0  0  0  0  0
    2.8060    2.6953   26.9457 C   0  0  2  0  0  0  0  0  0  0  0  0
    3.5231    0.8842   22.1773 N   0  0  0  0  0  0  0  0  0  0  0  0
    2.3618    1.1774   22.7848 C   0  0  2  0  0  0  0  0  0  0  0  0
    1.2186    0.9961   22.0833 N   0  0  0  0  0  0  0  0  0  0  0  0
    2.3371    1.6484   24.0549 N   0  0  0  0  0  0  0  0  0  0  0  0
    3.4954    1.8251   24.7235 C   0  0  2  0  0  0  0  0  0  0  0  0
    4.6954    1.5271   24.1150 C   0  0  1  0  0  0  0  0  0  0  0  0
    4.6947    1.0555   22.8161 C   0  0  0  0  0  0  0  0  0  0  0  0
    5.7729    0.7854   22.2441 O   0  0  0  0  0  0  0  0  0  0  0  0
    5.6848    1.7831   24.9937 N   0  0  0  0  0  0  0  0  0  0  0  0
    5.1107    2.2376   26.1216 C   0  0  0  0  0  0  0  0  0  0  0  0
    3.7845    2.2483   25.9489 N   0  0  1  0  0  0  0  0  0  0  0  0
    3.9246    9.4023   26.9457 O   0  0  0  0  0  0  0  0  0  0  0  0
    5.4701    8.1820   28.5479 O   0  5  0  0  0  0  0  0  0  0  0  0
    5.5123    7.6467   26.0785 O   0  0  0  0  0  0  0  0  0  0  0  0
  1  3  1  1  0  0  0
  1 21  1  0  0  0  0
  1 22  1  0  0  0  0
  1 23  2  0  0  0  0
  2  3  1  0  0  0  0
  4  2  1  6  0  0  0
  4  5  1  0  0  0  0
  4  6  1  0  0  0  0
  6  7  1  6  0  0  0
  6  8  1  0  0  0  0
  8  9  1  0  0  0  0
  9  5  1  6  0  0  0
  9 20  1  0  0  0  0
 10 11  1  0  0  0  0
 10 16  1  0  0  0  0
 11 12  1  6  0  0  0
 11 13  1  0  0  0  0
 14 13  1  1  0  0  0
 14 15  1  0  0  0  0
 14 20  1  0  0  0  0
 15 16  1  6  0  0  0
 15 18  1  0  0  0  0
 16 17  2  0  0  0  0
 18 19  1  0  0  0  0
 20 19  1  6  0  0  0
M  CHG  1  22  -1
M  END
>  <CHROM.1>
-169.59646782,87.43638184,-177.34294310,-91.44565422,3.82247009,4.01482426
26.02540979,-1.41516466,-1.03998778,-2.39032376

>  <Name>
ligand

>  <RI>
0

>  <Rbt.Current_Directory>
/home/itssahil/PROJECTS/Mol_Feturizer/Test_systems_manuscript/rnas/3slm

>  <Rbt.Executable>
rbdock ($Id: //depot/dev/client3/rdock/2013.1/src/exe/rbdock.cxx#4 $)

>  <Rbt.Library>
libRbt.so (2013.1, Build901 2013/11/27)

>  <Rbt.Parameter_File>
/export/apps/rDock/src/rDock_2013.1_src/data/scripts/dock_solv.prm

>  <Rbt.Receptor>
prm/blind_docking_100.prm

>  <SCORE>
-18.2173

>  <SCORE.INTER>
-14.5734

>  <SCORE.INTER.CONST>
1

>  <SCORE.INTER.POLAR>
0

>  <SCORE.INTER.ROT>
4

>  <SCORE.INTER.SOLV>
9.82697

>  <SCORE.INTER.VDW>
-19.258

>  <SCORE.INTER.norm>
-0.633628

>  <SCORE.INTRA>
-3.64388

>  <SCORE.INTRA.DIHEDRAL>
-4.96766

>  <SCORE.INTRA.DIHEDRAL.0>
8.62657

>  <SCORE.INTRA.POLAR>
0

>  <SCORE.INTRA.POLAR.0>
0

>  <SCORE.INTRA.REPUL>
0

>  <SCORE.INTRA.REPUL.0>
0

>  <SCORE.INTRA.SOLV>
-0.115623

>  <SCORE.INTRA.SOLV.lig_0>
-66.3641

>  <SCORE.INTRA.VDW>
-1.10223

>  <SCORE.INTRA.VDW.0>
0.452231

>  <SCORE.INTRA.norm>
-0.158429

>  <SCORE.RESTR>
0

>  <SCORE.RESTR.CAVITY>
0

>  <SCORE.RESTR.norm>
0

>  <SCORE.SYSTEM>
0

>  <SCORE.SYSTEM.CONST>
0

>  <SCORE.SYSTEM.DIHEDRAL>
0

>  <SCORE.SYSTEM.SOLV>
0

>  <SCORE.SYSTEM.norm>
0

>  <SCORE.heavy>
23

>  <SCORE.norm>
-0.792057

>  <RMSD>
17.404

$$$$
ligand
 OpenBabel02271912143D
libRbt.so/2013.1/901 2013/11/27
 23 25  0  0  0  0  0  0  0  0999 V2000
    1.1545    5.1448   28.9119 P   0  0  1  0  0  0  0  0  0  0  0  0
    3.2422    6.5057   29.7149 C   0  0  0  0  0  0  0  0  0  0  0  0
    1.9306    6.0399   30.0004 O   0  0  0  0  0  0  0  0  0  0  0  0
    4.2126    5.4863   30.2678 C   0  0  1  0  0  0  0  0  0  0  0  0
    5.5472    5.7163   29.8176 O   0  0  0  0  0  0  0  0  0  0  0  0
    4.2120    5.5691   31.7849 C   0  0  1  0  0  0  0  0  0  0  0  0
    4.1063    4.2329   32.3061 O   0  0  0  0  0  0  0  0  0  0  0  0
    5.5372    6.2254   32.1516 C   0  0  0  0  0  0  0  0  0  0  0  0
    6.4137    6.0162   30.9196 C   0  0  2  0  0  0  0  0  0  0  0  0
    7.0064    9.7135   27.3825 N   0  0  0  0  0  0  0  0  0  0  0  0
    6.2206    8.6262   27.3188 C   0  0  2  0  0  0  0  0  0  0  0  0
    5.4699    8.4537   26.2060 N   0  0  0  0  0  0  0  0  0  0  0  0
    6.1745    7.7368   28.3399 N   0  0  0  0  0  0  0  0  0  0  0  0
    6.9297    7.9426   29.4385 C   0  0  2  0  0  0  0  0  0  0  0  0
    7.7428    9.0524   29.5187 C   0  0  1  0  0  0  0  0  0  0  0  0
    7.7664    9.9490   28.4674 C   0  0  0  0  0  0  0  0  0  0  0  0
    8.4922   10.9651   28.5232 O   0  0  0  0  0  0  0  0  0  0  0  0
    8.3870    9.0143   30.7018 N   0  0  0  0  0  0  0  0  0  0  0  0
    7.9765    7.9073   31.3456 C   0  0  0  0  0  0  0  0  0  0  0  0
    7.1024    7.2618   30.5659 N   0  0  1  0  0  0  0  0  0  0  0  0
    0.8826    6.0336   27.7227 O   0  0  0  0  0  0  0  0  0  0  0  0
    2.1060    4.0041   28.6332 O   0  5  0  0  0  0  0  0  0  0  0  0
   -0.0902    4.7319   29.6499 O   0  0  0  0  0  0  0  0  0  0  0  0
  1  3  1  1  0  0  0
  1 21  1  0  0  0  0
  1 22  1  0  0  0  0
  1 23  2  0  0  0  0
  2  3  1  0  0  0  0
  4  2  1  6  0  0  0
  4  5  1  0  0  0  0
  4  6  1  0  0  0  0
  6  7  1  1  0  0  0
  6  8  1  0  0  0  0
  8  9  1  0  0  0  0
  9  5  1  6  0  0  0
  9 20  1  0  0  0  0
 10 11  1  0  0  0  0
 10 16  1  0  0  0  0
 11 12  1  1  0  0  0
 11 13  1  0  0  0  0
 14 13  1  6  0  0  0
 14 15  1  0  0  0  0
 14 20  1  0  0  0  0
 15 16  1  1  0  0  0
 15 18  1  0  0  0  0
 16 17  2  0  0  0  0
 18 19  1  0  0  0  0
 20 19  1  1  0  0  0
M  CHG  1  22  -1
M  END
>  <CHROM.1>
-66.74073052,168.72161079,-92.43783133,-0.07599931,4.81494775,6.88114677
29.51597489,2.77703477,0.48578608,2.15662016

>  <Name>
ligand

>  <RI>
0

>  <Rbt.Current_Directory>
/home/itssahil/PROJECTS/Mol_Feturizer/Test_systems_manuscript/rnas/3slm

>  <Rbt.Executable>
rbdock ($Id: //depot/dev/client3/rdock/2013.1/src/exe/rbdock.cxx#4 $)

>  <Rbt.Library>
libRbt.so (2013.1, Build901 2013/11/27)

>  <Rbt.Parameter_File>
/export/apps/rDock/src/rDock_2013.1_src/data/scripts/dock_solv.prm

>  <Rbt.Receptor>
prm/blind_docking_60.prm

>  <SCORE>
-19.4182

>  <SCORE.INTER>
-16.9345

>  <SCORE.INTER.CONST>
1

>  <SCORE.INTER.POLAR>
0

>  <SCORE.INTER.ROT>
4

>  <SCORE.INTER.SOLV>
16.2184

>  <SCORE.INTER.VDW>
-22.9625

>  <SCORE.INTER.norm>
-0.736282

>  <SCORE.INTRA>
-2.48372

>  <SCORE.INTRA.DIHEDRAL>
-2.85595

>  <SCORE.INTRA.DIHEDRAL.0>
8.62657

>  <SCORE.INTRA.POLAR>
0

>  <SCORE.INTRA.POLAR.0>
0

>  <SCORE.INTRA.REPUL>
0

>  <SCORE.INTRA.REPUL.0>
0

>  <SCORE.INTRA.SOLV>
1.26666

>  <SCORE.INTRA.SOLV.lig_0>
-66.3641

>  <SCORE.INTRA.VDW>
-1.68907

>  <SCORE.INTRA.VDW.0>
0.452231

>  <SCORE.INTRA.norm>
-0.107988

>  <SCORE.RESTR>
0

>  <SCORE.RESTR.CAVITY>
0

>  <SCORE.RESTR.norm>
0

>  <SCORE.SYSTEM>
0

>  <SCORE.SYSTEM.CONST>
0

>  <SCORE.SYSTEM.DIHEDRAL>
0

>  <SCORE.SYSTEM.SOLV>
0

>  <SCORE.SYSTEM.norm>
0

>  <SCORE.heavy>
23

>  <SCORE.norm>
-0.84427

>  <RMSD>
17.423

$$$$
ligand
 OpenBabel02271912143D
libRbt.so/2013.1/901 2013/11/27
 23 25  0  0  0  0  0  0  0  0999 V2000
    2.1253    2.0464   29.8745 P   0  0  1  0  0  0  0  0  0  0  0  0
    3.0746    3.9773   31.3664 C   0  0  0  0  0  0  0  0  0  0  0  0
    3.1595    2.6163   30.9672 O   0  0  0  0  0  0  0  0  0  0  0  0
    4.0829    4.1856   32.4739 C   0  0  1  0  0  0  0  0  0  0  0  0
    5.3889    4.4580   31.9667 O   0  0  0  0  0  0  0  0  0  0  0  0
    3.6552    5.3724   33.3207 C   0  0  1  0  0  0  0  0  0  0  0  0
    3.7490    4.9919   34.7043 O   0  0  0  0  0  0  0  0  0  0  0  0
    4.6275    6.4902   32.9653 C   0  0  0  0  0  0  0  0  0  0  0  0
    5.8256    5.7668   32.3562 C   0  0  2  0  0  0  0  0  0  0  0  0
    4.5704    7.0086   27.5173 N   0  0  0  0  0  0  0  0  0  0  0  0
    3.8486    6.3044   28.4043 C   0  0  2  0  0  0  0  0  0  0  0  0
    2.6313    5.8584   28.0159 N   0  0  0  0  0  0  0  0  0  0  0  0
    4.3206    6.0573   29.6500 N   0  0  0  0  0  0  0  0  0  0  0  0
    5.5350    6.5230   30.0079 C   0  0  2  0  0  0  0  0  0  0  0  0
    6.2890    7.2456   29.1088 C   0  0  1  0  0  0  0  0  0  0  0  0
    5.7823    7.4912   27.8468 C   0  0  0  0  0  0  0  0  0  0  0  0
    6.4477    8.1501   27.0188 O   0  0  0  0  0  0  0  0  0  0  0  0
    7.4482    7.5806   29.7091 N   0  0  0  0  0  0  0  0  0  0  0  0
    7.4110    7.0821   30.9575 C   0  0  0  0  0  0  0  0  0  0  0  0
    6.2522    6.4351   31.1224 N   0  0  1  0  0  0  0  0  0  0  0  0
    2.2581    0.5429   29.8834 O   0  0  0  0  0  0  0  0  0  0  0  0
    0.7821    2.5565   30.3436 O   0  5  0  0  0  0  0  0  0  0  0  0
    2.6064    2.6842   28.5994 O   0  0  0  0  0  0  0  0  0  0  0  0
  1  3  1  1  0  0  0
  1 21  1  0  0  0  0
  1 22  1  0  0  0  0
  1 23  2  0  0  0  0
  2  3  1  0  0  0  0
  4  2  1  6  0  0  0
  4  5  1  0  0  0  0
  4  6  1  0  0  0  0
  6  7  1  1  0  0  0
  6  8  1  0  0  0  0
  8  9  1  0  0  0  0
  9  5  1  6  0  0  0
  9 20  1  0  0  0  0
 10 11  1  0  0  0  0
 10 16  1  0  0  0  0
 11 12  1  1  0  0  0
 11 13  1  0  0  0  0
 14 13  1  6  0  0  0
 14 15  1  0  0  0  0
 14 20  1  0  0  0  0
 15 16  1  1  0  0  0
 15 18  1  0  0  0  0
 16 17  2  0  0  0  0
 18 19  1  0  0  0  0
 20 19  1  1  0  0  0
M  CHG  1  22  -1
M  END
>  <CHROM.1>
-167.82761629,84.56295381,175.26577613,51.11626846,4.23523519,5.00699419
30.34912161,2.78679247,0.86748818,1.76465247

>  <Name>
ligand

>  <RI>
0

>  <Rbt.Current_Directory>
/home/itssahil/PROJECTS/Mol_Feturizer/Test_systems_manuscript/rnas/3slm

>  <Rbt.Executable>
rbdock ($Id: //depot/dev/client3/rdock/2013.1/src/exe/rbdock.cxx#4 $)

>  <Rbt.Library>
libRbt.so (2013.1, Build901 2013/11/27)

>  <Rbt.Parameter_File>
/export/apps/rDock/src/rDock_2013.1_src/data/scripts/dock_solv.prm

>  <Rbt.Receptor>
prm/blind_docking_60.prm

>  <SCORE>
-16.2129

>  <SCORE.INTER>
-12.5956

>  <SCORE.INTER.CONST>
1

>  <SCORE.INTER.POLAR>
0

>  <SCORE.INTER.ROT>
4

>  <SCORE.INTER.SOLV>
11.0649

>  <SCORE.INTER.VDW>
-18.352

>  <SCORE.INTER.norm>
-0.547636

>  <SCORE.INTRA>
-3.61731

>  <SCORE.INTRA.DIHEDRAL>
-5.18687

>  <SCORE.INTRA.DIHEDRAL.0>
8.62657

>  <SCORE.INTRA.POLAR>
0

>  <SCORE.INTRA.POLAR.0>
0

>  <SCORE.INTRA.REPUL>
0

>  <SCORE.INTRA.REPUL.0>
0

>  <SCORE.INTRA.SOLV>
3.47807

>  <SCORE.INTRA.SOLV.lig_0>
-66.3641

>  <SCORE.INTRA.VDW>
-2.76291

>  <SCORE.INTRA.VDW.0>
0.452231

>  <SCORE.INTRA.norm>
-0.157274

>  <SCORE.RESTR>
0

>  <SCORE.RESTR.CAVITY>
0

>  <SCORE.RESTR.norm>
0

>  <SCORE.SYSTEM>
0

>  <SCORE.SYSTEM.CONST>
0

>  <SCORE.SYSTEM.DIHEDRAL>
0

>  <SCORE.SYSTEM.SOLV>
0

>  <SCORE.SYSTEM.norm>
0

>  <SCORE.heavy>
23

>  <SCORE.norm>
-0.704911

>  <RMSD>
17.443

$$$$
ligand
 OpenBabel02271912143D
libRbt.so/2013.1/901 2013/11/27
 23 25  0  0  0  0  0  0  0  0999 V2000
    4.9956    6.8045   27.1650 P   0  0  1  0  0  0  0  0  0  0  0  0
    3.2215    4.8790   27.1676 C   0  0  0  0  0  0  0  0  0  0  0  0
    4.2779    5.5388   27.8513 O   0  0  0  0  0  0  0  0  0  0  0  0
    3.8507    3.9728   26.1335 C   0  0  1  0  0  0  0  0  0  0  0  0
    4.4348    2.8110   26.7219 O   0  0  0  0  0  0  0  0  0  0  0  0
    2.7815    3.5129   25.1569 C   0  0  1  0  0  0  0  0  0  0  0  0
    3.2914    3.6815   23.8229 O   0  0  0  0  0  0  0  0  0  0  0  0
    2.5318    2.0485   25.4955 C   0  0  0  0  0  0  0  0  0  0  0  0
    3.7816    1.6212   26.2604 C   0  0  2  0  0  0  0  0  0  0  0  0
    3.9038   -2.9365   28.6571 N   0  0  0  0  0  0  0  0  0  0  0  0
    4.3784   -2.6297   27.4388 C   0  0  2  0  0  0  0  0  0  0  0  0
    4.9784   -3.6132   26.7286 N   0  0  0  0  0  0  0  0  0  0  0  0
    4.2682   -1.3740   26.9420 N   0  0  0  0  0  0  0  0  0  0  0  0
    3.6715   -0.4148   27.6792 C   0  0  2  0  0  0  0  0  0  0  0  0
    3.1774   -0.7139   28.9305 C   0  0  1  0  0  0  0  0  0  0  0  0
    3.3090   -2.0002   29.4184 C   0  0  0  0  0  0  0  0  0  0  0  0
    2.8734   -2.2903   30.5535 O   0  0  0  0  0  0  0  0  0  0  0  0
    2.6312    0.4064   29.4432 N   0  0  0  0  0  0  0  0  0  0  0  0
    2.7896    1.3823   28.5317 C   0  0  0  0  0  0  0  0  0  0  0  0
    3.4112    0.8698   27.4642 N   0  0  1  0  0  0  0  0  0  0  0  0
    6.2058    7.1343   28.0044 O   0  0  0  0  0  0  0  0  0  0  0  0
    5.3171    6.3273   25.7674 O   0  5  0  0  0  0  0  0  0  0  0  0
    3.9241    7.8599   27.2156 O   0  0  0  0  0  0  0  0  0  0  0  0
  1  3  1  1  0  0  0
  1 21  1  0  0  0  0
  1 22  1  0  0  0  0
  1 23  2  0  0  0  0
  2  3  1  0  0  0  0
  4  2  1  1  0  0  0
  4  5  1  0  0  0  0
  4  6  1  0  0  0  0
  6  7  1  6  0  0  0
  6  8  1  0  0  0  0
  8  9  1  0  0  0  0
  9  5  1  1  0  0  0
  9 20  1  0  0  0  0
 10 11  1  0  0  0  0
 10 16  1  0  0  0  0
 11 12  1  1  0  0  0
 11 13  1  0  0  0  0
 14 13  1  6  0  0  0
 14 15  1  0  0  0  0
 14 20  1  0  0  0  0
 15 16  1  1  0  0  0
 15 18  1  0  0  0  0
 16 17  2  0  0  0  0
 18 19  1  0  0  0  0
 20 19  1  1  0  0  0
M  CHG  1  22  -1
M  END
>  <CHROM.1>
-170.59195295,74.47609446,79.43597572,-129.78364873,3.91897851,2.28653427
27.29344569,-0.57280903,1.44089057,1.95881869

>  <Name>
ligand

>  <RI>
0

>  <Rbt.Current_Directory>
/home/itssahil/PROJECTS/Mol_Feturizer/Test_systems_manuscript/rnas/3slm

>  <Rbt.Executable>
rbdock ($Id: //depot/dev/client3/rdock/2013.1/src/exe/rbdock.cxx#4 $)

>  <Rbt.Library>
libRbt.so (2013.1, Build901 2013/11/27)

>  <Rbt.Parameter_File>
/export/apps/rDock/src/rDock_2013.1_src/data/scripts/dock_solv.prm

>  <Rbt.Receptor>
prm/blind_docking_100.prm

>  <SCORE>
-18.9472

>  <SCORE.INTER>
-15.9227

>  <SCORE.INTER.CONST>
1

>  <SCORE.INTER.POLAR>
0

>  <SCORE.INTER.ROT>
4

>  <SCORE.INTER.SOLV>
14.5718

>  <SCORE.INTER.VDW>
-21.7391

>  <SCORE.INTER.norm>
-0.692292

>  <SCORE.INTRA>
-3.02446

>  <SCORE.INTRA.DIHEDRAL>
-4.80152

>  <SCORE.INTRA.DIHEDRAL.0>
8.62657

>  <SCORE.INTRA.POLAR>
0

>  <SCORE.INTRA.POLAR.0>
0

>  <SCORE.INTRA.REPUL>
0

>  <SCORE.INTRA.REPUL.0>
0

>  <SCORE.INTRA.SOLV>
2.33602

>  <SCORE.INTRA.SOLV.lig_0>
-66.3641

>  <SCORE.INTRA.VDW>
-1.79171

>  <SCORE.INTRA.VDW.0>
0.452231

>  <SCORE.INTRA.norm>
-0.131498

>  <SCORE.RESTR>
0

>  <SCORE.RESTR.CAVITY>
0

>  <SCORE.RESTR.norm>
0

>  <SCORE.SYSTEM>
0

>  <SCORE.SYSTEM.CONST>
0

>  <SCORE.SYSTEM.DIHEDRAL>
0

>  <SCORE.SYSTEM.SOLV>
0

>  <SCORE.SYSTEM.norm>
0

>  <SCORE.heavy>
23

>  <SCORE.norm>
-0.82379

>  <RMSD>
17.528

$$$$
ligand
 OpenBabel02271912143D
libRbt.so/2013.1/901 2013/11/27
 23 25  0  0  0  0  0  0  0  0999 V2000
    3.7004    4.1169   26.0994 P   0  0  1  0  0  0  0  0  0  0  0  0
    4.1299    5.3817   28.3513 C   0  0  0  0  0  0  0  0  0  0  0  0
    4.1602    5.4150   26.9312 O   0  0  0  0  0  0  0  0  0  0  0  0
    4.5001    6.7632   28.8423 C   0  0  1  0  0  0  0  0  0  0  0  0
    4.5108    6.8415   30.2673 O   0  0  0  0  0  0  0  0  0  0  0  0
    5.8931    7.1120   28.3461 C   0  0  1  0  0  0  0  0  0  0  0  0
    5.8524    8.4393   27.7942 O   0  0  0  0  0  0  0  0  0  0  0  0
    6.7896    7.0283   29.5751 C   0  0  0  0  0  0  0  0  0  0  0  0
    5.8252    7.1453   30.7525 C   0  0  2  0  0  0  0  0  0  0  0  0
    4.1076    4.5675   34.8679 N   0  0  0  0  0  0  0  0  0  0  0  0
    3.4773    5.5264   34.1703 C   0  0  2  0  0  0  0  0  0  0  0  0
    2.2306    5.8773   34.5630 N   0  0  0  0  0  0  0  0  0  0  0  0
    4.0672    6.1158   33.1024 N   0  0  0  0  0  0  0  0  0  0  0  0
    5.3080    5.7372   32.7325 C   0  0  2  0  0  0  0  0  0  0  0  0
    5.9692    4.7560   33.4391 C   0  0  1  0  0  0  0  0  0  0  0  0
    5.3431    4.1644   34.5197 C   0  0  0  0  0  0  0  0  0  0  0  0
    5.9231    3.2681   35.1698 O   0  0  0  0  0  0  0  0  0  0  0  0
    7.1788    4.5759   32.8727 N   0  0  0  0  0  0  0  0  0  0  0  0
    7.2634    5.4228   31.8317 C   0  0  0  0  0  0  0  0  0  0  0  0
    6.1288    6.1276   31.7639 N   0  0  1  0  0  0  0  0  0  0  0  0
    2.2927    3.7897   26.5348 O   0  0  0  0  0  0  0  0  0  0  0  0
    3.8225    4.5473   24.6558 O   0  5  0  0  0  0  0  0  0  0  0  0
    4.7125    3.0831   26.5135 O   0  0  0  0  0  0  0  0  0  0  0  0
  1  3  1  1  0  0  0
  1 21  1  0  0  0  0
  1 22  1  0  0  0  0
  1 23  2  0  0  0  0
  2  3  1  0  0  0  0
  4  2  1  1  0  0  0
  4  5  1  0  0  0  0
  4  6  1  0  0  0  0
  6  7  1  1  0  0  0
  6  8  1  0  0  0  0
  8  9  1  0  0  0  0
  9  5  1  6  0  0  0
  9 20  1  0  0  0  0
 10 11  1  0  0  0  0
 10 16  1  0  0  0  0
 11 12  1  6  0  0  0
 11 13  1  0  0  0  0
 14 13  1  1  0  0  0
 14 15  1  0  0  0  0
 14 20  1  0  0  0  0
 15 16  1  6  0  0  0
 15 18  1  0  0  0  0
 16 17  2  0  0  0  0
 18 19  1  0  0  0  0
 20 19  1  6  0  0  0
M  CHG  1  22  -1
M  END
>  <CHROM.1>
56.71450224,-179.55543818,-175.35813065,-46.24946413,4.82133943,5.38208570
30.20624010,1.77865804,-0.89163723,-1.42624459

>  <Name>
ligand

>  <RI>
0

>  <Rbt.Current_Directory>
/home/itssahil/PROJECTS/Mol_Feturizer/Test_systems_manuscript/rnas/3slm

>  <Rbt.Executable>
rbdock ($Id: //depot/dev/client3/rdock/2013.1/src/exe/rbdock.cxx#4 $)

>  <Rbt.Library>
libRbt.so (2013.1, Build901 2013/11/27)

>  <Rbt.Parameter_File>
/export/apps/rDock/src/rDock_2013.1_src/data/scripts/dock_solv.prm

>  <Rbt.Receptor>
prm/blind_docking_100.prm

>  <SCORE>
-18.9601

>  <SCORE.INTER>
-14.4311

>  <SCORE.INTER.CONST>
1

>  <SCORE.INTER.POLAR>
0

>  <SCORE.INTER.ROT>
4

>  <SCORE.INTER.SOLV>
13.9141

>  <SCORE.INTER.VDW>
-20.5255

>  <SCORE.INTER.norm>
-0.627441

>  <SCORE.INTRA>
-4.52896

>  <SCORE.INTRA.DIHEDRAL>
-7.26973

>  <SCORE.INTRA.DIHEDRAL.0>
8.62657

>  <SCORE.INTRA.POLAR>
0

>  <SCORE.INTRA.POLAR.0>
0

>  <SCORE.INTRA.REPUL>
0

>  <SCORE.INTRA.REPUL.0>
0

>  <SCORE.INTRA.SOLV>
-0.457822

>  <SCORE.INTRA.SOLV.lig_0>
-66.3641

>  <SCORE.INTRA.VDW>
-0.665183

>  <SCORE.INTRA.VDW.0>
0.452231

>  <SCORE.INTRA.norm>
-0.196911

>  <SCORE.RESTR>
0

>  <SCORE.RESTR.CAVITY>
0

>  <SCORE.RESTR.norm>
0

>  <SCORE.SYSTEM>
0

>  <SCORE.SYSTEM.CONST>
0

>  <SCORE.SYSTEM.DIHEDRAL>
0

>  <SCORE.SYSTEM.SOLV>
0

>  <SCORE.SYSTEM.norm>
0

>  <SCORE.heavy>
23

>  <SCORE.norm>
-0.824352

>  <RMSD>
17.552

$$$$
ligand
 OpenBabel02271912143D
libRbt.so/2013.1/901 2013/11/27
 23 25  0  0  0  0  0  0  0  0999 V2000
    2.2078    2.7769   30.7105 P   0  0  1  0  0  0  0  0  0  0  0  0
    2.7734    4.8883   29.2692 C   0  0  0  0  0  0  0  0  0  0  0  0
    2.2222    3.5796   29.3163 O   0  0  0  0  0  0  0  0  0  0  0  0
    2.6791    5.3657   27.8375 C   0  0  1  0  0  0  0  0  0  0  0  0
    3.1704    6.6965   27.6818 O   0  0  0  0  0  0  0  0  0  0  0  0
    3.5129    4.4548   26.9523 C   0  0  1  0  0  0  0  0  0  0  0  0
    2.7221    4.0993   25.8050 O   0  0  0  0  0  0  0  0  0  0  0  0
    4.7387    5.2761   26.5729 C   0  0  0  0  0  0  0  0  0  0  0  0
    4.3125    6.7215   26.8156 C   0  0  2  0  0  0  0  0  0  0  0  0
    6.9903    7.0887   31.2004 N   0  0  0  0  0  0  0  0  0  0  0  0
    6.0101    6.2211   30.9000 C   0  0  2  0  0  0  0  0  0  0  0  0
    5.6638    5.3096   31.8386 N   0  0  0  0  0  0  0  0  0  0  0  0
    5.3954    6.2520   29.6929 N   0  0  0  0  0  0  0  0  0  0  0  0
    5.7701    7.1684   28.7767 C   0  0  2  0  0  0  0  0  0  0  0  0
    6.7729    8.0670   29.0701 C   0  0  1  0  0  0  0  0  0  0  0  0
    7.3900    8.0102   30.3053 C   0  0  0  0  0  0  0  0  0  0  0  0
    8.3060    8.8121   30.5886 O   0  0  0  0  0  0  0  0  0  0  0  0
    6.9438    8.8673   27.9993 N   0  0  0  0  0  0  0  0  0  0  0  0
    6.0700    8.4687   27.0582 C   0  0  0  0  0  0  0  0  0  0  0  0
    5.3581    7.4464   27.5450 N   0  0  1  0  0  0  0  0  0  0  0  0
    3.6113    2.8277   31.2634 O   0  0  0  0  0  0  0  0  0  0  0  0
    1.1826    3.5116   31.5431 O   0  5  0  0  0  0  0  0  0  0  0  0
    1.7765    1.3970   30.2932 O   0  0  0  0  0  0  0  0  0  0  0  0
  1  3  1  6  0  0  0
  1 21  1  0  0  0  0
  1 22  1  0  0  0  0
  1 23  2  0  0  0  0
  2  3  1  0  0  0  0
  4  2  1  1  0  0  0
  4  5  1  0  0  0  0
  4  6  1  0  0  0  0
  6  7  1  6  0  0  0
  6  8  1  0  0  0  0
  8  9  1  0  0  0  0
  9  5  1  1  0  0  0
  9 20  1  0  0  0  0
 10 11  1  0  0  0  0
 10 16  1  0  0  0  0
 11 12  1  6  0  0  0
 11 13  1  0  0  0  0
 14 13  1  1  0  0  0
 14 15  1  0  0  0  0
 14 20  1  0  0  0  0
 15 16  1  6  0  0  0
 15 18  1  0  0  0  0
 16 17  2  0  0  0  0
 18 19  1  0  0  0  0
 20 19  1  6  0  0  0
M  CHG  1  22  -1
M  END
>  <CHROM.1>
-51.06219176,178.17680364,178.57612117,52.52937066,4.37425946,5.53865671
29.19861854,-2.73997008,-0.75553441,-1.19529601

>  <Name>
ligand

>  <RI>
0

>  <Rbt.Current_Directory>
/home/itssahil/PROJECTS/Mol_Feturizer/Test_systems_manuscript/rnas/3slm

>  <Rbt.Executable>
rbdock ($Id: //depot/dev/client3/rdock/2013.1/src/exe/rbdock.cxx#4 $)

>  <Rbt.Library>
libRbt.so (2013.1, Build901 2013/11/27)

>  <Rbt.Parameter_File>
/export/apps/rDock/src/rDock_2013.1_src/data/scripts/dock_solv.prm

>  <Rbt.Receptor>
prm/blind_docking_40.prm

>  <SCORE>
-21.8944

>  <SCORE.INTER>
-16.6625

>  <SCORE.INTER.CONST>
1

>  <SCORE.INTER.POLAR>
0

>  <SCORE.INTER.ROT>
4

>  <SCORE.INTER.SOLV>
10.9583

>  <SCORE.INTER.VDW>
-21.0278

>  <SCORE.INTER.norm>
-0.724456

>  <SCORE.INTRA>
-5.23188

>  <SCORE.INTRA.DIHEDRAL>
-7.28407

>  <SCORE.INTRA.DIHEDRAL.0>
8.62657

>  <SCORE.INTRA.POLAR>
0

>  <SCORE.INTRA.POLAR.0>
0

>  <SCORE.INTRA.REPUL>
0.0456632

>  <SCORE.INTRA.REPUL.0>
0

>  <SCORE.INTRA.SOLV>
1.6357

>  <SCORE.INTRA.SOLV.lig_0>
-66.3641

>  <SCORE.INTRA.VDW>
-2.63601

>  <SCORE.INTRA.VDW.0>
0.452231

>  <SCORE.INTRA.norm>
-0.227473

>  <SCORE.RESTR>
0

>  <SCORE.RESTR.CAVITY>
0

>  <SCORE.RESTR.norm>
0

>  <SCORE.SYSTEM>
0

>  <SCORE.SYSTEM.CONST>
0

>  <SCORE.SYSTEM.DIHEDRAL>
0

>  <SCORE.SYSTEM.SOLV>
0

>  <SCORE.SYSTEM.norm>
0

>  <SCORE.heavy>
23

>  <SCORE.norm>
-0.95193

>  <RMSD>
17.566

$$$$
ligand
 OpenBabel02271912143D
libRbt.so/2013.1/901 2013/11/27
 23 25  0  0  0  0  0  0  0  0999 V2000
    8.0290    8.8511   30.6601 P   0  0  1  0  0  0  0  0  0  0  0  0
    6.3115    7.3935   29.3256 C   0  0  0  0  0  0  0  0  0  0  0  0
    7.4716    8.2132   29.2924 O   0  0  0  0  0  0  0  0  0  0  0  0
    5.9999    6.9958   27.9003 C   0  0  1  0  0  0  0  0  0  0  0  0
    5.0299    5.9510   27.8343 O   0  0  0  0  0  0  0  0  0  0  0  0
    5.4408    8.1980   27.1582 C   0  0  1  0  0  0  0  0  0  0  0  0
    6.1208    8.3003   25.8952 O   0  0  0  0  0  0  0  0  0  0  0  0
    3.9545    7.9094   26.9886 C   0  0  0  0  0  0  0  0  0  0  0  0
    3.8426    6.3975   27.1664 C   0  0  2  0  0  0  0  0  0  0  0  0
    2.3380    5.7168   32.0454 N   0  0  0  0  0  0  0  0  0  0  0  0
    3.5661    6.0180   31.5930 C   0  0  2  0  0  0  0  0  0  0  0  0
    4.5531    6.1798   32.5047 N   0  0  0  0  0  0  0  0  0  0  0  0
    3.8059    6.1643   30.2675 N   0  0  0  0  0  0  0  0  0  0  0  0
    2.7979    6.0040   29.3855 C   0  0  2  0  0  0  0  0  0  0  0  0
    1.5323    5.6928   29.8335 C   0  0  1  0  0  0  0  0  0  0  0  0
    1.3113    5.5565   31.1908 C   0  0  0  0  0  0  0  0  0  0  0  0
    0.1694    5.2810   31.6179 O   0  0  0  0  0  0  0  0  0  0  0  0
    0.7244    5.5818   28.7605 N   0  0  0  0  0  0  0  0  0  0  0  0
    1.4718    5.8262   27.6697 C   0  0  0  0  0  0  0  0  0  0  0  0
    2.7274    6.0700   28.0608 N   0  0  1  0  0  0  0  0  0  0  0  0
    9.3549    9.4962   30.3378 O   0  0  0  0  0  0  0  0  0  0  0  0
    6.9479    9.8219   31.0762 O   0  5  0  0  0  0  0  0  0  0  0  0
    8.1481    7.6512   31.5603 O   0  0  0  0  0  0  0  0  0  0  0  0
  1  3  1  6  0  0  0
  1 21  1  0  0  0  0
  1 22  1  0  0  0  0
  1 23  2  0  0  0  0
  2  3  1  0  0  0  0
  4  2  1  1  0  0  0
  4  5  1  0  0  0  0
  4  6  1  0  0  0  0
  6  7  1  6  0  0  0
  6  8  1  0  0  0  0
  8  9  1  0  0  0  0
  9  5  1  1  0  0  0
  9 20  1  0  0  0  0
 10 11  1  0  0  0  0
 10 16  1  0  0  0  0
 11 12  1  1  0  0  0
 11 13  1  0  0  0  0
 14 13  1  6  0  0  0
 14 15  1  0  0  0  0
 14 20  1  0  0  0  0
 15 16  1  1  0  0  0
 15 18  1  0  0  0  0
 16 17  2  0  0  0  0
 18 19  1  0  0  0  0
 20 19  1  1  0  0  0
M  CHG  1  22  -1
M  END
>  <CHROM.1>
172.24165826,167.67854243,177.58039352,29.21532289,4.73284638,7.08757449
29.55424470,-0.02655693,0.45479804,1.64706493

>  <Name>
ligand

>  <RI>
0

>  <Rbt.Current_Directory>
/home/itssahil/PROJECTS/Mol_Feturizer/Test_systems_manuscript/rnas/3slm

>  <Rbt.Executable>
rbdock ($Id: //depot/dev/client3/rdock/2013.1/src/exe/rbdock.cxx#4 $)

>  <Rbt.Library>
libRbt.so (2013.1, Build901 2013/11/27)

>  <Rbt.Parameter_File>
/export/apps/rDock/src/rDock_2013.1_src/data/scripts/dock_solv.prm

>  <Rbt.Receptor>
prm/blind_docking_40.prm

>  <SCORE>
-18.0719

>  <SCORE.INTER>
-13.6012

>  <SCORE.INTER.CONST>
1

>  <SCORE.INTER.POLAR>
0

>  <SCORE.INTER.ROT>
4

>  <SCORE.INTER.SOLV>
23.9365

>  <SCORE.INTER.VDW>
-23.313

>  <SCORE.INTER.norm>
-0.591358

>  <SCORE.INTRA>
-4.47066

>  <SCORE.INTRA.DIHEDRAL>
-6.84144

>  <SCORE.INTRA.DIHEDRAL.0>
8.62657

>  <SCORE.INTRA.POLAR>
0

>  <SCORE.INTRA.POLAR.0>
0

>  <SCORE.INTRA.REPUL>
0

>  <SCORE.INTRA.REPUL.0>
0

>  <SCORE.INTRA.SOLV>
1.99831

>  <SCORE.INTRA.SOLV.lig_0>
-66.3641

>  <SCORE.INTRA.VDW>
-2.04909

>  <SCORE.INTRA.VDW.0>
0.452231

>  <SCORE.INTRA.norm>
-0.194376

>  <SCORE.RESTR>
0

>  <SCORE.RESTR.CAVITY>
0

>  <SCORE.RESTR.norm>
0

>  <SCORE.SYSTEM>
0

>  <SCORE.SYSTEM.CONST>
0

>  <SCORE.SYSTEM.DIHEDRAL>
0

>  <SCORE.SYSTEM.SOLV>
0

>  <SCORE.SYSTEM.norm>
0

>  <SCORE.heavy>
23

>  <SCORE.norm>
-0.785734

>  <RMSD>
17.576

$$$$
ligand
 OpenBabel02271912143D
libRbt.so/2013.1/901 2013/11/27
 23 25  0  0  0  0  0  0  0  0999 V2000
    4.7739    6.7910   27.0498 P   0  0  1  0  0  0  0  0  0  0  0  0
    5.0936    6.5777   29.6397 C   0  0  0  0  0  0  0  0  0  0  0  0
    5.5372    7.1535   28.4189 O   0  0  0  0  0  0  0  0  0  0  0  0
    5.9110    7.1949   30.7521 C   0  0  1  0  0  0  0  0  0  0  0  0
    5.4719    6.7682   32.0413 O   0  0  0  0  0  0  0  0  0  0  0  0
    7.3636    6.7785   30.5934 C   0  0  1  0  0  0  0  0  0  0  0  0
    8.1832    7.9521   30.7312 O   0  0  0  0  0  0  0  0  0  0  0  0
    7.6153    5.7684   31.7058 C   0  0  0  0  0  0  0  0  0  0  0  0
    6.5041    6.0378   32.7169 C   0  0  2  0  0  0  0  0  0  0  0  0
    2.4746    3.8236   35.0390 N   0  0  0  0  0  0  0  0  0  0  0  0
    2.6957    5.1327   34.8363 C   0  0  2  0  0  0  0  0  0  0  0  0
    1.7599    6.0067   35.2745 N   0  0  0  0  0  0  0  0  0  0  0  0
    3.8148    5.5626   34.2049 N   0  0  0  0  0  0  0  0  0  0  0  0
    4.7241    4.6645   33.7735 C   0  0  2  0  0  0  0  0  0  0  0  0
    4.5131    3.3178   33.9755 C   0  0  1  0  0  0  0  0  0  0  0  0
    3.3601    2.9037   34.6150 C   0  0  0  0  0  0  0  0  0  0  0  0
    3.1468    1.6864   34.8023 O   0  0  0  0  0  0  0  0  0  0  0  0
    5.5639    2.6481   33.4621 N   0  0  0  0  0  0  0  0  0  0  0  0
    6.4062    3.5603   32.9455 C   0  0  0  0  0  0  0  0  0  0  0  0
    5.8914    4.7777   33.1499 N   0  0  1  0  0  0  0  0  0  0  0  0
    4.8680    5.2948   26.8751 O   0  0  0  0  0  0  0  0  0  0  0  0
    3.3699    7.3063   27.2682 O   0  5  0  0  0  0  0  0  0  0  0  0
    5.5529    7.5658   26.0216 O   0  0  0  0  0  0  0  0  0  0  0  0
  1  3  1  1  0  0  0
  1 21  1  0  0  0  0
  1 22  1  0  0  0  0
  1 23  2  0  0  0  0
  2  3  1  0  0  0  0
  4  2  1  6  0  0  0
  4  5  1  0  0  0  0
  4  6  1  0  0  0  0
  6  7  1  1  0  0  0
  6  8  1  0  0  0  0
  8  9  1  0  0  0  0
  9  5  1  6  0  0  0
  9 20  1  0  0  0  0
 10 11  1  0  0  0  0
 10 16  1  0  0  0  0
 11 12  1  6  0  0  0
 11 13  1  0  0  0  0
 14 13  1  1  0  0  0
 14 15  1  0  0  0  0
 14 20  1  0  0  0  0
 15 16  1  6  0  0  0
 15 18  1  0  0  0  0
 16 17  2  0  0  0  0
 18 19  1  0  0  0  0
 20 19  1  6  0  0  0
M  CHG  1  22  -1
M  END
>  <CHROM.1>
-59.18693982,175.13949465,-174.93016456,-47.64826155,4.98431943,5.58085915
31.34302832,1.34934211,-0.31759623,-1.21055123

>  <Name>
ligand

>  <RI>
0

>  <Rbt.Current_Directory>
/home/itssahil/PROJECTS/Mol_Feturizer/Test_systems_manuscript/rnas/3slm

>  <Rbt.Executable>
rbdock ($Id: //depot/dev/client3/rdock/2013.1/src/exe/rbdock.cxx#4 $)

>  <Rbt.Library>
libRbt.so (2013.1, Build901 2013/11/27)

>  <Rbt.Parameter_File>
/export/apps/rDock/src/rDock_2013.1_src/data/scripts/dock_solv.prm

>  <Rbt.Receptor>
prm/blind_docking_100.prm

>  <SCORE>
-18.2389

>  <SCORE.INTER>
-13.6161

>  <SCORE.INTER.CONST>
1

>  <SCORE.INTER.POLAR>
0

>  <SCORE.INTER.ROT>
4

>  <SCORE.INTER.SOLV>
16.8096

>  <SCORE.INTER.VDW>
-20.9472

>  <SCORE.INTER.norm>
-0.592002

>  <SCORE.INTRA>
-4.62287

>  <SCORE.INTRA.DIHEDRAL>
-7.17909

>  <SCORE.INTRA.DIHEDRAL.0>
8.62657

>  <SCORE.INTRA.POLAR>
0

>  <SCORE.INTRA.POLAR.0>
0

>  <SCORE.INTRA.REPUL>
0

>  <SCORE.INTRA.REPUL.0>
0

>  <SCORE.INTRA.SOLV>
-0.502841

>  <SCORE.INTRA.SOLV.lig_0>
-66.3641

>  <SCORE.INTRA.VDW>
-0.781904

>  <SCORE.INTRA.VDW.0>
0.452231

>  <SCORE.INTRA.norm>
-0.200994

>  <SCORE.RESTR>
0

>  <SCORE.RESTR.CAVITY>
0

>  <SCORE.RESTR.norm>
0

>  <SCORE.SYSTEM>
0

>  <SCORE.SYSTEM.CONST>
0

>  <SCORE.SYSTEM.DIHEDRAL>
0

>  <SCORE.SYSTEM.SOLV>
0

>  <SCORE.SYSTEM.norm>
0

>  <SCORE.heavy>
23

>  <SCORE.norm>
-0.792997

>  <RMSD>
17.598

$$$$
ligand
 OpenBabel02271912143D
libRbt.so/2013.1/901 2013/11/27
 23 25  0  0  0  0  0  0  0  0999 V2000
    1.7362    4.8991   28.3291 P   0  0  1  0  0  0  0  0  0  0  0  0
    4.0159    6.1856   28.3840 C   0  0  0  0  0  0  0  0  0  0  0  0
    2.7644    5.9337   29.0077 O   0  0  0  0  0  0  0  0  0  0  0  0
    4.6066    7.4139   29.0388 C   0  0  1  0  0  0  0  0  0  0  0  0
    4.8637    7.2107   30.4278 O   0  0  0  0  0  0  0  0  0  0  0  0
    5.9260    7.7521   28.3654 C   0  0  1  0  0  0  0  0  0  0  0  0
    5.9338    9.1612   28.0784 O   0  0  0  0  0  0  0  0  0  0  0  0
    7.0015    7.3652   29.3728 C   0  0  0  0  0  0  0  0  0  0  0  0
    6.2654    7.3184   30.7092 C   0  0  2  0  0  0  0  0  0  0  0  0
    4.6243    3.6012   33.8748 N   0  0  0  0  0  0  0  0  0  0  0  0
    3.9302    4.6471   33.3973 C   0  0  2  0  0  0  0  0  0  0  0  0
    2.6330    4.7651   33.7647 N   0  0  0  0  0  0  0  0  0  0  0  0
    4.5080    5.5487   32.5672 N   0  0  0  0  0  0  0  0  0  0  0  0
    5.8011    5.3975   32.2142 C   0  0  2  0  0  0  0  0  0  0  0  0
    6.5278    4.3307   32.6971 C   0  0  1  0  0  0  0  0  0  0  0  0
    5.9137    3.4203   33.5361 C   0  0  0  0  0  0  0  0  0  0  0  0
    6.5534    2.4424   33.9797 O   0  0  0  0  0  0  0  0  0  0  0  0
    7.7786    4.4188   32.2033 N   0  0  0  0  0  0  0  0  0  0  0  0
    7.8250    5.5138   31.4241 C   0  0  0  0  0  0  0  0  0  0  0  0
    6.6247    6.1032   31.4475 N   0  0  1  0  0  0  0  0  0  0  0  0
    1.1773    5.5745   27.1004 O   0  0  0  0  0  0  0  0  0  0  0  0
    2.5827    3.6808   28.0404 O   0  5  0  0  0  0  0  0  0  0  0  0
    0.7156    4.6871   29.4144 O   0  0  0  0  0  0  0  0  0  0  0  0
  1  3  1  1  0  0  0
  1 21  1  0  0  0  0
  1 22  1  0  0  0  0
  1 23  2  0  0  0  0
  2  3  1  0  0  0  0
  4  2  1  6  0  0  0
  4  5  1  0  0  0  0
  4  6  1  0  0  0  0
  6  7  1  1  0  0  0
  6  8  1  0  0  0  0
  8  9  1  0  0  0  0
  9  5  1  6  0  0  0
  9 20  1  0  0  0  0
 10 11  1  0  0  0  0
 10 16  1  0  0  0  0
 11 12  1  6  0  0  0
 11 13  1  0  0  0  0
 14 13  1  1  0  0  0
 14 15  1  0  0  0  0
 14 20  1  0  0  0  0
 15 16  1  6  0  0  0
 15 18  1  0  0  0  0
 16 17  2  0  0  0  0
 18 19  1  0  0  0  0
 20 19  1  6  0  0  0
M  CHG  1  22  -1
M  END
>  <CHROM.1>
-72.21930855,62.67936102,166.49955441,-27.88566915,4.54857439,5.51436213
30.53641398,2.26349088,-0.44965984,-0.92647694

>  <Name>
ligand

>  <RI>
0

>  <Rbt.Current_Directory>
/home/itssahil/PROJECTS/Mol_Feturizer/Test_systems_manuscript/rnas/3slm

>  <Rbt.Executable>
rbdock ($Id: //depot/dev/client3/rdock/2013.1/src/exe/rbdock.cxx#4 $)

>  <Rbt.Library>
libRbt.so (2013.1, Build901 2013/11/27)

>  <Rbt.Parameter_File>
/export/apps/rDock/src/rDock_2013.1_src/data/scripts/dock_solv.prm

>  <Rbt.Receptor>
prm/blind_docking_60.prm

>  <SCORE>
-21.3306

>  <SCORE.INTER>
-16.7326

>  <SCORE.INTER.CONST>
1

>  <SCORE.INTER.POLAR>
0

>  <SCORE.INTER.ROT>
4

>  <SCORE.INTER.SOLV>
10.2948

>  <SCORE.INTER.VDW>
-20.8533

>  <SCORE.INTER.norm>
-0.727506

>  <SCORE.INTRA>
-4.59859

>  <SCORE.INTRA.DIHEDRAL>
-6.25999

>  <SCORE.INTRA.DIHEDRAL.0>
8.62657

>  <SCORE.INTRA.POLAR>
0

>  <SCORE.INTRA.POLAR.0>
0

>  <SCORE.INTRA.REPUL>
0

>  <SCORE.INTRA.REPUL.0>
0

>  <SCORE.INTRA.SOLV>
-0.603121

>  <SCORE.INTRA.SOLV.lig_0>
-66.3641

>  <SCORE.INTRA.VDW>
-1.16703

>  <SCORE.INTRA.VDW.0>
0.452231

>  <SCORE.INTRA.norm>
-0.199939

>  <SCORE.RESTR>
0.000626226

>  <SCORE.RESTR.CAVITY>
0.000626226

>  <SCORE.RESTR.norm>
2.72272e-05

>  <SCORE.SYSTEM>
0

>  <SCORE.SYSTEM.CONST>
0

>  <SCORE.SYSTEM.DIHEDRAL>
0

>  <SCORE.SYSTEM.SOLV>
0

>  <SCORE.SYSTEM.norm>
0

>  <SCORE.heavy>
23

>  <SCORE.norm>
-0.927417

>  <RMSD>
17.608

$$$$
ligand
 OpenBabel02271912143D
libRbt.so/2013.1/901 2013/11/27
 23 25  0  0  0  0  0  0  0  0999 V2000
    2.6847   -0.0890   28.0128 P   0  0  1  0  0  0  0  0  0  0  0  0
    3.6715    2.2715   28.5690 C   0  0  0  0  0  0  0  0  0  0  0  0
    3.8632    1.0047   27.9549 O   0  0  0  0  0  0  0  0  0  0  0  0
    2.8746    3.1229   27.6064 C   0  0  1  0  0  0  0  0  0  0  0  0
    2.8938    4.5034   27.9680 O   0  0  0  0  0  0  0  0  0  0  0  0
    3.4740    2.9972   26.2159 C   0  0  1  0  0  0  0  0  0  0  0  0
    2.4025    2.7609   25.2863 O   0  0  0  0  0  0  0  0  0  0  0  0
    4.1745    4.3256   25.9593 C   0  0  0  0  0  0  0  0  0  0  0  0
    3.5272    5.2895   26.9501 C   0  0  2  0  0  0  0  0  0  0  0  0
    5.8139    6.3656   31.4384 N   0  0  0  0  0  0  0  0  0  0  0  0
    4.8034    5.5112   31.2089 C   0  0  2  0  0  0  0  0  0  0  0  0
    4.3062    4.8232   32.2629 N   0  0  0  0  0  0  0  0  0  0  0  0
    4.3053    5.3374   29.9609 N   0  0  0  0  0  0  0  0  0  0  0  0
    4.8291    6.0332   28.9307 C   0  0  2  0  0  0  0  0  0  0  0  0
    5.8649    6.9153   29.1499 C   0  0  1  0  0  0  0  0  0  0  0  0
    6.3608    7.0692   30.4306 C   0  0  0  0  0  0  0  0  0  0  0  0
    7.3043    7.8594   30.6493 O   0  0  0  0  0  0  0  0  0  0  0  0
    6.1917    7.4781   27.9697 N   0  0  0  0  0  0  0  0  0  0  0  0
    5.3801    6.9506   27.0363 C   0  0  0  0  0  0  0  0  0  0  0  0
    4.5529    6.0851   27.6325 N   0  0  1  0  0  0  0  0  0  0  0  0
    1.4215    0.5990   27.5553 O   0  0  0  0  0  0  0  0  0  0  0  0
    3.1634   -1.1892   27.0938 O   0  5  0  0  0  0  0  0  0  0  0  0
    2.6644   -0.4768   29.4666 O   0  0  0  0  0  0  0  0  0  0  0  0
  1  3  1  6  0  0  0
  1 21  1  0  0  0  0
  1 22  1  0  0  0  0
  1 23  2  0  0  0  0
  2  3  1  0  0  0  0
  4  2  1  1  0  0  0
  4  5  1  0  0  0  0
  4  6  1  0  0  0  0
  6  7  1  6  0  0  0
  6  8  1  0  0  0  0
  8  9  1  0  0  0  0
  9  5  1  1  0  0  0
  9 20  1  0  0  0  0
 10 11  1  0  0  0  0
 10 16  1  0  0  0  0
 11 12  1  6  0  0  0
 11 13  1  0  0  0  0
 14 13  1  1  0  0  0
 14 15  1  0  0  0  0
 14 20  1  0  0  0  0
 15 16  1  6  0  0  0
 15 18  1  0  0  0  0
 16 17  2  0  0  0  0
 18 19  1  0  0  0  0
 20 19  1  6  0  0  0
M  CHG  1  22  -1
M  END
>  <CHROM.1>
50.28703717,-165.96463218,-81.21443708,1.46369294,4.05940830,3.79475845,28.43578591
-2.96636459,-1.13477191,-1.05197213

>  <Name>
ligand

>  <RI>
0

>  <Rbt.Current_Directory>
/home/itssahil/PROJECTS/Mol_Feturizer/Test_systems_manuscript/rnas/3slm

>  <Rbt.Executable>
rbdock ($Id: //depot/dev/client3/rdock/2013.1/src/exe/rbdock.cxx#4 $)

>  <Rbt.Library>
libRbt.so (2013.1, Build901 2013/11/27)

>  <Rbt.Parameter_File>
/export/apps/rDock/src/rDock_2013.1_src/data/scripts/dock_solv.prm

>  <Rbt.Receptor>
prm/blind_docking_80.prm

>  <SCORE>
-15.7516

>  <SCORE.INTER>
-12.6636

>  <SCORE.INTER.CONST>
1

>  <SCORE.INTER.POLAR>
0

>  <SCORE.INTER.ROT>
4

>  <SCORE.INTER.SOLV>
10.0953

>  <SCORE.INTER.VDW>
-18.0742

>  <SCORE.INTER.norm>
-0.55059

>  <SCORE.INTRA>
-3.09152

>  <SCORE.INTRA.DIHEDRAL>
-4.60543

>  <SCORE.INTRA.DIHEDRAL.0>
8.62657

>  <SCORE.INTRA.POLAR>
0

>  <SCORE.INTRA.POLAR.0>
0

>  <SCORE.INTRA.REPUL>
0

>  <SCORE.INTRA.REPUL.0>
0

>  <SCORE.INTRA.SOLV>
1.00427

>  <SCORE.INTRA.SOLV.lig_0>
-66.3641

>  <SCORE.INTRA.VDW>
-1.29094

>  <SCORE.INTRA.VDW.0>
0.452231

>  <SCORE.INTRA.norm>
-0.134414

>  <SCORE.RESTR>
0.00346478

>  <SCORE.RESTR.CAVITY>
0.00346478

>  <SCORE.RESTR.norm>
0.000150642

>  <SCORE.SYSTEM>
0

>  <SCORE.SYSTEM.CONST>
0

>  <SCORE.SYSTEM.DIHEDRAL>
0

>  <SCORE.SYSTEM.SOLV>
0

>  <SCORE.SYSTEM.norm>
0

>  <SCORE.heavy>
23

>  <SCORE.norm>
-0.684853

>  <RMSD>
17.633

$$$$
ligand
 OpenBabel02271912143D
libRbt.so/2013.1/901 2013/11/27
 23 25  0  0  0  0  0  0  0  0999 V2000
    2.1784    5.3853   32.2583 P   0  0  1  0  0  0  0  0  0  0  0  0
    3.1010    4.9245   29.8517 C   0  0  0  0  0  0  0  0  0  0  0  0
    2.1438    5.5910   30.6631 O   0  0  0  0  0  0  0  0  0  0  0  0
    2.8357    5.3276   28.4187 C   0  0  1  0  0  0  0  0  0  0  0  0
    3.2107    6.6808   28.1633 O   0  0  0  0  0  0  0  0  0  0  0  0
    3.6461    4.4369   27.4921 C   0  0  1  0  0  0  0  0  0  0  0  0
    2.7778    3.9748   26.4430 O   0  0  0  0  0  0  0  0  0  0  0  0
    4.7663    5.3230   26.9619 C   0  0  0  0  0  0  0  0  0  0  0  0
    4.2600    6.7450   27.1886 C   0  0  2  0  0  0  0  0  0  0  0  0
    7.5464    7.3097   31.1145 N   0  0  0  0  0  0  0  0  0  0  0  0
    6.6428    6.3342   30.9260 C   0  0  2  0  0  0  0  0  0  0  0  0
    6.5654    5.3562   31.8583 N   0  0  0  0  0  0  0  0  0  0  0  0
    5.8421    6.3252   29.8330 N   0  0  0  0  0  0  0  0  0  0  0  0
    5.9503    7.3110   28.9186 C   0  0  2  0  0  0  0  0  0  0  0  0
    6.8711    8.3205   29.0983 C   0  0  1  0  0  0  0  0  0  0  0  0
    7.6818    8.3032   30.2173 C   0  0  0  0  0  0  0  0  0  0  0  0
    8.5278    9.2059   30.3955 O   0  0  0  0  0  0  0  0  0  0  0  0
    6.7688    9.1701   28.0572 N   0  0  0  0  0  0  0  0  0  0  0  0
    5.8091    8.6936   27.2445 C   0  0  0  0  0  0  0  0  0  0  0  0
    5.3142    7.5736   27.7826 N   0  0  1  0  0  0  0  0  0  0  0  0
    3.4465    6.0326   32.7593 O   0  0  0  0  0  0  0  0  0  0  0  0
    0.9080    6.0483   32.7387 O   0  5  0  0  0  0  0  0  0  0  0  0
    2.1730    3.8871   32.3988 O   0  0  0  0  0  0  0  0  0  0  0  0
  1  3  1  6  0  0  0
  1 21  1  0  0  0  0
  1 22  1  0  0  0  0
  1 23  2  0  0  0  0
  2  3  1  0  0  0  0
  4  2  1  1  0  0  0
  4  5  1  0  0  0  0
  4  6  1  0  0  0  0
  6  7  1  6  0  0  0
  6  8  1  0  0  0  0
  8  9  1  0  0  0  0
  9  5  1  1  0  0  0
  9 20  1  0  0  0  0
 10 11  1  0  0  0  0
 10 16  1  0  0  0  0
 11 12  1  6  0  0  0
 11 13  1  0  0  0  0
 14 13  1  1  0  0  0
 14 15  1  0  0  0  0
 14 20  1  0  0  0  0
 15 16  1  6  0  0  0
 15 18  1  0  0  0  0
 16 17  2  0  0  0  0
 18 19  1  0  0  0  0
 20 19  1  6  0  0  0
M  CHG  1  22  -1
M  END
>  <CHROM.1>
67.47067487,71.70080794,-178.97798087,59.32581311,4.50721875,6.34004919,29.79495060
-2.75535593,-0.57024003,-1.59042465

>  <Name>
ligand

>  <RI>
0

>  <Rbt.Current_Directory>
/home/itssahil/PROJECTS/Mol_Feturizer/Test_systems_manuscript/rnas/3slm

>  <Rbt.Executable>
rbdock ($Id: //depot/dev/client3/rdock/2013.1/src/exe/rbdock.cxx#4 $)

>  <Rbt.Library>
libRbt.so (2013.1, Build901 2013/11/27)

>  <Rbt.Parameter_File>
/export/apps/rDock/src/rDock_2013.1_src/data/scripts/dock_solv.prm

>  <Rbt.Receptor>
prm/blind_docking_100.prm

>  <SCORE>
-20.4512

>  <SCORE.INTER>
-14.9093

>  <SCORE.INTER.CONST>
1

>  <SCORE.INTER.POLAR>
0

>  <SCORE.INTER.ROT>
4

>  <SCORE.INTER.SOLV>
10.3704

>  <SCORE.INTER.VDW>
-19.663

>  <SCORE.INTER.norm>
-0.648232

>  <SCORE.INTRA>
-5.54186

>  <SCORE.INTRA.DIHEDRAL>
-6.83918

>  <SCORE.INTRA.DIHEDRAL.0>
8.62657

>  <SCORE.INTRA.POLAR>
0

>  <SCORE.INTRA.POLAR.0>
0

>  <SCORE.INTRA.REPUL>
0

>  <SCORE.INTRA.REPUL.0>
0

>  <SCORE.INTRA.SOLV>
1.39952

>  <SCORE.INTRA.SOLV.lig_0>
-66.3641

>  <SCORE.INTRA.VDW>
-2.82203

>  <SCORE.INTRA.VDW.0>
0.452231

>  <SCORE.INTRA.norm>
-0.240951

>  <SCORE.RESTR>
0

>  <SCORE.RESTR.CAVITY>
0

>  <SCORE.RESTR.norm>
0

>  <SCORE.SYSTEM>
0

>  <SCORE.SYSTEM.CONST>
0

>  <SCORE.SYSTEM.DIHEDRAL>
0

>  <SCORE.SYSTEM.SOLV>
0

>  <SCORE.SYSTEM.norm>
0

>  <SCORE.heavy>
23

>  <SCORE.norm>
-0.889183

>  <RMSD>
17.634

$$$$
ligand
 OpenBabel02271912143D
libRbt.so/2013.1/901 2013/11/27
 23 25  0  0  0  0  0  0  0  0999 V2000
    1.0555    2.8400   30.6526 P   0  0  1  0  0  0  0  0  0  0  0  0
    3.4816    3.6673   31.1862 C   0  0  0  0  0  0  0  0  0  0  0  0
    2.2368    3.1973   31.6846 O   0  0  0  0  0  0  0  0  0  0  0  0
    4.3413    4.0181   32.3797 C   0  0  1  0  0  0  0  0  0  0  0  0
    5.6366    4.4753   31.9926 O   0  0  0  0  0  0  0  0  0  0  0  0
    3.6706    5.1309   33.1673 C   0  0  1  0  0  0  0  0  0  0  0  0
    3.6875    4.7675   34.5587 O   0  0  0  0  0  0  0  0  0  0  0  0
    4.5021    6.3769   32.8891 C   0  0  0  0  0  0  0  0  0  0  0  0
    5.8432    5.8332   32.4036 C   0  0  2  0  0  0  0  0  0  0  0  0
    4.8628    6.9126   27.4634 N   0  0  0  0  0  0  0  0  0  0  0  0
    4.1659    6.1159   28.2900 C   0  0  2  0  0  0  0  0  0  0  0  0
    3.0571    5.5135   27.8008 N   0  0  0  0  0  0  0  0  0  0  0  0
    4.5556    5.9298   29.5742 N   0  0  0  0  0  0  0  0  0  0  0  0
    5.6615    6.5515   30.0326 C   0  0  2  0  0  0  0  0  0  0  0  0
    6.3888    7.3707   29.1965 C   0  0  1  0  0  0  0  0  0  0  0  0
    5.9665    7.5508   27.8931 C   0  0  0  0  0  0  0  0  0  0  0  0
    6.6085    8.2949   27.1207 O   0  0  0  0  0  0  0  0  0  0  0  0
    7.4364    7.8547   29.8927 N   0  0  0  0  0  0  0  0  0  0  0  0
    7.3565    7.3519   31.1373 C   0  0  0  0  0  0  0  0  0  0  0  0
    6.2837    6.5562   31.2061 N   0  0  1  0  0  0  0  0  0  0  0  0
   -0.1284    2.3925   31.4749 O   0  0  0  0  0  0  0  0  0  0  0  0
    0.8353    4.1270   29.8914 O   0  5  0  0  0  0  0  0  0  0  0  0
    1.6616    1.7396   29.8242 O   0  0  0  0  0  0  0  0  0  0  0  0
  1  3  1  1  0  0  0
  1 21  1  0  0  0  0
  1 22  1  0  0  0  0
  1 23  2  0  0  0  0
  2  3  1  0  0  0  0
  4  2  1  6  0  0  0
  4  5  1  0  0  0  0
  4  6  1  0  0  0  0
  6  7  1  1  0  0  0
  6  8  1  0  0  0  0
  8  9  1  0  0  0  0
  9  5  1  6  0  0  0
  9 20  1  0  0  0  0
 10 11  1  0  0  0  0
 10 16  1  0  0  0  0
 11 12  1  1  0  0  0
 11 13  1  0  0  0  0
 14 13  1  6  0  0  0
 14 15  1  0  0  0  0
 14 20  1  0  0  0  0
 15 16  1  1  0  0  0
 15 18  1  0  0  0  0
 16 17  2  0  0  0  0
 18 19  1  0  0  0  0
 20 19  1  1  0  0  0
M  CHG  1  22  -1
M  END
>  <CHROM.1>
-179.25256823,178.62199914,175.62994810,51.86056600,4.04316471,5.19277587
30.55055819,2.66892043,0.64615741,1.83471315

>  <Name>
ligand

>  <RI>
0

>  <Rbt.Current_Directory>
/home/itssahil/PROJECTS/Mol_Feturizer/Test_systems_manuscript/rnas/3slm

>  <Rbt.Executable>
rbdock ($Id: //depot/dev/client3/rdock/2013.1/src/exe/rbdock.cxx#4 $)

>  <Rbt.Library>
libRbt.so (2013.1, Build901 2013/11/27)

>  <Rbt.Parameter_File>
/export/apps/rDock/src/rDock_2013.1_src/data/scripts/dock_solv.prm

>  <Rbt.Receptor>
prm/blind_docking_100.prm

>  <SCORE>
-18.2556

>  <SCORE.INTER>
-13.6855

>  <SCORE.INTER.CONST>
1

>  <SCORE.INTER.POLAR>
0

>  <SCORE.INTER.ROT>
4

>  <SCORE.INTER.SOLV>
9.34665

>  <SCORE.INTER.VDW>
-18.5059

>  <SCORE.INTER.norm>
-0.595022

>  <SCORE.INTRA>
-4.57004

>  <SCORE.INTRA.DIHEDRAL>
-7.34885

>  <SCORE.INTRA.DIHEDRAL.0>
8.62657

>  <SCORE.INTRA.POLAR>
0

>  <SCORE.INTRA.POLAR.0>
0

>  <SCORE.INTRA.REPUL>
0.000820377

>  <SCORE.INTRA.REPUL.0>
0

>  <SCORE.INTRA.SOLV>
3.25889

>  <SCORE.INTRA.SOLV.lig_0>
-66.3641

>  <SCORE.INTRA.VDW>
-2.52916

>  <SCORE.INTRA.VDW.0>
0.452231

>  <SCORE.INTRA.norm>
-0.198697

>  <SCORE.RESTR>
0

>  <SCORE.RESTR.CAVITY>
0

>  <SCORE.RESTR.norm>
0

>  <SCORE.SYSTEM>
0

>  <SCORE.SYSTEM.CONST>
0

>  <SCORE.SYSTEM.DIHEDRAL>
0

>  <SCORE.SYSTEM.SOLV>
0

>  <SCORE.SYSTEM.norm>
0

>  <SCORE.heavy>
23

>  <SCORE.norm>
-0.79372

>  <RMSD>
17.641

$$$$
ligand
 OpenBabel02271912143D
libRbt.so/2013.1/901 2013/11/27
 23 25  0  0  0  0  0  0  0  0999 V2000
    1.9179    2.9108   30.1838 P   0  0  1  0  0  0  0  0  0  0  0  0
    2.4594    5.3780   29.4948 C   0  0  0  0  0  0  0  0  0  0  0  0
    1.4675    4.4020   29.7817 O   0  0  0  0  0  0  0  0  0  0  0  0
    2.5436    5.5062   27.9905 C   0  0  1  0  0  0  0  0  0  0  0  0
    3.1211    6.7480   27.5889 O   0  0  0  0  0  0  0  0  0  0  0  0
    3.4151    4.3884   27.4430 C   0  0  1  0  0  0  0  0  0  0  0  0
    2.7319    3.7948   26.3254 O   0  0  0  0  0  0  0  0  0  0  0  0
    4.7175    5.0615   27.0283 C   0  0  0  0  0  0  0  0  0  0  0  0
    4.3481    6.5349   26.8787 C   0  0  2  0  0  0  0  0  0  0  0  0
    7.2253    7.2619   31.0888 N   0  0  0  0  0  0  0  0  0  0  0  0
    6.3307    6.2875   30.8565 C   0  0  2  0  0  0  0  0  0  0  0  0
    6.1436    5.3583   31.8226 N   0  0  0  0  0  0  0  0  0  0  0  0
    5.6456    6.2319   29.6889 N   0  0  0  0  0  0  0  0  0  0  0  0
    5.8617    7.1695   28.7434 C   0  0  2  0  0  0  0  0  0  0  0  0
    6.7748    8.1771   28.9671 C   0  0  1  0  0  0  0  0  0  0  0  0
    7.4668    8.2076   30.1629 C   0  0  0  0  0  0  0  0  0  0  0  0
    8.3040    9.1094   30.3827 O   0  0  0  0  0  0  0  0  0  0  0  0
    6.7923    8.9745   27.8807 N   0  0  0  0  0  0  0  0  0  0  0  0
    5.9133    8.4678   26.9982 C   0  0  0  0  0  0  0  0  0  0  0  0
    5.3489    7.3814   27.5366 N   0  0  1  0  0  0  0  0  0  0  0  0
    3.1330    3.0407   31.0697 O   0  0  0  0  0  0  0  0  0  0  0  0
    0.7018    2.3366   30.8735 O   0  5  0  0  0  0  0  0  0  0  0  0
    2.2127    2.2829   28.8484 O   0  0  0  0  0  0  0  0  0  0  0  0
  1  3  1  6  0  0  0
  1 21  1  0  0  0  0
  1 22  1  0  0  0  0
  1 23  2  0  0  0  0
  2  3  1  0  0  0  0
  4  2  1  1  0  0  0
  4  5  1  0  0  0  0
  4  6  1  0  0  0  0
  6  7  1  6  0  0  0
  6  8  1  0  0  0  0
  8  9  1  0  0  0  0
  9  5  1  1  0  0  0
  9 20  1  0  0  0  0
 10 11  1  0  0  0  0
 10 16  1  0  0  0  0
 11 12  1  6  0  0  0
 11 13  1  0  0  0  0
 14 13  1  1  0  0  0
 14 15  1  0  0  0  0
 14 20  1  0  0  0  0
 15 16  1  6  0  0  0
 15 18  1  0  0  0  0
 16 17  2  0  0  0  0
 18 19  1  0  0  0  0
 20 19  1  6  0  0  0
M  CHG  1  22  -1
M  END
>  <CHROM.1>
39.08322281,158.85873861,101.45491247,70.94437541,4.30935666,5.61832165,29.10542443
-2.82125509,-0.71998986,-1.16304163

>  <Name>
ligand

>  <RI>
0

>  <Rbt.Current_Directory>
/home/itssahil/PROJECTS/Mol_Feturizer/Test_systems_manuscript/rnas/3slm

>  <Rbt.Executable>
rbdock ($Id: //depot/dev/client3/rdock/2013.1/src/exe/rbdock.cxx#4 $)

>  <Rbt.Library>
libRbt.so (2013.1, Build901 2013/11/27)

>  <Rbt.Parameter_File>
/export/apps/rDock/src/rDock_2013.1_src/data/scripts/dock_solv.prm

>  <Rbt.Receptor>
prm/blind_docking_100.prm

>  <SCORE>
-18.498

>  <SCORE.INTER>
-17.6843

>  <SCORE.INTER.CONST>
1

>  <SCORE.INTER.POLAR>
0

>  <SCORE.INTER.ROT>
4

>  <SCORE.INTER.SOLV>
10.582

>  <SCORE.INTER.VDW>
-21.5835

>  <SCORE.INTER.norm>
-0.768884

>  <SCORE.INTRA>
-0.813644

>  <SCORE.INTRA.DIHEDRAL>
0.312238

>  <SCORE.INTRA.DIHEDRAL.0>
8.62657

>  <SCORE.INTRA.POLAR>
0

>  <SCORE.INTRA.POLAR.0>
0

>  <SCORE.INTRA.REPUL>
0

>  <SCORE.INTRA.REPUL.0>
0

>  <SCORE.INTRA.SOLV>
3.35635

>  <SCORE.INTRA.SOLV.lig_0>
-66.3641

>  <SCORE.INTRA.VDW>
-2.64794

>  <SCORE.INTRA.VDW.0>
0.452231

>  <SCORE.INTRA.norm>
-0.0353758

>  <SCORE.RESTR>
0

>  <SCORE.RESTR.CAVITY>
0

>  <SCORE.RESTR.norm>
0

>  <SCORE.SYSTEM>
0

>  <SCORE.SYSTEM.CONST>
0

>  <SCORE.SYSTEM.DIHEDRAL>
0

>  <SCORE.SYSTEM.SOLV>
0

>  <SCORE.SYSTEM.norm>
0

>  <SCORE.heavy>
23

>  <SCORE.norm>
-0.804259

>  <RMSD>
17.649

$$$$
ligand
 OpenBabel02271912143D
libRbt.so/2013.1/901 2013/11/27
 23 25  0  0  0  0  0  0  0  0999 V2000
    2.0622    5.4314   32.2241 P   0  0  1  0  0  0  0  0  0  0  0  0
    3.0590    4.9788   29.8457 C   0  0  0  0  0  0  0  0  0  0  0  0
    2.0590    5.6187   30.6263 O   0  0  0  0  0  0  0  0  0  0  0  0
    2.8203    5.3647   28.4033 C   0  0  1  0  0  0  0  0  0  0  0  0
    3.2070    6.7124   28.1370 O   0  0  0  0  0  0  0  0  0  0  0  0
    3.6412    4.4578   27.5022 C   0  0  1  0  0  0  0  0  0  0  0  0
    2.7882    3.9868   26.4445 O   0  0  0  0  0  0  0  0  0  0  0  0
    4.7752    5.3310   26.9798 C   0  0  0  0  0  0  0  0  0  0  0  0
    4.2730    6.7584   27.1795 C   0  0  2  0  0  0  0  0  0  0  0  0
    7.5402    7.3229   31.1214 N   0  0  0  0  0  0  0  0  0  0  0  0
    6.6410    6.3447   30.9260 C   0  0  2  0  0  0  0  0  0  0  0  0
    6.5630    5.3636   31.8550 N   0  0  0  0  0  0  0  0  0  0  0  0
    5.8451    6.3362   29.8295 N   0  0  0  0  0  0  0  0  0  0  0  0
    5.9537    7.3252   28.9186 C   0  0  2  0  0  0  0  0  0  0  0  0
    6.8701    8.3374   29.1054 C   0  0  1  0  0  0  0  0  0  0  0  0
    7.6760    8.3196   30.2279 C   0  0  0  0  0  0  0  0  0  0  0  0
    8.5180    9.2248   30.4125 O   0  0  0  0  0  0  0  0  0  0  0  0
    6.7693    9.1898   28.0664 N   0  0  0  0  0  0  0  0  0  0  0  0
    5.8149    8.7124   27.2481 C   0  0  0  0  0  0  0  0  0  0  0  0
    5.3217    7.5890   27.7806 N   0  0  1  0  0  0  0  0  0  0  0  0
    3.2812    6.1495   32.7500 O   0  0  0  0  0  0  0  0  0  0  0  0
    0.7467    6.0317   32.6639 O   0  5  0  0  0  0  0  0  0  0  0  0
    2.1314    3.9365   32.3818 O   0  0  0  0  0  0  0  0  0  0  0  0
  1  3  1  6  0  0  0
  1 21  1  0  0  0  0
  1 22  1  0  0  0  0
  1 23  2  0  0  0  0
  2  3  1  0  0  0  0
  4  2  1  1  0  0  0
  4  5  1  0  0  0  0
  4  6  1  0  0  0  0
  6  7  1  6  0  0  0
  6  8  1  0  0  0  0
  8  9  1  0  0  0  0
  9  5  1  1  0  0  0
  9 20  1  0  0  0  0
 10 11  1  0  0  0  0
 10 16  1  0  0  0  0
 11 12  1  6  0  0  0
 11 13  1  0  0  0  0
 14 13  1  1  0  0  0
 14 15  1  0  0  0  0
 14 20  1  0  0  0  0
 15 16  1  6  0  0  0
 15 18  1  0  0  0  0
 16 17  2  0  0  0  0
 18 19  1  0  0  0  0
 20 19  1  6  0  0  0
M  CHG  1  22  -1
M  END
>  <CHROM.1>
68.39939743,73.97905941,-178.57389868,60.60055151,4.47366293,6.36629561,29.78597124
-2.77503940,-0.55886546,-1.60504656

>  <Name>
ligand

>  <RI>
0

>  <Rbt.Current_Directory>
/home/itssahil/PROJECTS/Mol_Feturizer/Test_systems_manuscript/rnas/3slm

>  <Rbt.Executable>
rbdock ($Id: //depot/dev/client3/rdock/2013.1/src/exe/rbdock.cxx#4 $)

>  <Rbt.Library>
libRbt.so (2013.1, Build901 2013/11/27)

>  <Rbt.Parameter_File>
/export/apps/rDock/src/rDock_2013.1_src/data/scripts/dock_solv.prm

>  <Rbt.Receptor>
prm/blind_docking_40.prm

>  <SCORE>
-20.482

>  <SCORE.INTER>
-14.98

>  <SCORE.INTER.CONST>
1

>  <SCORE.INTER.POLAR>
0

>  <SCORE.INTER.ROT>
4

>  <SCORE.INTER.SOLV>
10.4881

>  <SCORE.INTER.VDW>
-19.7494

>  <SCORE.INTER.norm>
-0.651304

>  <SCORE.INTRA>
-5.50203

>  <SCORE.INTRA.DIHEDRAL>
-6.6091

>  <SCORE.INTRA.DIHEDRAL.0>
8.62657

>  <SCORE.INTRA.POLAR>
0

>  <SCORE.INTRA.POLAR.0>
0

>  <SCORE.INTRA.REPUL>
0

>  <SCORE.INTRA.REPUL.0>
0

>  <SCORE.INTRA.SOLV>
1.05196

>  <SCORE.INTRA.SOLV.lig_0>
-66.3641

>  <SCORE.INTRA.VDW>
-2.72346

>  <SCORE.INTRA.VDW.0>
0.452231

>  <SCORE.INTRA.norm>
-0.239219

>  <SCORE.RESTR>
0

>  <SCORE.RESTR.CAVITY>
0

>  <SCORE.RESTR.norm>
0

>  <SCORE.SYSTEM>
0

>  <SCORE.SYSTEM.CONST>
0

>  <SCORE.SYSTEM.DIHEDRAL>
0

>  <SCORE.SYSTEM.SOLV>
0

>  <SCORE.SYSTEM.norm>
0

>  <SCORE.heavy>
23

>  <SCORE.norm>
-0.890522

>  <RMSD>
17.672

$$$$
ligand
 OpenBabel02271912143D
libRbt.so/2013.1/901 2013/11/27
 23 25  0  0  0  0  0  0  0  0999 V2000
    2.0084    3.0059   30.2679 P   0  0  1  0  0  0  0  0  0  0  0  0
    2.2932    5.4158   29.2848 C   0  0  0  0  0  0  0  0  0  0  0  0
    1.4408    4.2991   29.4975 O   0  0  0  0  0  0  0  0  0  0  0  0
    2.4487    5.5857   27.7904 C   0  0  1  0  0  0  0  0  0  0  0  0
    3.1085    6.8059   27.4545 O   0  0  0  0  0  0  0  0  0  0  0  0
    3.2819    4.4395   27.2423 C   0  0  1  0  0  0  0  0  0  0  0  0
    2.6167    3.9191   26.0784 O   0  0  0  0  0  0  0  0  0  0  0  0
    4.6350    5.0527   26.9043 C   0  0  0  0  0  0  0  0  0  0  0  0
    4.3517    6.5481   26.7888 C   0  0  2  0  0  0  0  0  0  0  0  0
    6.9764    7.0711   31.1899 N   0  0  0  0  0  0  0  0  0  0  0  0
    6.0270    6.1680   30.8954 C   0  0  2  0  0  0  0  0  0  0  0  0
    5.7011    5.2613   31.8458 N   0  0  0  0  0  0  0  0  0  0  0  0
    5.4227    6.1598   29.6828 N   0  0  0  0  0  0  0  0  0  0  0  0
    5.7765    7.0728   28.7549 C   0  0  2  0  0  0  0  0  0  0  0  0
    6.7475    8.0075   29.0421 C   0  0  1  0  0  0  0  0  0  0  0  0
    7.3548    7.9904   30.2833 C   0  0  0  0  0  0  0  0  0  0  0  0
    8.2423    8.8255   30.5613 O   0  0  0  0  0  0  0  0  0  0  0  0
    6.9028    8.7954   27.9598 N   0  0  0  0  0  0  0  0  0  0  0  0
    6.0506    8.3540   27.0178 C   0  0  0  0  0  0  0  0  0  0  0  0
    5.3672    7.3175   27.5152 N   0  0  1  0  0  0  0  0  0  0  0  0
    3.2540    2.5680   29.5366 O   0  0  0  0  0  0  0  0  0  0  0  0
    2.2526    3.4986   31.6757 O   0  5  0  0  0  0  0  0  0  0  0  0
    0.8706    2.0276   30.1549 O   0  0  0  0  0  0  0  0  0  0  0  0
  1  3  1  6  0  0  0
  1 21  1  0  0  0  0
  1 22  1  0  0  0  0
  1 23  2  0  0  0  0
  2  3  1  0  0  0  0
  4  2  1  1  0  0  0
  4  5  1  0  0  0  0
  4  6  1  0  0  0  0
  6  7  1  6  0  0  0
  6  8  1  0  0  0  0
  8  9  1  0  0  0  0
  9  5  1  1  0  0  0
  9 20  1  0  0  0  0
 10 11  1  0  0  0  0
 10 16  1  0  0  0  0
 11 12  1  6  0  0  0
 11 13  1  0  0  0  0
 14 13  1  1  0  0  0
 14 15  1  0  0  0  0
 14 20  1  0  0  0  0
 15 16  1  6  0  0  0
 15 18  1  0  0  0  0
 16 17  2  0  0  0  0
 18 19  1  0  0  0  0
 20 19  1  6  0  0  0
M  CHG  1  22  -1
M  END
>  <CHROM.1>
-54.51198156,170.52331037,117.26786891,68.05511696,4.25793104,5.59434115
29.10130412,-2.84690198,-0.71574214,-1.19910717

>  <Name>
ligand

>  <RI>
0

>  <Rbt.Current_Directory>
/home/itssahil/PROJECTS/Mol_Feturizer/Test_systems_manuscript/rnas/3slm

>  <Rbt.Executable>
rbdock ($Id: //depot/dev/client3/rdock/2013.1/src/exe/rbdock.cxx#4 $)

>  <Rbt.Library>
libRbt.so (2013.1, Build901 2013/11/27)

>  <Rbt.Parameter_File>
/export/apps/rDock/src/rDock_2013.1_src/data/scripts/dock_solv.prm

>  <Rbt.Receptor>
prm/blind_docking_100.prm

>  <SCORE>
-19.6506

>  <SCORE.INTER>
-17.4525

>  <SCORE.INTER.CONST>
1

>  <SCORE.INTER.POLAR>
0

>  <SCORE.INTER.ROT>
4

>  <SCORE.INTER.SOLV>
9.96201

>  <SCORE.INTER.VDW>
-21.2223

>  <SCORE.INTER.norm>
-0.758804

>  <SCORE.INTRA>
-2.19811

>  <SCORE.INTRA.DIHEDRAL>
0.134974

>  <SCORE.INTRA.DIHEDRAL.0>
8.62657

>  <SCORE.INTRA.POLAR>
0

>  <SCORE.INTRA.POLAR.0>
0

>  <SCORE.INTRA.REPUL>
0

>  <SCORE.INTRA.REPUL.0>
0

>  <SCORE.INTRA.SOLV>
1.57712

>  <SCORE.INTRA.SOLV.lig_0>
-66.3641

>  <SCORE.INTRA.VDW>
-3.05415

>  <SCORE.INTRA.VDW.0>
0.452231

>  <SCORE.INTRA.norm>
-0.0955699

>  <SCORE.RESTR>
0

>  <SCORE.RESTR.CAVITY>
0

>  <SCORE.RESTR.norm>
0

>  <SCORE.SYSTEM>
0

>  <SCORE.SYSTEM.CONST>
0

>  <SCORE.SYSTEM.DIHEDRAL>
0

>  <SCORE.SYSTEM.SOLV>
0

>  <SCORE.SYSTEM.norm>
0

>  <SCORE.heavy>
23

>  <SCORE.norm>
-0.854374

>  <RMSD>
17.690

$$$$
ligand
 OpenBabel02271912143D
libRbt.so/2013.1/901 2013/11/27
 23 25  0  0  0  0  0  0  0  0999 V2000
    1.8911    5.2856   32.1700 P   0  0  1  0  0  0  0  0  0  0  0  0
    3.0372    4.9958   29.8338 C   0  0  0  0  0  0  0  0  0  0  0  0
    1.9882    5.5823   30.5918 O   0  0  0  0  0  0  0  0  0  0  0  0
    2.8184    5.3813   28.3881 C   0  0  1  0  0  0  0  0  0  0  0  0
    3.2193    6.7254   28.1243 O   0  0  0  0  0  0  0  0  0  0  0  0
    3.6422    4.4662   27.4980 C   0  0  1  0  0  0  0  0  0  0  0  0
    2.7977    4.0005   26.4312 O   0  0  0  0  0  0  0  0  0  0  0  0
    4.7893    5.3291   26.9875 C   0  0  0  0  0  0  0  0  0  0  0  0
    4.2967    6.7610   27.1791 C   0  0  2  0  0  0  0  0  0  0  0  0
    7.5791    7.2635   31.1168 N   0  0  0  0  0  0  0  0  0  0  0  0
    6.6823    6.2860   30.9071 C   0  0  2  0  0  0  0  0  0  0  0  0
    6.6118    5.2875   31.8180 N   0  0  0  0  0  0  0  0  0  0  0  0
    5.8817    6.2950   29.8141 N   0  0  0  0  0  0  0  0  0  0  0  0
    5.9830    7.3012   28.9213 C   0  0  2  0  0  0  0  0  0  0  0  0
    6.8967    8.3129   29.1229 C   0  0  1  0  0  0  0  0  0  0  0  0
    7.7075    8.2771   30.2414 C   0  0  0  0  0  0  0  0  0  0  0  0
    8.5472    9.1816   30.4393 O   0  0  0  0  0  0  0  0  0  0  0  0
    6.7884    9.1842   28.1004 N   0  0  0  0  0  0  0  0  0  0  0  0
    5.8322    8.7187   27.2775 C   0  0  0  0  0  0  0  0  0  0  0  0
    5.3451    7.5839   27.7911 N   0  0  1  0  0  0  0  0  0  0  0  0
    2.0760    3.7987   32.3516 O   0  0  0  0  0  0  0  0  0  0  0  0
    2.9938    6.1288   32.7677 O   0  5  0  0  0  0  0  0  0  0  0  0
    0.5061    5.7646   32.5120 O   0  0  0  0  0  0  0  0  0  0  0  0
  1  3  1  6  0  0  0
  1 21  1  0  0  0  0
  1 22  1  0  0  0  0
  1 23  2  0  0  0  0
  2  3  1  0  0  0  0
  4  2  1  1  0  0  0
  4  5  1  0  0  0  0
  4  6  1  0  0  0  0
  6  7  1  6  0  0  0
  6  8  1  0  0  0  0
  8  9  1  0  0  0  0
  9  5  1  1  0  0  0
  9 20  1  0  0  0  0
 10 11  1  0  0  0  0
 10 16  1  0  0  0  0
 11 12  1  6  0  0  0
 11 13  1  0  0  0  0
 14 13  1  1  0  0  0
 14 15  1  0  0  0  0
 14 20  1  0  0  0  0
 15 16  1  6  0  0  0
 15 18  1  0  0  0  0
 16 17  2  0  0  0  0
 18 19  1  0  0  0  0
 20 19  1  6  0  0  0
M  CHG  1  22  -1
M  END
>  <CHROM.1>
-46.16687405,77.27661109,176.52140789,62.22056950,4.44228199,6.31942354,29.77185114
-2.78670555,-0.54553334,-1.58907345

>  <Name>
ligand

>  <RI>
0

>  <Rbt.Current_Directory>
/home/itssahil/PROJECTS/Mol_Feturizer/Test_systems_manuscript/rnas/3slm

>  <Rbt.Executable>
rbdock ($Id: //depot/dev/client3/rdock/2013.1/src/exe/rbdock.cxx#4 $)

>  <Rbt.Library>
libRbt.so (2013.1, Build901 2013/11/27)

>  <Rbt.Parameter_File>
/export/apps/rDock/src/rDock_2013.1_src/data/scripts/dock_solv.prm

>  <Rbt.Receptor>
prm/blind_docking_80.prm

>  <SCORE>
-19.9486

>  <SCORE.INTER>
-14.6573

>  <SCORE.INTER.CONST>
1

>  <SCORE.INTER.POLAR>
0

>  <SCORE.INTER.ROT>
4

>  <SCORE.INTER.SOLV>
11.4142

>  <SCORE.INTER.VDW>
-19.8429

>  <SCORE.INTER.norm>
-0.637273

>  <SCORE.INTRA>
-5.2913

>  <SCORE.INTRA.DIHEDRAL>
-6.02721

>  <SCORE.INTRA.DIHEDRAL.0>
8.62657

>  <SCORE.INTRA.POLAR>
0

>  <SCORE.INTRA.POLAR.0>
0

>  <SCORE.INTRA.REPUL>
0

>  <SCORE.INTRA.REPUL.0>
0

>  <SCORE.INTRA.SOLV>
0.854572

>  <SCORE.INTRA.SOLV.lig_0>
-66.3641

>  <SCORE.INTRA.VDW>
-2.70498

>  <SCORE.INTRA.VDW.0>
0.452231

>  <SCORE.INTRA.norm>
-0.230057

>  <SCORE.RESTR>
0

>  <SCORE.RESTR.CAVITY>
0

>  <SCORE.RESTR.norm>
0

>  <SCORE.SYSTEM>
0

>  <SCORE.SYSTEM.CONST>
0

>  <SCORE.SYSTEM.DIHEDRAL>
0

>  <SCORE.SYSTEM.SOLV>
0

>  <SCORE.SYSTEM.norm>
0

>  <SCORE.heavy>
23

>  <SCORE.norm>
-0.867329

>  <RMSD>
17.699

$$$$
ligand
 OpenBabel02271912143D
libRbt.so/2013.1/901 2013/11/27
 23 25  0  0  0  0  0  0  0  0999 V2000
    3.9143    3.3518   25.6461 P   0  0  1  0  0  0  0  0  0  0  0  0
    3.3442    2.6759   28.1105 C   0  0  0  0  0  0  0  0  0  0  0  0
    3.4730    3.7149   27.1500 O   0  0  0  0  0  0  0  0  0  0  0  0
    2.9644    3.3212   29.4241 C   0  0  1  0  0  0  0  0  0  0  0  0
    3.8365    4.3982   29.7652 O   0  0  0  0  0  0  0  0  0  0  0  0
    1.5552    3.8792   29.3164 C   0  0  1  0  0  0  0  0  0  0  0  0
    0.8213    3.4698   30.4834 O   0  0  0  0  0  0  0  0  0  0  0  0
    1.7267    5.3915   29.2470 C   0  0  0  0  0  0  0  0  0  0  0  0
    3.1198    5.6386   29.8198 C   0  0  2  0  0  0  0  0  0  0  0  0
    7.3679    8.5086   29.3219 N   0  0  0  0  0  0  0  0  0  0  0  0
    7.0098    7.7343   30.3591 C   0  0  2  0  0  0  0  0  0  0  0  0
    7.8502    7.6682   31.4179 N   0  0  0  0  0  0  0  0  0  0  0  0
    5.8495    7.0349   30.3409 N   0  0  0  0  0  0  0  0  0  0  0  0
    5.0380    7.1167   29.2665 C   0  0  2  0  0  0  0  0  0  0  0  0
    5.3901    7.9085   28.1948 C   0  0  1  0  0  0  0  0  0  0  0  0
    6.5825    8.6059   28.2340 C   0  0  0  0  0  0  0  0  0  0  0  0
    6.9232    9.3244   27.2696 O   0  0  0  0  0  0  0  0  0  0  0  0
    4.4136    7.8193   27.2703 N   0  0  0  0  0  0  0  0  0  0  0  0
    3.4783    6.9836   27.7552 C   0  0  0  0  0  0  0  0  0  0  0  0
    3.8630    6.5735   28.9687 N   0  0  1  0  0  0  0  0  0  0  0  0
    4.0332    4.6552   24.8943 O   0  0  0  0  0  0  0  0  0  0  0  0
    5.2198    2.6101   25.8187 O   0  5  0  0  0  0  0  0  0  0  0  0
    2.7809    2.4846   25.1689 O   0  0  0  0  0  0  0  0  0  0  0  0
  1  3  1  1  0  0  0
  1 21  1  0  0  0  0
  1 22  1  0  0  0  0
  1 23  2  0  0  0  0
  2  3  1  0  0  0  0
  4  2  1  6  0  0  0
  4  5  1  0  0  0  0
  4  6  1  0  0  0  0
  6  7  1  1  0  0  0
  6  8  1  0  0  0  0
  8  9  1  0  0  0  0
  9  5  1  6  0  0  0
  9 20  1  0  0  0  0
 10 11  1  0  0  0  0
 10 16  1  0  0  0  0
 11 12  1  6  0  0  0
 11 13  1  0  0  0  0
 14 13  1  1  0  0  0
 14 15  1  0  0  0  0
 14 20  1  0  0  0  0
 15 16  1  6  0  0  0
 15 18  1  0  0  0  0
 16 17  2  0  0  0  0
 18 19  1  0  0  0  0
 20 19  1  6  0  0  0
M  CHG  1  22  -1
M  END
>  <CHROM.1>
-177.05963620,-50.90498740,178.27349375,-72.18714253,4.31114727,5.47360180
28.19574797,-2.45669500,0.78597431,1.13812933

>  <Name>
ligand

>  <RI>
0

>  <Rbt.Current_Directory>
/home/itssahil/PROJECTS/Mol_Feturizer/Test_systems_manuscript/rnas/3slm

>  <Rbt.Executable>
rbdock ($Id: //depot/dev/client3/rdock/2013.1/src/exe/rbdock.cxx#4 $)

>  <Rbt.Library>
libRbt.so (2013.1, Build901 2013/11/27)

>  <Rbt.Parameter_File>
/export/apps/rDock/src/rDock_2013.1_src/data/scripts/dock_solv.prm

>  <Rbt.Receptor>
prm/blind_docking_60.prm

>  <SCORE>
-17.6106

>  <SCORE.INTER>
-12.6128

>  <SCORE.INTER.CONST>
1

>  <SCORE.INTER.POLAR>
0

>  <SCORE.INTER.ROT>
4

>  <SCORE.INTER.SOLV>
17.4962

>  <SCORE.INTER.VDW>
-20.5073

>  <SCORE.INTER.norm>
-0.548383

>  <SCORE.INTRA>
-4.99778

>  <SCORE.INTRA.DIHEDRAL>
-7.13257

>  <SCORE.INTRA.DIHEDRAL.0>
8.62657

>  <SCORE.INTRA.POLAR>
0

>  <SCORE.INTRA.POLAR.0>
0

>  <SCORE.INTRA.REPUL>
0

>  <SCORE.INTRA.REPUL.0>
0

>  <SCORE.INTRA.SOLV>
0.26966

>  <SCORE.INTRA.SOLV.lig_0>
-66.3641

>  <SCORE.INTRA.VDW>
-1.56632

>  <SCORE.INTRA.VDW.0>
0.452231

>  <SCORE.INTRA.norm>
-0.217295

>  <SCORE.RESTR>
0

>  <SCORE.RESTR.CAVITY>
0

>  <SCORE.RESTR.norm>
0

>  <SCORE.SYSTEM>
0

>  <SCORE.SYSTEM.CONST>
0

>  <SCORE.SYSTEM.DIHEDRAL>
0

>  <SCORE.SYSTEM.SOLV>
0

>  <SCORE.SYSTEM.norm>
0

>  <SCORE.heavy>
23

>  <SCORE.norm>
-0.765678

>  <RMSD>
17.729

$$$$
ligand
 OpenBabel02271912143D
libRbt.so/2013.1/901 2013/11/27
 23 25  0  0  0  0  0  0  0  0999 V2000
    3.9190    3.3422   25.6601 P   0  0  1  0  0  0  0  0  0  0  0  0
    3.3247    2.6572   28.1163 C   0  0  0  0  0  0  0  0  0  0  0  0
    3.4837    3.7019   27.1665 O   0  0  0  0  0  0  0  0  0  0  0  0
    2.9538    3.2990   29.4342 C   0  0  1  0  0  0  0  0  0  0  0  0
    3.8295    4.3737   29.7733 O   0  0  0  0  0  0  0  0  0  0  0  0
    1.5448    3.8592   29.3368 C   0  0  1  0  0  0  0  0  0  0  0  0
    0.8175    3.4471   30.5070 O   0  0  0  0  0  0  0  0  0  0  0  0
    1.7179    5.3714   29.2711 C   0  0  0  0  0  0  0  0  0  0  0  0
    3.1148    5.6149   29.8360 C   0  0  2  0  0  0  0  0  0  0  0  0
    7.3544    8.4961   29.3297 N   0  0  0  0  0  0  0  0  0  0  0  0
    7.0001    7.7212   30.3678 C   0  0  2  0  0  0  0  0  0  0  0  0
    7.8425    7.6578   31.4252 N   0  0  0  0  0  0  0  0  0  0  0  0
    5.8416    7.0187   30.3519 N   0  0  0  0  0  0  0  0  0  0  0  0
    5.0281    7.0979   29.2788 C   0  0  2  0  0  0  0  0  0  0  0  0
    5.3762    7.8902   28.2063 C   0  0  1  0  0  0  0  0  0  0  0  0
    6.5668    8.5908   28.2431 C   0  0  0  0  0  0  0  0  0  0  0  0
    6.9039    9.3099   27.2778 O   0  0  0  0  0  0  0  0  0  0  0  0
    4.3984    7.7980   27.2834 N   0  0  0  0  0  0  0  0  0  0  0  0
    3.4662    6.9601   27.7703 C   0  0  0  0  0  0  0  0  0  0  0  0
    3.8541    6.5515   28.9833 N   0  0  1  0  0  0  0  0  0  0  0  0
    4.0324    4.6470   24.9100 O   0  0  0  0  0  0  0  0  0  0  0  0
    5.2265    2.6024   25.8257 O   0  5  0  0  0  0  0  0  0  0  0  0
    2.7849    2.4739   25.1864 O   0  0  0  0  0  0  0  0  0  0  0  0
  1  3  1  1  0  0  0
  1 21  1  0  0  0  0
  1 22  1  0  0  0  0
  1 23  2  0  0  0  0
  2  3  1  0  0  0  0
  4  2  1  6  0  0  0
  4  5  1  0  0  0  0
  4  6  1  0  0  0  0
  6  7  1  1  0  0  0
  6  8  1  0  0  0  0
  8  9  1  0  0  0  0
  9  5  1  6  0  0  0
  9 20  1  0  0  0  0
 10 11  1  0  0  0  0
 10 16  1  0  0  0  0
 11 12  1  6  0  0  0
 11 13  1  0  0  0  0
 14 13  1  1  0  0  0
 14 15  1  0  0  0  0
 14 20  1  0  0  0  0
 15 16  1  6  0  0  0
 15 18  1  0  0  0  0
 16 17  2  0  0  0  0
 18 19  1  0  0  0  0
 20 19  1  6  0  0  0
M  CHG  1  22  -1
M  END
>  <CHROM.1>
-178.79804854,-49.39633670,178.48276260,-72.58199946,4.30461150,5.45730447
28.20879969,-2.45676784,0.78677805,1.13630710

>  <Name>
ligand

>  <RI>
0

>  <Rbt.Current_Directory>
/home/itssahil/PROJECTS/Mol_Feturizer/Test_systems_manuscript/rnas/3slm

>  <Rbt.Executable>
rbdock ($Id: //depot/dev/client3/rdock/2013.1/src/exe/rbdock.cxx#4 $)

>  <Rbt.Library>
libRbt.so (2013.1, Build901 2013/11/27)

>  <Rbt.Parameter_File>
/export/apps/rDock/src/rDock_2013.1_src/data/scripts/dock_solv.prm

>  <Rbt.Receptor>
prm/blind_docking_100.prm

>  <SCORE>
-17.6181

>  <SCORE.INTER>
-12.6343

>  <SCORE.INTER.CONST>
1

>  <SCORE.INTER.POLAR>
0

>  <SCORE.INTER.ROT>
4

>  <SCORE.INTER.SOLV>
17.4576

>  <SCORE.INTER.VDW>
-20.5087

>  <SCORE.INTER.norm>
-0.549316

>  <SCORE.INTRA>
-4.9838

>  <SCORE.INTRA.DIHEDRAL>
-7.04863

>  <SCORE.INTRA.DIHEDRAL.0>
8.62657

>  <SCORE.INTRA.POLAR>
0

>  <SCORE.INTRA.POLAR.0>
0

>  <SCORE.INTRA.REPUL>
0

>  <SCORE.INTRA.REPUL.0>
0

>  <SCORE.INTRA.SOLV>
0.261869

>  <SCORE.INTRA.SOLV.lig_0>
-66.3641

>  <SCORE.INTRA.VDW>
-1.59042

>  <SCORE.INTRA.VDW.0>
0.452231

>  <SCORE.INTRA.norm>
-0.216687

>  <SCORE.RESTR>
0

>  <SCORE.RESTR.CAVITY>
0

>  <SCORE.RESTR.norm>
0

>  <SCORE.SYSTEM>
0

>  <SCORE.SYSTEM.CONST>
0

>  <SCORE.SYSTEM.DIHEDRAL>
0

>  <SCORE.SYSTEM.SOLV>
0

>  <SCORE.SYSTEM.norm>
0

>  <SCORE.heavy>
23

>  <SCORE.norm>
-0.766003

>  <RMSD>
17.731

$$$$
ligand
 OpenBabel02271912143D
libRbt.so/2013.1/901 2013/11/27
 23 25  0  0  0  0  0  0  0  0999 V2000
    0.8698    5.1913   31.1540 P   0  0  1  0  0  0  0  0  0  0  0  0
    3.4324    5.3773   30.6501 C   0  0  0  0  0  0  0  0  0  0  0  0
    2.3433    5.7462   31.4847 O   0  0  0  0  0  0  0  0  0  0  0  0
    3.2981    6.1587   29.3625 C   0  0  1  0  0  0  0  0  0  0  0  0
    3.8953    7.4517   29.4544 O   0  0  0  0  0  0  0  0  0  0  0  0
    3.9956    5.4018   28.2449 C   0  0  1  0  0  0  0  0  0  0  0  0
    3.1116    5.3624   27.1113 O   0  0  0  0  0  0  0  0  0  0  0  0
    5.2652    6.1928   27.9559 C   0  0  0  0  0  0  0  0  0  0  0  0
    4.9832    7.5789   28.5293 C   0  0  2  0  0  0  0  0  0  0  0  0
    8.8581   10.9596   28.8266 N   0  0  0  0  0  0  0  0  0  0  0  0
    7.9519   10.8244   27.8446 C   0  0  2  0  0  0  0  0  0  0  0  0
    8.0304   11.6710   26.7916 N   0  0  0  0  0  0  0  0  0  0  0  0
    6.9853    9.8773   27.9115 N   0  0  0  0  0  0  0  0  0  0  0  0
    6.9304    9.0544   28.9790 C   0  0  2  0  0  0  0  0  0  0  0  0
    7.8540    9.1789   29.9942 C   0  0  1  0  0  0  0  0  0  0  0  0
    8.8255   10.1579   29.9065 C   0  0  0  0  0  0  0  0  0  0  0  0
    9.6685   10.2914   30.8196 O   0  0  0  0  0  0  0  0  0  0  0  0
    7.5825    8.2418   30.9239 N   0  0  0  0  0  0  0  0  0  0  0  0
    6.5080    7.5547   30.4977 C   0  0  0  0  0  0  0  0  0  0  0  0
    6.1292    8.0494   29.3143 N   0  0  1  0  0  0  0  0  0  0  0  0
    0.4981    5.7136   29.7875 O   0  0  0  0  0  0  0  0  0  0  0  0
    1.0212    3.6894   31.2275 O   0  5  0  0  0  0  0  0  0  0  0  0
    0.0397    5.7739   32.2657 O   0  0  0  0  0  0  0  0  0  0  0  0
  1  3  1  1  0  0  0
  1 21  1  0  0  0  0
  1 22  1  0  0  0  0
  1 23  2  0  0  0  0
  2  3  1  0  0  0  0
  4  2  1  1  0  0  0
  4  5  1  0  0  0  0
  4  6  1  0  0  0  0
  6  7  1  6  0  0  0
  6  8  1  0  0  0  0
  8  9  1  0  0  0  0
  9  5  1  1  0  0  0
  9 20  1  0  0  0  0
 10 11  1  0  0  0  0
 10 16  1  0  0  0  0
 11 12  1  1  0  0  0
 11 13  1  0  0  0  0
 14 13  1  6  0  0  0
 14 15  1  0  0  0  0
 14 20  1  0  0  0  0
 15 16  1  1  0  0  0
 15 18  1  0  0  0  0
 16 17  2  0  0  0  0
 18 19  1  0  0  0  0
 20 19  1  1  0  0  0
M  CHG  1  22  -1
M  END
>  <CHROM.1>
-61.53194201,85.83107748,74.31776671,-132.34634927,4.76735869,7.41386370
29.64620205,-2.92442012,-0.61887737,-1.53854870

>  <Name>
ligand

>  <RI>
0

>  <Rbt.Current_Directory>
/home/itssahil/PROJECTS/Mol_Feturizer/Test_systems_manuscript/rnas/3slm

>  <Rbt.Executable>
rbdock ($Id: //depot/dev/client3/rdock/2013.1/src/exe/rbdock.cxx#4 $)

>  <Rbt.Library>
libRbt.so (2013.1, Build901 2013/11/27)

>  <Rbt.Parameter_File>
/export/apps/rDock/src/rDock_2013.1_src/data/scripts/dock_solv.prm

>  <Rbt.Receptor>
prm/blind_docking_40.prm

>  <SCORE>
-19.9326

>  <SCORE.INTER>
-15.9007

>  <SCORE.INTER.CONST>
1

>  <SCORE.INTER.POLAR>
0

>  <SCORE.INTER.ROT>
4

>  <SCORE.INTER.SOLV>
16.7105

>  <SCORE.INTER.VDW>
-22.4373

>  <SCORE.INTER.norm>
-0.691337

>  <SCORE.INTRA>
-4.03182

>  <SCORE.INTRA.DIHEDRAL>
-4.34969

>  <SCORE.INTRA.DIHEDRAL.0>
8.62657

>  <SCORE.INTRA.POLAR>
0

>  <SCORE.INTRA.POLAR.0>
0

>  <SCORE.INTRA.REPUL>
0

>  <SCORE.INTRA.REPUL.0>
0

>  <SCORE.INTRA.SOLV>
0.357104

>  <SCORE.INTRA.SOLV.lig_0>
-66.3641

>  <SCORE.INTRA.VDW>
-2.03553

>  <SCORE.INTRA.VDW.0>
0.452231

>  <SCORE.INTRA.norm>
-0.175297

>  <SCORE.RESTR>
0

>  <SCORE.RESTR.CAVITY>
0

>  <SCORE.RESTR.norm>
0

>  <SCORE.SYSTEM>
0

>  <SCORE.SYSTEM.CONST>
0

>  <SCORE.SYSTEM.DIHEDRAL>
0

>  <SCORE.SYSTEM.SOLV>
0

>  <SCORE.SYSTEM.norm>
0

>  <SCORE.heavy>
23

>  <SCORE.norm>
-0.866633

>  <RMSD>
17.750

$$$$
ligand
 OpenBabel02271912143D
libRbt.so/2013.1/901 2013/11/27
 23 25  0  0  0  0  0  0  0  0999 V2000
    0.9334    2.5985   30.4219 P   0  0  1  0  0  0  0  0  0  0  0  0
    2.3087    4.0156   32.1410 C   0  0  0  0  0  0  0  0  0  0  0  0
    2.2794    2.9133   31.2450 O   0  0  0  0  0  0  0  0  0  0  0  0
    3.7228    4.1340   32.6635 C   0  0  1  0  0  0  0  0  0  0  0  0
    4.6775    4.2442   31.6084 O   0  0  0  0  0  0  0  0  0  0  0  0
    3.8335    5.3813   33.5240 C   0  0  1  0  0  0  0  0  0  0  0  0
    4.5070    5.0253   34.7437 O   0  0  0  0  0  0  0  0  0  0  0  0
    4.6375    6.3727   32.6922 C   0  0  0  0  0  0  0  0  0  0  0  0
    5.3600    5.5036   31.6663 C   0  0  2  0  0  0  0  0  0  0  0  0
    7.0951    9.0965   28.4086 N   0  0  0  0  0  0  0  0  0  0  0  0
    7.4808    8.8732   29.6755 C   0  0  2  0  0  0  0  0  0  0  0  0
    8.4507    9.6649   30.1894 N   0  0  0  0  0  0  0  0  0  0  0  0
    6.9234    7.8811   30.4109 N   0  0  0  0  0  0  0  0  0  0  0  0
    5.9644    7.1047   29.8658 C   0  0  2  0  0  0  0  0  0  0  0  0
    5.5560    7.3222   28.5677 C   0  0  1  0  0  0  0  0  0  0  0  0
    6.1453    8.3352   27.8355 C   0  0  0  0  0  0  0  0  0  0  0  0
    5.7937    8.5446   26.6544 O   0  0  0  0  0  0  0  0  0  0  0  0
    4.5938    6.4247   28.2760 N   0  0  0  0  0  0  0  0  0  0  0  0
    4.4140    5.6614   29.3684 C   0  0  0  0  0  0  0  0  0  0  0  0
    5.2422    6.0900   30.3272 N   0  0  1  0  0  0  0  0  0  0  0  0
   -0.1608    2.3702   31.4361 O   0  0  0  0  0  0  0  0  0  0  0  0
    0.7386    3.8243   29.5596 O   0  5  0  0  0  0  0  0  0  0  0  0
    1.3012    1.3621   29.6469 O   0  0  0  0  0  0  0  0  0  0  0  0
  1  3  1  1  0  0  0
  1 21  1  0  0  0  0
  1 22  1  0  0  0  0
  1 23  2  0  0  0  0
  2  3  1  0  0  0  0
  4  2  1  6  0  0  0
  4  5  1  0  0  0  0
  4  6  1  0  0  0  0
  6  7  1  1  0  0  0
  6  8  1  0  0  0  0
  8  9  1  0  0  0  0
  9  5  1  6  0  0  0
  9 20  1  0  0  0  0
 10 11  1  0  0  0  0
 10 16  1  0  0  0  0
 11 12  1  6  0  0  0
 11 13  1  0  0  0  0
 14 13  1  1  0  0  0
 14 15  1  0  0  0  0
 14 20  1  0  0  0  0
 15 16  1  6  0  0  0
 15 18  1  0  0  0  0
 16 17  2  0  0  0  0
 18 19  1  0  0  0  0
 20 19  1  6  0  0  0
M  CHG  1  22  -1
M  END
>  <CHROM.1>
-58.48830161,55.21632184,-174.93776504,-164.76312330,4.13974218,5.49929224
30.50466632,2.70876166,0.73967116,1.82090653

>  <Name>
ligand

>  <RI>
0

>  <Rbt.Current_Directory>
/home/itssahil/PROJECTS/Mol_Feturizer/Test_systems_manuscript/rnas/3slm

>  <Rbt.Executable>
rbdock ($Id: //depot/dev/client3/rdock/2013.1/src/exe/rbdock.cxx#4 $)

>  <Rbt.Library>
libRbt.so (2013.1, Build901 2013/11/27)

>  <Rbt.Parameter_File>
/export/apps/rDock/src/rDock_2013.1_src/data/scripts/dock_solv.prm

>  <Rbt.Receptor>
prm/blind_docking_40.prm

>  <SCORE>
-16.9071

>  <SCORE.INTER>
-11.1915

>  <SCORE.INTER.CONST>
1

>  <SCORE.INTER.POLAR>
0

>  <SCORE.INTER.ROT>
4

>  <SCORE.INTER.SOLV>
16.8696

>  <SCORE.INTER.VDW>
-19.3509

>  <SCORE.INTER.norm>
-0.486589

>  <SCORE.INTRA>
-5.71557

>  <SCORE.INTRA.DIHEDRAL>
-7.17131

>  <SCORE.INTRA.DIHEDRAL.0>
8.62657

>  <SCORE.INTRA.POLAR>
0

>  <SCORE.INTRA.POLAR.0>
0

>  <SCORE.INTRA.REPUL>
0

>  <SCORE.INTRA.REPUL.0>
0

>  <SCORE.INTRA.SOLV>
-0.636209

>  <SCORE.INTRA.SOLV.lig_0>
-66.3641

>  <SCORE.INTRA.VDW>
-1.81181

>  <SCORE.INTRA.VDW.0>
0.452231

>  <SCORE.INTRA.norm>
-0.248503

>  <SCORE.RESTR>
0

>  <SCORE.RESTR.CAVITY>
0

>  <SCORE.RESTR.norm>
0

>  <SCORE.SYSTEM>
0

>  <SCORE.SYSTEM.CONST>
0

>  <SCORE.SYSTEM.DIHEDRAL>
0

>  <SCORE.SYSTEM.SOLV>
0

>  <SCORE.SYSTEM.norm>
0

>  <SCORE.heavy>
23

>  <SCORE.norm>
-0.735092

>  <RMSD>
17.766

$$$$
ligand
 OpenBabel02271912143D
libRbt.so/2013.1/901 2013/11/27
 23 25  0  0  0  0  0  0  0  0999 V2000
    3.0162    3.5250   24.4019 P   0  0  1  0  0  0  0  0  0  0  0  0
    3.5841    4.1604   26.8776 C   0  0  0  0  0  0  0  0  0  0  0  0
    2.5994    3.7489   25.9396 O   0  0  0  0  0  0  0  0  0  0  0  0
    3.0300    3.8932   28.2589 C   0  0  1  0  0  0  0  0  0  0  0  0
    4.0045    4.1080   29.2792 O   0  0  0  0  0  0  0  0  0  0  0  0
    1.8667    4.8352   28.5202 C   0  0  1  0  0  0  0  0  0  0  0  0
    0.7771    4.0634   29.0541 O   0  0  0  0  0  0  0  0  0  0  0  0
    2.3934    5.8550   29.5221 C   0  0  0  0  0  0  0  0  0  0  0  0
    3.6039    5.1719   30.1527 C   0  0  2  0  0  0  0  0  0  0  0  0
    6.4893    8.5600   27.5590 N   0  0  0  0  0  0  0  0  0  0  0  0
    5.4541    7.8356   27.1037 C   0  0  2  0  0  0  0  0  0  0  0  0
    5.0899    7.9980   25.8104 N   0  0  0  0  0  0  0  0  0  0  0  0
    4.7907    6.9779   27.9160 N   0  0  0  0  0  0  0  0  0  0  0  0
    5.1744    6.8456   29.2025 C   0  0  2  0  0  0  0  0  0  0  0  0
    6.2360    7.5802   29.6846 C   0  0  1  0  0  0  0  0  0  0  0  0
    6.8916    8.4543   28.8384 C   0  0  0  0  0  0  0  0  0  0  0  0
    7.8527    9.1345   29.2580 O   0  0  0  0  0  0  0  0  0  0  0  0
    6.4137    7.2573   30.9809 N   0  0  0  0  0  0  0  0  0  0  0  0
    5.4769    6.3463   31.2985 C   0  0  0  0  0  0  0  0  0  0  0  0
    4.7398    6.0978   30.2105 N   0  0  1  0  0  0  0  0  0  0  0  0
    3.6670    4.8027   23.9306 O   0  0  0  0  0  0  0  0  0  0  0  0
    3.9434    2.3323   24.4459 O   0  5  0  0  0  0  0  0  0  0  0  0
    1.6950    3.2440   23.7387 O   0  0  0  0  0  0  0  0  0  0  0  0
  1  3  1  1  0  0  0
  1 21  1  0  0  0  0
  1 22  1  0  0  0  0
  1 23  2  0  0  0  0
  2  3  1  0  0  0  0
  4  2  1  6  0  0  0
  4  5  1  0  0  0  0
  4  6  1  0  0  0  0
  6  7  1  1  0  0  0
  6  8  1  0  0  0  0
  8  9  1  0  0  0  0
  9  5  1  6  0  0  0
  9 20  1  0  0  0  0
 10 11  1  0  0  0  0
 10 16  1  0  0  0  0
 11 12  1  1  0  0  0
 11 13  1  0  0  0  0
 14 13  1  6  0  0  0
 14 15  1  0  0  0  0
 14 20  1  0  0  0  0
 15 16  1  1  0  0  0
 15 18  1  0  0  0  0
 16 17  2  0  0  0  0
 18 19  1  0  0  0  0
 20 19  1  1  0  0  0
M  CHG  1  22  -1
M  END
>  <CHROM.1>
-54.66726143,172.40285145,-163.49777315,67.81483409,4.16610249,5.57202786
27.63241888,-2.33638964,0.78579766,1.41875782

>  <Name>
ligand

>  <RI>
0

>  <Rbt.Current_Directory>
/home/itssahil/PROJECTS/Mol_Feturizer/Test_systems_manuscript/rnas/3slm

>  <Rbt.Executable>
rbdock ($Id: //depot/dev/client3/rdock/2013.1/src/exe/rbdock.cxx#4 $)

>  <Rbt.Library>
libRbt.so (2013.1, Build901 2013/11/27)

>  <Rbt.Parameter_File>
/export/apps/rDock/src/rDock_2013.1_src/data/scripts/dock_solv.prm

>  <Rbt.Receptor>
prm/blind_docking_100.prm

>  <SCORE>
-18.0898

>  <SCORE.INTER>
-13.0627

>  <SCORE.INTER.CONST>
1

>  <SCORE.INTER.POLAR>
0

>  <SCORE.INTER.ROT>
4

>  <SCORE.INTER.SOLV>
15.4238

>  <SCORE.INTER.VDW>
-20.1164

>  <SCORE.INTER.norm>
-0.567943

>  <SCORE.INTRA>
-5.02715

>  <SCORE.INTRA.DIHEDRAL>
-5.88152

>  <SCORE.INTRA.DIHEDRAL.0>
8.62657

>  <SCORE.INTRA.POLAR>
0

>  <SCORE.INTRA.POLAR.0>
0

>  <SCORE.INTRA.REPUL>
0

>  <SCORE.INTRA.REPUL.0>
0

>  <SCORE.INTRA.SOLV>
0.334712

>  <SCORE.INTRA.SOLV.lig_0>
-66.3641

>  <SCORE.INTRA.VDW>
-2.25375

>  <SCORE.INTRA.VDW.0>
0.452231

>  <SCORE.INTRA.norm>
-0.218572

>  <SCORE.RESTR>
0

>  <SCORE.RESTR.CAVITY>
0

>  <SCORE.RESTR.norm>
0

>  <SCORE.SYSTEM>
0

>  <SCORE.SYSTEM.CONST>
0

>  <SCORE.SYSTEM.DIHEDRAL>
0

>  <SCORE.SYSTEM.SOLV>
0

>  <SCORE.SYSTEM.norm>
0

>  <SCORE.heavy>
23

>  <SCORE.norm>
-0.786515

>  <RMSD>
17.770

$$$$
ligand
 OpenBabel02271912143D
libRbt.so/2013.1/901 2013/11/27
 23 25  0  0  0  0  0  0  0  0999 V2000
    2.3163    0.3338   28.6112 P   0  0  1  0  0  0  0  0  0  0  0  0
    2.9433    2.8520   28.2638 C   0  0  0  0  0  0  0  0  0  0  0  0
    2.2626    1.7057   27.7725 O   0  0  0  0  0  0  0  0  0  0  0  0
    2.6626    3.9877   27.3057 C   0  0  1  0  0  0  0  0  0  0  0  0
    2.9263    5.2621   27.8917 O   0  0  0  0  0  0  0  0  0  0  0  0
    3.5557    3.8425   26.0851 C   0  0  1  0  0  0  0  0  0  0  0  0
    2.7418    4.0144   24.9120 O   0  0  0  0  0  0  0  0  0  0  0  0
    4.6043    4.9392   26.2223 C   0  0  0  0  0  0  0  0  0  0  0  0
    3.9782    5.9388   27.1912 C   0  0  2  0  0  0  0  0  0  0  0  0
    5.3195    5.6629   32.1568 N   0  0  0  0  0  0  0  0  0  0  0  0
    4.2426    5.1265   31.5599 C   0  0  2  0  0  0  0  0  0  0  0  0
    3.3874    4.4097   32.3257 N   0  0  0  0  0  0  0  0  0  0  0  0
    4.0255    5.2902   30.2325 N   0  0  0  0  0  0  0  0  0  0  0  0
    4.9019    6.0040   29.4962 C   0  0  2  0  0  0  0  0  0  0  0  0
    6.0109    6.5626   30.0940 C   0  0  1  0  0  0  0  0  0  0  0  0
    6.2143    6.3749   31.4479 C   0  0  0  0  0  0  0  0  0  0  0  0
    7.2173    6.8678   32.0079 O   0  0  0  0  0  0  0  0  0  0  0  0
    6.7086    7.2218   29.1479 N   0  0  0  0  0  0  0  0  0  0  0  0
    6.0498    7.0691   27.9856 C   0  0  0  0  0  0  0  0  0  0  0  0
    4.9524    6.3389   28.2119 N   0  0  1  0  0  0  0  0  0  0  0  0
    1.2353   -0.5634   28.0592 O   0  0  0  0  0  0  0  0  0  0  0  0
    3.7222   -0.1742   28.3888 O   0  5  0  0  0  0  0  0  0  0  0  0
    2.0523    0.7960   30.0187 O   0  0  0  0  0  0  0  0  0  0  0  0
  1  3  1  6  0  0  0
  1 21  1  0  0  0  0
  1 22  1  0  0  0  0
  1 23  2  0  0  0  0
  2  3  1  0  0  0  0
  4  2  1  1  0  0  0
  4  5  1  0  0  0  0
  4  6  1  0  0  0  0
  6  7  1  6  0  0  0
  6  8  1  0  0  0  0
  8  9  1  0  0  0  0
  9  5  1  1  0  0  0
  9 20  1  0  0  0  0
 10 11  1  0  0  0  0
 10 16  1  0  0  0  0
 11 12  1  6  0  0  0
 11 13  1  0  0  0  0
 14 13  1  1  0  0  0
 14 15  1  0  0  0  0
 14 20  1  0  0  0  0
 15 16  1  6  0  0  0
 15 18  1  0  0  0  0
 16 17  2  0  0  0  0
 18 19  1  0  0  0  0
 20 19  1  6  0  0  0
M  CHG  1  22  -1
M  END
>  <CHROM.1>
165.28359577,161.50801983,-177.53156682,6.11405680,3.92708077,4.01128215
28.87678944,3.13301564,-1.04570300,-1.19250754

>  <Name>
ligand

>  <RI>
0

>  <Rbt.Current_Directory>
/home/itssahil/PROJECTS/Mol_Feturizer/Test_systems_manuscript/rnas/3slm

>  <Rbt.Executable>
rbdock ($Id: //depot/dev/client3/rdock/2013.1/src/exe/rbdock.cxx#4 $)

>  <Rbt.Library>
libRbt.so (2013.1, Build901 2013/11/27)

>  <Rbt.Parameter_File>
/export/apps/rDock/src/rDock_2013.1_src/data/scripts/dock_solv.prm

>  <Rbt.Receptor>
prm/blind_docking_80.prm

>  <SCORE>
-16.5994

>  <SCORE.INTER>
-12.4786

>  <SCORE.INTER.CONST>
1

>  <SCORE.INTER.POLAR>
0

>  <SCORE.INTER.ROT>
4

>  <SCORE.INTER.SOLV>
12.5699

>  <SCORE.INTER.VDW>
-18.7757

>  <SCORE.INTER.norm>
-0.54255

>  <SCORE.INTRA>
-4.12073

>  <SCORE.INTRA.DIHEDRAL>
-5.95439

>  <SCORE.INTRA.DIHEDRAL.0>
8.62657

>  <SCORE.INTRA.POLAR>
0

>  <SCORE.INTRA.POLAR.0>
0

>  <SCORE.INTRA.REPUL>
0

>  <SCORE.INTRA.REPUL.0>
0

>  <SCORE.INTRA.SOLV>
0.535925

>  <SCORE.INTRA.SOLV.lig_0>
-66.3641

>  <SCORE.INTRA.VDW>
-1.4115

>  <SCORE.INTRA.VDW.0>
0.452231

>  <SCORE.INTRA.norm>
-0.179162

>  <SCORE.RESTR>
0

>  <SCORE.RESTR.CAVITY>
0

>  <SCORE.RESTR.norm>
0

>  <SCORE.SYSTEM>
0

>  <SCORE.SYSTEM.CONST>
0

>  <SCORE.SYSTEM.DIHEDRAL>
0

>  <SCORE.SYSTEM.SOLV>
0

>  <SCORE.SYSTEM.norm>
0

>  <SCORE.heavy>
23

>  <SCORE.norm>
-0.721712

>  <RMSD>
17.780

$$$$
ligand
 OpenBabel02271912143D
libRbt.so/2013.1/901 2013/11/27
 23 25  0  0  0  0  0  0  0  0999 V2000
    4.4111    2.8334   33.2396 P   0  0  1  0  0  0  0  0  0  0  0  0
    2.0318    3.7263   32.6099 C   0  0  0  0  0  0  0  0  0  0  0  0
    3.4199    3.6931   32.3086 O   0  0  0  0  0  0  0  0  0  0  0  0
    1.3462    4.4799   31.4925 C   0  0  1  0  0  0  0  0  0  0  0  0
    1.8985    5.7825   31.3055 O   0  0  0  0  0  0  0  0  0  0  0  0
    1.5177    3.7103   30.1937 C   0  0  1  0  0  0  0  0  0  0  0  0
    0.2364    3.6362   29.5448 O   0  0  0  0  0  0  0  0  0  0  0  0
    2.5268    4.5127   29.3820 C   0  0  0  0  0  0  0  0  0  0  0  0
    2.4866    5.9061   30.0038 C   0  0  2  0  0  0  0  0  0  0  0  0
    6.5452    8.2870   27.9085 N   0  0  0  0  0  0  0  0  0  0  0  0
    5.3828    7.9613   27.3199 C   0  0  2  0  0  0  0  0  0  0  0  0
    5.2189    8.2935   26.0183 N   0  0  0  0  0  0  0  0  0  0  0  0
    4.4031    7.3295   28.0105 N   0  0  0  0  0  0  0  0  0  0  0  0
    4.5957    7.0195   29.3091 C   0  0  2  0  0  0  0  0  0  0  0  0
    5.7836    7.3451   29.9272 C   0  0  1  0  0  0  0  0  0  0  0  0
    6.7645    7.9965   29.2037 C   0  0  0  0  0  0  0  0  0  0  0  0
    7.8465    8.3063   29.7475 O   0  0  0  0  0  0  0  0  0  0  0  0
    5.7200    6.9218   31.2051 N   0  0  0  0  0  0  0  0  0  0  0  0
    4.5145    6.3518   31.3783 C   0  0  0  0  0  0  0  0  0  0  0  0
    3.8475    6.4079   30.2204 N   0  0  1  0  0  0  0  0  0  0  0  0
    3.9278    1.4042   33.1970 O   0  0  0  0  0  0  0  0  0  0  0  0
    5.7724    3.0501   32.6197 O   0  5  0  0  0  0  0  0  0  0  0  0
    4.2462    3.4832   34.5869 O   0  0  0  0  0  0  0  0  0  0  0  0
  1  3  1  6  0  0  0
  1 21  1  0  0  0  0
  1 22  1  0  0  0  0
  1 23  2  0  0  0  0
  2  3  1  0  0  0  0
  4  2  1  1  0  0  0
  4  5  1  0  0  0  0
  4  6  1  0  0  0  0
  6  7  1  6  0  0  0
  6  8  1  0  0  0  0
  8  9  1  0  0  0  0
  9  5  1  1  0  0  0
  9 20  1  0  0  0  0
 10 11  1  0  0  0  0
 10 16  1  0  0  0  0
 11 12  1  1  0  0  0
 11 13  1  0  0  0  0
 14 13  1  6  0  0  0
 14 15  1  0  0  0  0
 14 20  1  0  0  0  0
 15 16  1  1  0  0  0
 15 18  1  0  0  0  0
 16 17  2  0  0  0  0
 18 19  1  0  0  0  0
 20 19  1  1  0  0  0
M  CHG  1  22  -1
M  END
>  <CHROM.1>
59.03042982,-55.83982083,-174.07606995,-159.44751642,4.09509045,5.34621182
30.69348156,-1.97517623,-0.37148082,-0.88779603

>  <Name>
ligand

>  <RI>
0

>  <Rbt.Current_Directory>
/home/itssahil/PROJECTS/Mol_Feturizer/Test_systems_manuscript/rnas/3slm

>  <Rbt.Executable>
rbdock ($Id: //depot/dev/client3/rdock/2013.1/src/exe/rbdock.cxx#4 $)

>  <Rbt.Library>
libRbt.so (2013.1, Build901 2013/11/27)

>  <Rbt.Parameter_File>
/export/apps/rDock/src/rDock_2013.1_src/data/scripts/dock_solv.prm

>  <Rbt.Receptor>
prm/blind_docking_100.prm

>  <SCORE>
-16.5042

>  <SCORE.INTER>
-10.4195

>  <SCORE.INTER.CONST>
1

>  <SCORE.INTER.POLAR>
0

>  <SCORE.INTER.ROT>
4

>  <SCORE.INTER.SOLV>
14.8629

>  <SCORE.INTER.VDW>
-18.1673

>  <SCORE.INTER.norm>
-0.453021

>  <SCORE.INTRA>
-6.08467

>  <SCORE.INTRA.DIHEDRAL>
-7.13984

>  <SCORE.INTRA.DIHEDRAL.0>
8.62657

>  <SCORE.INTRA.POLAR>
0

>  <SCORE.INTRA.POLAR.0>
0

>  <SCORE.INTRA.REPUL>
0

>  <SCORE.INTRA.REPUL.0>
0

>  <SCORE.INTRA.SOLV>
-0.203541

>  <SCORE.INTRA.SOLV.lig_0>
-66.3641

>  <SCORE.INTRA.VDW>
-2.41299

>  <SCORE.INTRA.VDW.0>
0.452231

>  <SCORE.INTRA.norm>
-0.264551

>  <SCORE.RESTR>
0

>  <SCORE.RESTR.CAVITY>
0

>  <SCORE.RESTR.norm>
0

>  <SCORE.SYSTEM>
0

>  <SCORE.SYSTEM.CONST>
0

>  <SCORE.SYSTEM.DIHEDRAL>
0

>  <SCORE.SYSTEM.SOLV>
0

>  <SCORE.SYSTEM.norm>
0

>  <SCORE.heavy>
23

>  <SCORE.norm>
-0.717573

>  <RMSD>
17.789

$$$$
ligand
 OpenBabel02271912143D
libRbt.so/2013.1/901 2013/11/27
 23 25  0  0  0  0  0  0  0  0999 V2000
    2.8220    3.9576   21.7263 P   0  0  1  0  0  0  0  0  0  0  0  0
    2.7686    3.9867   24.3439 C   0  0  0  0  0  0  0  0  0  0  0  0
    3.3900    3.5030   23.1612 O   0  0  0  0  0  0  0  0  0  0  0  0
    3.4638    3.3342   25.5174 C   0  0  1  0  0  0  0  0  0  0  0  0
    4.7088    3.9624   25.8209 O   0  0  0  0  0  0  0  0  0  0  0  0
    2.5760    3.4420   26.7457 C   0  0  1  0  0  0  0  0  0  0  0  0
    2.5255    2.1505   27.3762 O   0  0  0  0  0  0  0  0  0  0  0  0
    3.2416    4.4878   27.6314 C   0  0  0  0  0  0  0  0  0  0  0  0
    4.6832    4.5404   27.1327 C   0  0  2  0  0  0  0  0  0  0  0  0
    6.9451    8.5968   29.3600 N   0  0  0  0  0  0  0  0  0  0  0  0
    6.6902    7.3931   29.8984 C   0  0  2  0  0  0  0  0  0  0  0  0
    7.0699    7.1811   31.1799 N   0  0  0  0  0  0  0  0  0  0  0  0
    6.0813    6.4204   29.1780 N   0  0  0  0  0  0  0  0  0  0  0  0
    5.7227    6.6619   27.9002 C   0  0  2  0  0  0  0  0  0  0  0  0
    5.9754    7.8925   27.3337 C   0  0  1  0  0  0  0  0  0  0  0  0
    6.6047    8.8657   28.0865 C   0  0  0  0  0  0  0  0  0  0  0  0
    6.8488    9.9862   27.5892 O   0  0  0  0  0  0  0  0  0  0  0  0
    5.5155    7.8722   26.0670 N   0  0  0  0  0  0  0  0  0  0  0  0
    4.9947    6.6516   25.8498 C   0  0  0  0  0  0  0  0  0  0  0  0
    5.1168    5.9320   26.9705 N   0  0  1  0  0  0  0  0  0  0  0  0
    3.1333    5.4266   21.5738 O   0  0  0  0  0  0  0  0  0  0  0  0
    3.5459    3.0618   20.7477 O   0  5  0  0  0  0  0  0  0  0  0  0
    1.3507    3.6648   21.8451 O   0  0  0  0  0  0  0  0  0  0  0  0
  1  3  1  1  0  0  0
  1 21  1  0  0  0  0
  1 22  1  0  0  0  0
  1 23  2  0  0  0  0
  2  3  1  0  0  0  0
  4  2  1  6  0  0  0
  4  5  1  0  0  0  0
  4  6  1  0  0  0  0
  6  7  1  1  0  0  0
  6  8  1  0  0  0  0
  8  9  1  0  0  0  0
  9  5  1  6  0  0  0
  9 20  1  0  0  0  0
 10 11  1  0  0  0  0
 10 16  1  0  0  0  0
 11 12  1  6  0  0  0
 11 13  1  0  0  0  0
 14 13  1  1  0  0  0
 14 15  1  0  0  0  0
 14 20  1  0  0  0  0
 15 16  1  6  0  0  0
 15 18  1  0  0  0  0
 16 17  2  0  0  0  0
 18 19  1  0  0  0  0
 20 19  1  6  0  0  0
M  CHG  1  22  -1
M  END
>  <CHROM.1>
68.82703158,79.13124356,176.91010984,-152.31468481,4.43877926,5.44175500
25.85555039,-2.55895006,1.02445079,1.91242264

>  <Name>
ligand

>  <RI>
0

>  <Rbt.Current_Directory>
/home/itssahil/PROJECTS/Mol_Feturizer/Test_systems_manuscript/rnas/3slm

>  <Rbt.Executable>
rbdock ($Id: //depot/dev/client3/rdock/2013.1/src/exe/rbdock.cxx#4 $)

>  <Rbt.Library>
libRbt.so (2013.1, Build901 2013/11/27)

>  <Rbt.Parameter_File>
/export/apps/rDock/src/rDock_2013.1_src/data/scripts/dock_solv.prm

>  <Rbt.Receptor>
prm/blind_docking_60.prm

>  <SCORE>
-22.8142

>  <SCORE.INTER>
-17.7815

>  <SCORE.INTER.CONST>
1

>  <SCORE.INTER.POLAR>
0

>  <SCORE.INTER.ROT>
4

>  <SCORE.INTER.SOLV>
16.3354

>  <SCORE.INTER.VDW>
-23.5661

>  <SCORE.INTER.norm>
-0.773107

>  <SCORE.INTRA>
-5.03277

>  <SCORE.INTRA.DIHEDRAL>
-5.95932

>  <SCORE.INTRA.DIHEDRAL.0>
8.62657

>  <SCORE.INTRA.POLAR>
0

>  <SCORE.INTRA.POLAR.0>
0

>  <SCORE.INTRA.REPUL>
0

>  <SCORE.INTRA.REPUL.0>
0

>  <SCORE.INTRA.SOLV>
-0.662673

>  <SCORE.INTRA.SOLV.lig_0>
-66.3641

>  <SCORE.INTRA.VDW>
-1.72178

>  <SCORE.INTRA.VDW.0>
0.452231

>  <SCORE.INTRA.norm>
-0.218816

>  <SCORE.RESTR>
0

>  <SCORE.RESTR.CAVITY>
0

>  <SCORE.RESTR.norm>
0

>  <SCORE.SYSTEM>
0

>  <SCORE.SYSTEM.CONST>
0

>  <SCORE.SYSTEM.DIHEDRAL>
0

>  <SCORE.SYSTEM.SOLV>
0

>  <SCORE.SYSTEM.norm>
0

>  <SCORE.heavy>
23

>  <SCORE.norm>
-0.991923

>  <RMSD>
17.848

$$$$
ligand
 OpenBabel02271912143D
libRbt.so/2013.1/901 2013/11/27
 23 25  0  0  0  0  0  0  0  0999 V2000
    0.3505    4.7459   30.3256 P   0  0  1  0  0  0  0  0  0  0  0  0
    2.4883    5.5489   31.6064 C   0  0  0  0  0  0  0  0  0  0  0  0
    1.8443    4.5141   30.8763 O   0  0  0  0  0  0  0  0  0  0  0  0
    3.7946    4.9898   32.1234 C   0  0  1  0  0  0  0  0  0  0  0  0
    4.7760    4.8780   31.0933 O   0  0  0  0  0  0  0  0  0  0  0  0
    4.3455    5.9177   33.1930 C   0  0  1  0  0  0  0  0  0  0  0  0
    4.7413    5.1168   34.3199 O   0  0  0  0  0  0  0  0  0  0  0  0
    5.5310    6.6202   32.5430 C   0  0  0  0  0  0  0  0  0  0  0  0
    5.9035    5.7197   31.3682 C   0  0  2  0  0  0  0  0  0  0  0  0
    4.7272    6.3330   26.3910 N   0  0  0  0  0  0  0  0  0  0  0  0
    4.3027    5.3732   27.2291 C   0  0  2  0  0  0  0  0  0  0  0  0
    3.4515    4.4405   26.7420 N   0  0  0  0  0  0  0  0  0  0  0  0
    4.7065    5.3461   28.5221 N   0  0  0  0  0  0  0  0  0  0  0  0
    5.5494    6.2955   28.9779 C   0  0  2  0  0  0  0  0  0  0  0  0
    5.9958    7.2862   28.1302 C   0  0  1  0  0  0  0  0  0  0  0  0
    5.5634    7.2967   26.8177 C   0  0  0  0  0  0  0  0  0  0  0  0
    5.9514    8.1903   26.0345 O   0  0  0  0  0  0  0  0  0  0  0  0
    6.8224    8.0913   28.8264 N   0  0  0  0  0  0  0  0  0  0  0  0
    6.8819    7.6142   30.0822 C   0  0  0  0  0  0  0  0  0  0  0  0
    6.1153    6.5209   30.1582 N   0  0  1  0  0  0  0  0  0  0  0  0
    0.4232    5.8579   29.3076 O   0  0  0  0  0  0  0  0  0  0  0  0
   -0.0398    3.4022   29.7545 O   0  5  0  0  0  0  0  0  0  0  0  0
   -0.4067    5.1205   31.5709 O   0  0  0  0  0  0  0  0  0  0  0  0
  1  3  1  1  0  0  0
  1 21  1  0  0  0  0
  1 22  1  0  0  0  0
  1 23  2  0  0  0  0
  2  3  1  0  0  0  0
  4  2  1  6  0  0  0
  4  5  1  0  0  0  0
  4  6  1  0  0  0  0
  6  7  1  1  0  0  0
  6  8  1  0  0  0  0
  8  9  1  0  0  0  0
  9  5  1  6  0  0  0
  9 20  1  0  0  0  0
 10 11  1  0  0  0  0
 10 16  1  0  0  0  0
 11 12  1  1  0  0  0
 11 13  1  0  0  0  0
 14 13  1  6  0  0  0
 14 15  1  0  0  0  0
 14 20  1  0  0  0  0
 15 16  1  1  0  0  0
 15 18  1  0  0  0  0
 16 17  2  0  0  0  0
 18 19  1  0  0  0  0
 20 19  1  1  0  0  0
M  CHG  1  22  -1
M  END
>  <CHROM.1>
64.71984341,75.03849058,173.55563690,-12.54467280,3.77554698,5.77545693,29.90083195
2.57068883,0.37342145,1.70364046

>  <Name>
ligand

>  <RI>
0

>  <Rbt.Current_Directory>
/home/itssahil/PROJECTS/Mol_Feturizer/Test_systems_manuscript/rnas/3slm

>  <Rbt.Executable>
rbdock ($Id: //depot/dev/client3/rdock/2013.1/src/exe/rbdock.cxx#4 $)

>  <Rbt.Library>
libRbt.so (2013.1, Build901 2013/11/27)

>  <Rbt.Parameter_File>
/export/apps/rDock/src/rDock_2013.1_src/data/scripts/dock_solv.prm

>  <Rbt.Receptor>
prm/blind_docking_80.prm

>  <SCORE>
-18.1028

>  <SCORE.INTER>
-13.0733

>  <SCORE.INTER.CONST>
1

>  <SCORE.INTER.POLAR>
0

>  <SCORE.INTER.ROT>
4

>  <SCORE.INTER.SOLV>
11.7142

>  <SCORE.INTER.VDW>
-18.8869

>  <SCORE.INTER.norm>
-0.568406

>  <SCORE.INTRA>
-5.02942

>  <SCORE.INTRA.DIHEDRAL>
-6.35983

>  <SCORE.INTRA.DIHEDRAL.0>
8.62657

>  <SCORE.INTRA.POLAR>
0

>  <SCORE.INTRA.POLAR.0>
0

>  <SCORE.INTRA.REPUL>
0

>  <SCORE.INTRA.REPUL.0>
0

>  <SCORE.INTRA.SOLV>
-0.502708

>  <SCORE.INTRA.SOLV.lig_0>
-66.3641

>  <SCORE.INTRA.VDW>
-1.59815

>  <SCORE.INTRA.VDW.0>
0.452231

>  <SCORE.INTRA.norm>
-0.21867

>  <SCORE.RESTR>
0

>  <SCORE.RESTR.CAVITY>
0

>  <SCORE.RESTR.norm>
0

>  <SCORE.SYSTEM>
0

>  <SCORE.SYSTEM.CONST>
0

>  <SCORE.SYSTEM.DIHEDRAL>
0

>  <SCORE.SYSTEM.SOLV>
0

>  <SCORE.SYSTEM.norm>
0

>  <SCORE.heavy>
23

>  <SCORE.norm>
-0.787076

>  <RMSD>
17.849

$$$$
ligand
 OpenBabel02271912143D
libRbt.so/2013.1/901 2013/11/27
 23 25  0  0  0  0  0  0  0  0999 V2000
    1.0635    4.5053   30.4408 P   0  0  1  0  0  0  0  0  0  0  0  0
    2.7176    3.5391   28.6559 C   0  0  0  0  0  0  0  0  0  0  0  0
    1.4384    4.0928   28.9316 O   0  0  0  0  0  0  0  0  0  0  0  0
    2.7374    3.1572   27.1930 C   0  0  1  0  0  0  0  0  0  0  0  0
    2.8343    4.2985   26.3414 O   0  0  0  0  0  0  0  0  0  0  0  0
    3.9432    2.2724   26.9250 C   0  0  1  0  0  0  0  0  0  0  0  0
    3.5044    1.1384   26.1573 O   0  0  0  0  0  0  0  0  0  0  0  0
    4.9192    3.1482   26.1493 C   0  0  0  0  0  0  0  0  0  0  0  0
    4.0508    4.2687   25.5834 C   0  0  2  0  0  0  0  0  0  0  0  0
    5.9133    7.5951   29.0472 N   0  0  0  0  0  0  0  0  0  0  0  0
    5.3312    6.4059   29.2723 C   0  0  2  0  0  0  0  0  0  0  0  0
    5.2114    5.9941   30.5560 N   0  0  0  0  0  0  0  0  0  0  0  0
    4.8875    5.6399   28.2465 N   0  0  0  0  0  0  0  0  0  0  0  0
    5.0294    6.0764   26.9781 C   0  0  2  0  0  0  0  0  0  0  0  0
    5.6228    7.2953   26.7303 C   0  0  1  0  0  0  0  0  0  0  0  0
    6.0743    8.0546   27.7931 C   0  0  0  0  0  0  0  0  0  0  0  0
    6.6211    9.1600   27.5893 O   0  0  0  0  0  0  0  0  0  0  0  0
    5.6324    7.4925   25.3972 N   0  0  0  0  0  0  0  0  0  0  0  0
    5.0633    6.4148   24.8290 C   0  0  0  0  0  0  0  0  0  0  0  0
    4.6930    5.5697   25.7973 N   0  0  1  0  0  0  0  0  0  0  0  0
    1.9776    5.6424   30.8275 O   0  0  0  0  0  0  0  0  0  0  0  0
   -0.3988    4.8794   30.3634 O   0  5  0  0  0  0  0  0  0  0  0  0
    1.3269    3.2364   31.2056 O   0  0  0  0  0  0  0  0  0  0  0  0
  1  3  1  6  0  0  0
  1 21  1  0  0  0  0
  1 22  1  0  0  0  0
  1 23  2  0  0  0  0
  2  3  1  0  0  0  0
  4  2  1  1  0  0  0
  4  5  1  0  0  0  0
  4  6  1  0  0  0  0
  6  7  1  6  0  0  0
  6  8  1  0  0  0  0
  8  9  1  0  0  0  0
  9  5  1  1  0  0  0
  9 20  1  0  0  0  0
 10 11  1  0  0  0  0
 10 16  1  0  0  0  0
 11 12  1  6  0  0  0
 11 13  1  0  0  0  0
 14 13  1  1  0  0  0
 14 15  1  0  0  0  0
 14 20  1  0  0  0  0
 15 16  1  6  0  0  0
 15 18  1  0  0  0  0
 16 17  2  0  0  0  0
 18 19  1  0  0  0  0
 20 19  1  6  0  0  0
M  CHG  1  22  -1
M  END
>  <CHROM.1>
65.47065065,73.79435246,175.70266941,57.34245940,3.67840022,5.12214305,28.06858487
-3.13199667,-0.78896939,-2.32785056

>  <Name>
ligand

>  <RI>
0

>  <Rbt.Current_Directory>
/home/itssahil/PROJECTS/Mol_Feturizer/Test_systems_manuscript/rnas/3slm

>  <Rbt.Executable>
rbdock ($Id: //depot/dev/client3/rdock/2013.1/src/exe/rbdock.cxx#4 $)

>  <Rbt.Library>
libRbt.so (2013.1, Build901 2013/11/27)

>  <Rbt.Parameter_File>
/export/apps/rDock/src/rDock_2013.1_src/data/scripts/dock_solv.prm

>  <Rbt.Receptor>
prm/blind_docking_100.prm

>  <SCORE>
-20.7634

>  <SCORE.INTER>
-15.3711

>  <SCORE.INTER.CONST>
1

>  <SCORE.INTER.POLAR>
0

>  <SCORE.INTER.ROT>
4

>  <SCORE.INTER.SOLV>
9.2602

>  <SCORE.INTER.VDW>
-19.6008

>  <SCORE.INTER.norm>
-0.668309

>  <SCORE.INTRA>
-5.39232

>  <SCORE.INTRA.DIHEDRAL>
-6.62531

>  <SCORE.INTRA.DIHEDRAL.0>
8.62657

>  <SCORE.INTRA.POLAR>
0

>  <SCORE.INTRA.POLAR.0>
0

>  <SCORE.INTRA.REPUL>
0

>  <SCORE.INTRA.REPUL.0>
0

>  <SCORE.INTRA.SOLV>
1.48333

>  <SCORE.INTRA.SOLV.lig_0>
-66.3641

>  <SCORE.INTRA.VDW>
-2.82133

>  <SCORE.INTRA.VDW.0>
0.452231

>  <SCORE.INTRA.norm>
-0.234449

>  <SCORE.RESTR>
0

>  <SCORE.RESTR.CAVITY>
0

>  <SCORE.RESTR.norm>
0

>  <SCORE.SYSTEM>
0

>  <SCORE.SYSTEM.CONST>
0

>  <SCORE.SYSTEM.DIHEDRAL>
0

>  <SCORE.SYSTEM.SOLV>
0

>  <SCORE.SYSTEM.norm>
0

>  <SCORE.heavy>
23

>  <SCORE.norm>
-0.902758

>  <RMSD>
17.910

$$$$
ligand
 OpenBabel02271912143D
libRbt.so/2013.1/901 2013/11/27
 23 25  0  0  0  0  0  0  0  0999 V2000
    1.0750    5.1820   30.2438 P   0  0  1  0  0  0  0  0  0  0  0  0
    2.6322    3.8453   28.6180 C   0  0  0  0  0  0  0  0  0  0  0  0
    1.4910    4.6772   28.7740 O   0  0  0  0  0  0  0  0  0  0  0  0
    2.7084    3.4539   27.1594 C   0  0  1  0  0  0  0  0  0  0  0  0
    2.8769    4.5866   26.3076 O   0  0  0  0  0  0  0  0  0  0  0  0
    3.8994    2.5337   26.9517 C   0  0  1  0  0  0  0  0  0  0  0  0
    3.4642    1.4078   26.1701 O   0  0  0  0  0  0  0  0  0  0  0  0
    4.9347    3.3766   26.2176 C   0  0  0  0  0  0  0  0  0  0  0  0
    4.1256    4.5177   25.6068 C   0  0  2  0  0  0  0  0  0  0  0  0
    6.1568    7.6921   29.1181 N   0  0  0  0  0  0  0  0  0  0  0  0
    5.5651    6.5037   29.3215 C   0  0  2  0  0  0  0  0  0  0  0  0
    5.4838    6.0479   30.5931 N   0  0  0  0  0  0  0  0  0  0  0  0
    5.0747    5.7811   28.2855 N   0  0  0  0  0  0  0  0  0  0  0  0
    5.1790    6.2608   27.0290 C   0  0  2  0  0  0  0  0  0  0  0  0
    5.7816    7.4795   26.8037 C   0  0  1  0  0  0  0  0  0  0  0  0
    6.2810    8.1940   27.8760 C   0  0  0  0  0  0  0  0  0  0  0  0
    6.8369    9.2983   27.6923 O   0  0  0  0  0  0  0  0  0  0  0  0
    5.7479    7.7242   25.4788 N   0  0  0  0  0  0  0  0  0  0  0  0
    5.1433    6.6754   24.8934 C   0  0  0  0  0  0  0  0  0  0  0  0
    4.7943    5.8013   25.8436 N   0  0  1  0  0  0  0  0  0  0  0  0
   -0.0662    6.1545   30.0698 O   0  0  0  0  0  0  0  0  0  0  0  0
    0.7057    3.9115   30.9744 O   0  5  0  0  0  0  0  0  0  0  0  0
    2.3406    5.8247   30.7433 O   0  0  0  0  0  0  0  0  0  0  0  0
  1  3  1  6  0  0  0
  1 21  1  0  0  0  0
  1 22  1  0  0  0  0
  1 23  2  0  0  0  0
  2  3  1  0  0  0  0
  4  2  1  1  0  0  0
  4  5  1  0  0  0  0
  4  6  1  0  0  0  0
  6  7  1  6  0  0  0
  6  8  1  0  0  0  0
  8  9  1  0  0  0  0
  9  5  1  1  0  0  0
  9 20  1  0  0  0  0
 10 11  1  0  0  0  0
 10 16  1  0  0  0  0
 11 12  1  6  0  0  0
 11 13  1  0  0  0  0
 14 13  1  1  0  0  0
 14 15  1  0  0  0  0
 14 20  1  0  0  0  0
 15 16  1  6  0  0  0
 15 18  1  0  0  0  0
 16 17  2  0  0  0  0
 18 19  1  0  0  0  0
 20 19  1  6  0  0  0
M  CHG  1  22  -1
M  END
>  <CHROM.1>
173.95209818,61.91572030,175.84207878,62.61298889,3.76001848,5.45889134,28.04299752
-3.14024774,-0.70969261,-2.34273617

>  <Name>
ligand

>  <RI>
0

>  <Rbt.Current_Directory>
/home/itssahil/PROJECTS/Mol_Feturizer/Test_systems_manuscript/rnas/3slm

>  <Rbt.Executable>
rbdock ($Id: //depot/dev/client3/rdock/2013.1/src/exe/rbdock.cxx#4 $)

>  <Rbt.Library>
libRbt.so (2013.1, Build901 2013/11/27)

>  <Rbt.Parameter_File>
/export/apps/rDock/src/rDock_2013.1_src/data/scripts/dock_solv.prm

>  <Rbt.Receptor>
prm/blind_docking_80.prm

>  <SCORE>
-21.1399

>  <SCORE.INTER>
-16.2373

>  <SCORE.INTER.CONST>
1

>  <SCORE.INTER.POLAR>
0

>  <SCORE.INTER.ROT>
4

>  <SCORE.INTER.SOLV>
10.019

>  <SCORE.INTER.VDW>
-20.4312

>  <SCORE.INTER.norm>
-0.70597

>  <SCORE.INTRA>
-4.90259

>  <SCORE.INTRA.DIHEDRAL>
-7.27174

>  <SCORE.INTRA.DIHEDRAL.0>
8.62657

>  <SCORE.INTRA.POLAR>
0

>  <SCORE.INTRA.POLAR.0>
0

>  <SCORE.INTRA.REPUL>
0

>  <SCORE.INTRA.REPUL.0>
0

>  <SCORE.INTRA.SOLV>
3.10713

>  <SCORE.INTRA.SOLV.lig_0>
-66.3641

>  <SCORE.INTRA.VDW>
-2.82029

>  <SCORE.INTRA.VDW.0>
0.452231

>  <SCORE.INTRA.norm>
-0.213156

>  <SCORE.RESTR>
0

>  <SCORE.RESTR.CAVITY>
0

>  <SCORE.RESTR.norm>
0

>  <SCORE.SYSTEM>
0

>  <SCORE.SYSTEM.CONST>
0

>  <SCORE.SYSTEM.DIHEDRAL>
0

>  <SCORE.SYSTEM.SOLV>
0

>  <SCORE.SYSTEM.norm>
0

>  <SCORE.heavy>
23

>  <SCORE.norm>
-0.919126

>  <RMSD>
17.920

$$$$
ligand
 OpenBabel02271912143D
libRbt.so/2013.1/901 2013/11/27
 23 25  0  0  0  0  0  0  0  0999 V2000
    1.2541    4.8916   36.1510 P   0  0  1  0  0  0  0  0  0  0  0  0
    3.4736    5.5889   34.9499 C   0  0  0  0  0  0  0  0  0  0  0  0
    2.8584    4.9902   36.0821 O   0  0  0  0  0  0  0  0  0  0  0  0
    3.4209    4.5818   33.8232 C   0  0  1  0  0  0  0  0  0  0  0  0
    3.8079    5.1529   32.5739 O   0  0  0  0  0  0  0  0  0  0  0  0
    4.3761    3.4406   34.1296 C   0  0  1  0  0  0  0  0  0  0  0  0
    3.6835    2.2022   33.8955 O   0  0  0  0  0  0  0  0  0  0  0  0
    5.5488    3.6319   33.1760 C   0  0  0  0  0  0  0  0  0  0  0  0
    4.9910    4.5209   32.0678 C   0  0  2  0  0  0  0  0  0  0  0  0
    6.5212    7.9900   28.5812 N   0  0  0  0  0  0  0  0  0  0  0  0
    5.5453    7.0747   28.4642 C   0  0  2  0  0  0  0  0  0  0  0  0
    4.8503    7.0373   27.3035 N   0  0  0  0  0  0  0  0  0  0  0  0
    5.2604    6.2236   29.4792 N   0  0  0  0  0  0  0  0  0  0  0  0
    5.9672    6.2927   30.6261 C   0  0  2  0  0  0  0  0  0  0  0  0
    6.9731    7.2249   30.7613 C   0  0  1  0  0  0  0  0  0  0  0  0
    7.2394    8.0871   29.7147 C   0  0  0  0  0  0  0  0  0  0  0  0
    8.1433    8.9441   29.8198 O   0  0  0  0  0  0  0  0  0  0  0  0
    7.5184    7.0772   31.9849 N   0  0  0  0  0  0  0  0  0  0  0  0
    6.8595    6.0787   32.5989 C   0  0  0  0  0  0  0  0  0  0  0  0
    5.9300    5.6051   31.7619 N   0  0  1  0  0  0  0  0  0  0  0  0
    0.8145    4.0340   34.9894 O   0  0  0  0  0  0  0  0  0  0  0  0
    0.9845    4.2871   37.5097 O   0  5  0  0  0  0  0  0  0  0  0  0
    0.8288    6.3300   36.0302 O   0  0  0  0  0  0  0  0  0  0  0  0
  1  3  1  6  0  0  0
  1 21  1  0  0  0  0
  1 22  1  0  0  0  0
  1 23  2  0  0  0  0
  2  3  1  0  0  0  0
  4  2  1  1  0  0  0
  4  5  1  0  0  0  0
  4  6  1  0  0  0  0
  6  7  1  6  0  0  0
  6  8  1  0  0  0  0
  8  9  1  0  0  0  0
  9  5  1  1  0  0  0
  9 20  1  0  0  0  0
 10 11  1  0  0  0  0
 10 16  1  0  0  0  0
 11 12  1  1  0  0  0
 11 13  1  0  0  0  0
 14 13  1  6  0  0  0
 14 15  1  0  0  0  0
 14 20  1  0  0  0  0
 15 16  1  1  0  0  0
 15 18  1  0  0  0  0
 16 17  2  0  0  0  0
 18 19  1  0  0  0  0
 20 19  1  1  0  0  0
M  CHG  1  22  -1
M  END
>  <CHROM.1>
61.95743731,170.18685776,-76.76920647,-85.38488622,4.35814431,5.62059743
32.77187367,2.32676969,-0.58121482,2.46758223

>  <Name>
ligand

>  <RI>
0

>  <Rbt.Current_Directory>
/home/itssahil/PROJECTS/Mol_Feturizer/Test_systems_manuscript/rnas/3slm

>  <Rbt.Executable>
rbdock ($Id: //depot/dev/client3/rdock/2013.1/src/exe/rbdock.cxx#4 $)

>  <Rbt.Library>
libRbt.so (2013.1, Build901 2013/11/27)

>  <Rbt.Parameter_File>
/export/apps/rDock/src/rDock_2013.1_src/data/scripts/dock_solv.prm

>  <Rbt.Receptor>
prm/blind_docking_40.prm

>  <SCORE>
-14.8945

>  <SCORE.INTER>
-10.9907

>  <SCORE.INTER.CONST>
1

>  <SCORE.INTER.POLAR>
0

>  <SCORE.INTER.ROT>
4

>  <SCORE.INTER.SOLV>
7.99349

>  <SCORE.INTER.VDW>
-16.2583

>  <SCORE.INTER.norm>
-0.477858

>  <SCORE.INTRA>
-3.90378

>  <SCORE.INTRA.DIHEDRAL>
-5.83265

>  <SCORE.INTRA.DIHEDRAL.0>
8.62657

>  <SCORE.INTRA.POLAR>
0

>  <SCORE.INTRA.POLAR.0>
0

>  <SCORE.INTRA.REPUL>
0

>  <SCORE.INTRA.REPUL.0>
0

>  <SCORE.INTRA.SOLV>
0.443342

>  <SCORE.INTRA.SOLV.lig_0>
-66.3641

>  <SCORE.INTRA.VDW>
-1.20913

>  <SCORE.INTRA.VDW.0>
0.452231

>  <SCORE.INTRA.norm>
-0.16973

>  <SCORE.RESTR>
0

>  <SCORE.RESTR.CAVITY>
0

>  <SCORE.RESTR.norm>
0

>  <SCORE.SYSTEM>
0

>  <SCORE.SYSTEM.CONST>
0

>  <SCORE.SYSTEM.DIHEDRAL>
0

>  <SCORE.SYSTEM.SOLV>
0

>  <SCORE.SYSTEM.norm>
0

>  <SCORE.heavy>
23

>  <SCORE.norm>
-0.647587

>  <RMSD>
17.937

$$$$
ligand
 OpenBabel02271912143D
libRbt.so/2013.1/901 2013/11/27
 23 25  0  0  0  0  0  0  0  0999 V2000
    1.0387    5.1836   30.2228 P   0  0  1  0  0  0  0  0  0  0  0  0
    2.6025    3.8447   28.6050 C   0  0  0  0  0  0  0  0  0  0  0  0
    1.4734    4.6944   28.7531 O   0  0  0  0  0  0  0  0  0  0  0  0
    2.6860    3.4565   27.1460 C   0  0  1  0  0  0  0  0  0  0  0  0
    2.8598    4.5909   26.2976 O   0  0  0  0  0  0  0  0  0  0  0  0
    3.8773    2.5357   26.9424 C   0  0  1  0  0  0  0  0  0  0  0  0
    3.4452    1.4119   26.1561 O   0  0  0  0  0  0  0  0  0  0  0  0
    4.9171    3.3794   26.2156 C   0  0  0  0  0  0  0  0  0  0  0  0
    4.1121    4.5225   25.6031 C   0  0  2  0  0  0  0  0  0  0  0  0
    6.1327    7.6850   29.1314 N   0  0  0  0  0  0  0  0  0  0  0  0
    5.5397    6.4962   29.3289 C   0  0  2  0  0  0  0  0  0  0  0  0
    5.4537    6.0365   30.5989 N   0  0  0  0  0  0  0  0  0  0  0  0
    5.0525    5.7771   28.2891 N   0  0  0  0  0  0  0  0  0  0  0  0
    5.1614    6.2606   27.0344 C   0  0  2  0  0  0  0  0  0  0  0  0
    5.7654    7.4797   26.8150 C   0  0  1  0  0  0  0  0  0  0  0  0
    6.2615    8.1906   27.8913 C   0  0  0  0  0  0  0  0  0  0  0  0
    6.8185    9.2953   27.7129 O   0  0  0  0  0  0  0  0  0  0  0  0
    5.7365    7.7285   25.4908 N   0  0  0  0  0  0  0  0  0  0  0  0
    5.1334    6.6819   24.9000 C   0  0  0  0  0  0  0  0  0  0  0  0
    4.7806    5.8050   25.8463 N   0  0  1  0  0  0  0  0  0  0  0  0
   -0.0829    6.1775   30.0432 O   0  0  0  0  0  0  0  0  0  0  0  0
    0.6353    3.9084   30.9265 O   0  5  0  0  0  0  0  0  0  0  0  0
    2.3053    5.7974   30.7552 O   0  0  0  0  0  0  0  0  0  0  0  0
  1  3  1  6  0  0  0
  1 21  1  0  0  0  0
  1 22  1  0  0  0  0
  1 23  2  0  0  0  0
  2  3  1  0  0  0  0
  4  2  1  1  0  0  0
  4  5  1  0  0  0  0
  4  6  1  0  0  0  0
  6  7  1  6  0  0  0
  6  8  1  0  0  0  0
  8  9  1  0  0  0  0
  9  5  1  1  0  0  0
  9 20  1  0  0  0  0
 10 11  1  0  0  0  0
 10 16  1  0  0  0  0
 11 12  1  6  0  0  0
 11 13  1  0  0  0  0
 14 13  1  1  0  0  0
 14 15  1  0  0  0  0
 14 20  1  0  0  0  0
 15 16  1  6  0  0  0
 15 18  1  0  0  0  0
 16 17  2  0  0  0  0
 18 19  1  0  0  0  0
 20 19  1  6  0  0  0
M  CHG  1  22  -1
M  END
>  <CHROM.1>
174.03464337,61.00613526,174.92531252,62.72585567,3.73609394,5.45946044,28.03852861
3.13828956,-0.70460635,-2.34330518

>  <Name>
ligand

>  <RI>
0

>  <Rbt.Current_Directory>
/home/itssahil/PROJECTS/Mol_Feturizer/Test_systems_manuscript/rnas/3slm

>  <Rbt.Executable>
rbdock ($Id: //depot/dev/client3/rdock/2013.1/src/exe/rbdock.cxx#4 $)

>  <Rbt.Library>
libRbt.so (2013.1, Build901 2013/11/27)

>  <Rbt.Parameter_File>
/export/apps/rDock/src/rDock_2013.1_src/data/scripts/dock_solv.prm

>  <Rbt.Receptor>
prm/blind_docking_100.prm

>  <SCORE>
-21.1266

>  <SCORE.INTER>
-16.2295

>  <SCORE.INTER.CONST>
1

>  <SCORE.INTER.POLAR>
0

>  <SCORE.INTER.ROT>
4

>  <SCORE.INTER.SOLV>
10.0154

>  <SCORE.INTER.VDW>
-20.4248

>  <SCORE.INTER.norm>
-0.705631

>  <SCORE.INTRA>
-4.89705

>  <SCORE.INTRA.DIHEDRAL>
-7.24128

>  <SCORE.INTRA.DIHEDRAL.0>
8.62657

>  <SCORE.INTRA.POLAR>
0

>  <SCORE.INTRA.POLAR.0>
0

>  <SCORE.INTRA.REPUL>
0

>  <SCORE.INTRA.REPUL.0>
0

>  <SCORE.INTRA.SOLV>
3.07797

>  <SCORE.INTRA.SOLV.lig_0>
-66.3641

>  <SCORE.INTRA.VDW>
-2.8154

>  <SCORE.INTRA.VDW.0>
0.452231

>  <SCORE.INTRA.norm>
-0.212915

>  <SCORE.RESTR>
0

>  <SCORE.RESTR.CAVITY>
0

>  <SCORE.RESTR.norm>
0

>  <SCORE.SYSTEM>
0

>  <SCORE.SYSTEM.CONST>
0

>  <SCORE.SYSTEM.DIHEDRAL>
0

>  <SCORE.SYSTEM.SOLV>
0

>  <SCORE.SYSTEM.norm>
0

>  <SCORE.heavy>
23

>  <SCORE.norm>
-0.918546

>  <RMSD>
17.943

$$$$
ligand
 OpenBabel02271912143D
libRbt.so/2013.1/901 2013/11/27
 23 25  0  0  0  0  0  0  0  0999 V2000
    3.2527   -0.7798   27.5488 P   0  0  1  0  0  0  0  0  0  0  0  0
    1.8481    0.8922   28.9933 C   0  0  0  0  0  0  0  0  0  0  0  0
    3.1188    0.3210   28.7143 O   0  0  0  0  0  0  0  0  0  0  0  0
    2.0554    1.9622   30.0415 C   0  0  1  0  0  0  0  0  0  0  0  0
    3.1403    2.8303   29.7154 O   0  0  0  0  0  0  0  0  0  0  0  0
    0.7975    2.8079   30.1463 C   0  0  1  0  0  0  0  0  0  0  0  0
    0.4705    2.9531   31.5391 O   0  0  0  0  0  0  0  0  0  0  0  0
    1.1542    4.1398   29.4982 C   0  0  0  0  0  0  0  0  0  0  0  0
    2.6799    4.1746   29.5259 C   0  0  2  0  0  0  0  0  0  0  0  0
    5.7632    7.4651   27.0363 N   0  0  0  0  0  0  0  0  0  0  0  0
    5.5124    7.4025   28.3542 C   0  0  2  0  0  0  0  0  0  0  0  0
    6.1379    8.2927   29.1592 N   0  0  0  0  0  0  0  0  0  0  0  0
    4.6682    6.4719   28.8613 N   0  0  0  0  0  0  0  0  0  0  0  0
    4.0669    5.5941   28.0320 C   0  0  2  0  0  0  0  0  0  0  0  0
    4.3121    5.6464   26.6769 C   0  0  1  0  0  0  0  0  0  0  0  0
    5.1833    6.5997   26.1849 C   0  0  0  0  0  0  0  0  0  0  0  0
    5.4241    6.6596   24.9598 O   0  0  0  0  0  0  0  0  0  0  0  0
    3.5890    4.6763   26.0833 N   0  0  0  0  0  0  0  0  0  0  0  0
    2.9146    4.0308   27.0512 C   0  0  0  0  0  0  0  0  0  0  0  0
    3.2044    4.6027   28.2249 N   0  0  1  0  0  0  0  0  0  0  0  0
    4.7205   -1.1052   27.4157 O   0  0  0  0  0  0  0  0  0  0  0  0
    2.4005   -1.9297   28.0342 O   0  5  0  0  0  0  0  0  0  0  0  0
    2.6853   -0.0652   26.3522 O   0  0  0  0  0  0  0  0  0  0  0  0
  1  3  1  1  0  0  0
  1 21  1  0  0  0  0
  1 22  1  0  0  0  0
  1 23  2  0  0  0  0
  2  3  1  0  0  0  0
  4  2  1  6  0  0  0
  4  5  1  0  0  0  0
  4  6  1  0  0  0  0
  6  7  1  1  0  0  0
  6  8  1  0  0  0  0
  8  9  1  0  0  0  0
  9  5  1  6  0  0  0
  9 20  1  0  0  0  0
 10 11  1  0  0  0  0
 10 16  1  0  0  0  0
 11 12  1  1  0  0  0
 11 13  1  0  0  0  0
 14 13  1  6  0  0  0
 14 15  1  0  0  0  0
 14 20  1  0  0  0  0
 15 16  1  1  0  0  0
 15 18  1  0  0  0  0
 16 17  2  0  0  0  0
 18 19  1  0  0  0  0
 20 19  1  1  0  0  0
M  CHG  1  22  -1
M  END
>  <CHROM.1>
175.35873324,47.95958717,-175.34633777,-116.58839113,3.40298389,3.26434866
28.15787031,-2.11088897,0.90033404,0.31828841

>  <Name>
ligand

>  <RI>
0

>  <Rbt.Current_Directory>
/home/itssahil/PROJECTS/Mol_Feturizer/Test_systems_manuscript/rnas/3slm

>  <Rbt.Executable>
rbdock ($Id: //depot/dev/client3/rdock/2013.1/src/exe/rbdock.cxx#4 $)

>  <Rbt.Library>
libRbt.so (2013.1, Build901 2013/11/27)

>  <Rbt.Parameter_File>
/export/apps/rDock/src/rDock_2013.1_src/data/scripts/dock_solv.prm

>  <Rbt.Receptor>
prm/blind_docking_100.prm

>  <SCORE>
-17.9443

>  <SCORE.INTER>
-12.7806

>  <SCORE.INTER.CONST>
1

>  <SCORE.INTER.POLAR>
0

>  <SCORE.INTER.ROT>
4

>  <SCORE.INTER.SOLV>
12.8183

>  <SCORE.INTER.VDW>
-19.0598

>  <SCORE.INTER.norm>
-0.555678

>  <SCORE.INTRA>
-5.1637

>  <SCORE.INTRA.DIHEDRAL>
-6.79348

>  <SCORE.INTRA.DIHEDRAL.0>
8.62657

>  <SCORE.INTRA.POLAR>
0

>  <SCORE.INTRA.POLAR.0>
0

>  <SCORE.INTRA.REPUL>
0

>  <SCORE.INTRA.REPUL.0>
0

>  <SCORE.INTRA.SOLV>
0.0339671

>  <SCORE.INTRA.SOLV.lig_0>
-66.3641

>  <SCORE.INTRA.VDW>
-1.78394

>  <SCORE.INTRA.VDW.0>
0.452231

>  <SCORE.INTRA.norm>
-0.224509

>  <SCORE.RESTR>
0

>  <SCORE.RESTR.CAVITY>
0

>  <SCORE.RESTR.norm>
0

>  <SCORE.SYSTEM>
0

>  <SCORE.SYSTEM.CONST>
0

>  <SCORE.SYSTEM.DIHEDRAL>
0

>  <SCORE.SYSTEM.SOLV>
0

>  <SCORE.SYSTEM.norm>
0

>  <SCORE.heavy>
23

>  <SCORE.norm>
-0.780187

>  <RMSD>
17.970

$$$$
ligand
 OpenBabel02271912143D
libRbt.so/2013.1/901 2013/11/27
 23 25  0  0  0  0  0  0  0  0999 V2000
    0.7363    3.2998   30.3437 P   0  0  1  0  0  0  0  0  0  0  0  0
    2.9856    3.5818   29.0335 C   0  0  0  0  0  0  0  0  0  0  0  0
    1.7933    4.1859   29.5154 O   0  0  0  0  0  0  0  0  0  0  0  0
    2.7810    3.2906   27.5639 C   0  0  1  0  0  0  0  0  0  0  0  0
    2.8213    4.4766   26.7709 O   0  0  0  0  0  0  0  0  0  0  0  0
    3.8873    2.3687   27.0796 C   0  0  1  0  0  0  0  0  0  0  0  0
    3.2844    1.3060   26.3210 O   0  0  0  0  0  0  0  0  0  0  0  0
    4.7928    3.2441   26.2223 C   0  0  0  0  0  0  0  0  0  0  0  0
    3.9172    4.4369   25.8475 C   0  0  2  0  0  0  0  0  0  0  0  0
    5.9856    7.6984   29.2558 N   0  0  0  0  0  0  0  0  0  0  0  0
    5.3126    6.5624   29.5013 C   0  0  2  0  0  0  0  0  0  0  0  0
    5.1470    6.1928   30.7927 N   0  0  0  0  0  0  0  0  0  0  0  0
    4.8242    5.8068   28.4882 N   0  0  0  0  0  0  0  0  0  0  0  0
    5.0135    6.1998   27.2117 C   0  0  2  0  0  0  0  0  0  0  0  0
    5.7003    7.3639   26.9430 C   0  0  1  0  0  0  0  0  0  0  0  0
    6.1956    8.1131   27.9933 C   0  0  0  0  0  0  0  0  0  0  0  0
    6.8268    9.1688   27.7706 O   0  0  0  0  0  0  0  0  0  0  0  0
    5.7404    7.5267   25.6057 N   0  0  0  0  0  0  0  0  0  0  0  0
    5.0980    6.4811   25.0558 C   0  0  0  0  0  0  0  0  0  0  0  0
    4.6536    5.6907   26.0389 N   0  0  1  0  0  0  0  0  0  0  0  0
    0.5594    2.0046   29.5893 O   0  0  0  0  0  0  0  0  0  0  0  0
    1.3764    3.1467   31.7042 O   0  5  0  0  0  0  0  0  0  0  0  0
   -0.4935    4.1670   30.3445 O   0  0  0  0  0  0  0  0  0  0  0  0
  1  3  1  6  0  0  0
  1 21  1  0  0  0  0
  1 22  1  0  0  0  0
  1 23  2  0  0  0  0
  2  3  1  0  0  0  0
  4  2  1  1  0  0  0
  4  5  1  0  0  0  0
  4  6  1  0  0  0  0
  6  7  1  6  0  0  0
  6  8  1  0  0  0  0
  8  9  1  0  0  0  0
  9  5  1  1  0  0  0
  9 20  1  0  0  0  0
 10 11  1  0  0  0  0
 10 16  1  0  0  0  0
 11 12  1  6  0  0  0
 11 13  1  0  0  0  0
 14 13  1  1  0  0  0
 14 15  1  0  0  0  0
 14 20  1  0  0  0  0
 15 16  1  6  0  0  0
 15 18  1  0  0  0  0
 16 17  2  0  0  0  0
 18 19  1  0  0  0  0
 20 19  1  6  0  0  0
M  CHG  1  22  -1
M  END
>  <CHROM.1>
-45.87180161,73.36095215,101.02124114,47.24482326,3.60299073,4.88794372,28.22251534
3.08932608,-0.81709698,-2.17888973

>  <Name>
ligand

>  <RI>
0

>  <Rbt.Current_Directory>
/home/itssahil/PROJECTS/Mol_Feturizer/Test_systems_manuscript/rnas/3slm

>  <Rbt.Executable>
rbdock ($Id: //depot/dev/client3/rdock/2013.1/src/exe/rbdock.cxx#4 $)

>  <Rbt.Library>
libRbt.so (2013.1, Build901 2013/11/27)

>  <Rbt.Parameter_File>
/export/apps/rDock/src/rDock_2013.1_src/data/scripts/dock_solv.prm

>  <Rbt.Receptor>
prm/blind_docking_100.prm

>  <SCORE>
-20.0306

>  <SCORE.INTER>
-17.2441

>  <SCORE.INTER.CONST>
1

>  <SCORE.INTER.POLAR>
0

>  <SCORE.INTER.ROT>
4

>  <SCORE.INTER.SOLV>
8.70322

>  <SCORE.INTER.VDW>
-20.6638

>  <SCORE.INTER.norm>
-0.749742

>  <SCORE.INTRA>
-2.78658

>  <SCORE.INTRA.DIHEDRAL>
-0.941099

>  <SCORE.INTRA.DIHEDRAL.0>
8.62657

>  <SCORE.INTRA.POLAR>
0

>  <SCORE.INTRA.POLAR.0>
0

>  <SCORE.INTRA.REPUL>
0

>  <SCORE.INTRA.REPUL.0>
0

>  <SCORE.INTRA.SOLV>
0.904319

>  <SCORE.INTRA.SOLV.lig_0>
-66.3641

>  <SCORE.INTRA.VDW>
-2.76818

>  <SCORE.INTRA.VDW.0>
0.452231

>  <SCORE.INTRA.norm>
-0.121155

>  <SCORE.RESTR>
0

>  <SCORE.RESTR.CAVITY>
0

>  <SCORE.RESTR.norm>
0

>  <SCORE.SYSTEM>
0

>  <SCORE.SYSTEM.CONST>
0

>  <SCORE.SYSTEM.DIHEDRAL>
0

>  <SCORE.SYSTEM.SOLV>
0

>  <SCORE.SYSTEM.norm>
0

>  <SCORE.heavy>
23

>  <SCORE.norm>
-0.870898

>  <RMSD>
17.971

$$$$
ligand
 OpenBabel02271912143D
libRbt.so/2013.1/901 2013/11/27
 23 25  0  0  0  0  0  0  0  0999 V2000
    0.6938    4.8271   30.7238 P   0  0  1  0  0  0  0  0  0  0  0  0
    3.1609    4.7253   29.8529 C   0  0  0  0  0  0  0  0  0  0  0  0
    2.2177    5.3428   30.7177 O   0  0  0  0  0  0  0  0  0  0  0  0
    2.8372    5.1679   28.4437 C   0  0  1  0  0  0  0  0  0  0  0  0
    3.1871    6.5327   28.2159 O   0  0  0  0  0  0  0  0  0  0  0  0
    3.6221    4.3156   27.4608 C   0  0  1  0  0  0  0  0  0  0  0  0
    2.7201    3.8746   26.4312 O   0  0  0  0  0  0  0  0  0  0  0  0
    4.7115    5.2311   26.9164 C   0  0  0  0  0  0  0  0  0  0  0  0
    4.1981    6.6392   27.2051 C   0  0  2  0  0  0  0  0  0  0  0  0
    7.4844    7.2321   31.1269 N   0  0  0  0  0  0  0  0  0  0  0  0
    6.5651    6.2679   30.9566 C   0  0  2  0  0  0  0  0  0  0  0  0
    6.4693    5.3112   31.9091 N   0  0  0  0  0  0  0  0  0  0  0  0
    5.7669    6.2491   29.8620 N   0  0  0  0  0  0  0  0  0  0  0  0
    5.8936    7.2135   28.9273 C   0  0  2  0  0  0  0  0  0  0  0  0
    6.8307    8.2111   29.0881 C   0  0  1  0  0  0  0  0  0  0  0  0
    7.6384    8.2039   30.2094 C   0  0  0  0  0  0  0  0  0  0  0  0
    8.4989    9.0961   30.3708 O   0  0  0  0  0  0  0  0  0  0  0  0
    6.7449    9.0401   28.0290 N   0  0  0  0  0  0  0  0  0  0  0  0
    5.7793    8.5626   27.2241 C   0  0  0  0  0  0  0  0  0  0  0  0
    5.2646    7.4626   27.7843 N   0  0  1  0  0  0  0  0  0  0  0  0
    0.7386    3.3185   30.7393 O   0  0  0  0  0  0  0  0  0  0  0  0
    0.1048    5.4463   31.9703 O   0  5  0  0  0  0  0  0  0  0  0  0
    0.1462    5.3984   29.4439 O   0  0  0  0  0  0  0  0  0  0  0  0
  1  3  1  1  0  0  0
  1 21  1  0  0  0  0
  1 22  1  0  0  0  0
  1 23  2  0  0  0  0
  2  3  1  0  0  0  0
  4  2  1  1  0  0  0
  4  5  1  0  0  0  0
  4  6  1  0  0  0  0
  6  7  1  6  0  0  0
  6  8  1  0  0  0  0
  8  9  1  0  0  0  0
  9  5  1  1  0  0  0
  9 20  1  0  0  0  0
 10 11  1  0  0  0  0
 10 16  1  0  0  0  0
 11 12  1  6  0  0  0
 11 13  1  0  0  0  0
 14 13  1  1  0  0  0
 14 15  1  0  0  0  0
 14 20  1  0  0  0  0
 15 16  1  6  0  0  0
 15 18  1  0  0  0  0
 16 17  2  0  0  0  0
 18 19  1  0  0  0  0
 20 19  1  6  0  0  0
M  CHG  1  22  -1
M  END
>  <CHROM.1>
44.72952285,72.37403607,72.35838481,55.25450077,4.08545584,6.11312176,29.38971830
-3.04733760,-0.49949019,-1.56168790

>  <Name>
ligand

>  <RI>
0

>  <Rbt.Current_Directory>
/home/itssahil/PROJECTS/Mol_Feturizer/Test_systems_manuscript/rnas/3slm

>  <Rbt.Executable>
rbdock ($Id: //depot/dev/client3/rdock/2013.1/src/exe/rbdock.cxx#4 $)

>  <Rbt.Library>
libRbt.so (2013.1, Build901 2013/11/27)

>  <Rbt.Parameter_File>
/export/apps/rDock/src/rDock_2013.1_src/data/scripts/dock_solv.prm

>  <Rbt.Receptor>
prm/blind_docking_40.prm

>  <SCORE>
-20.4845

>  <SCORE.INTER>
-16.127

>  <SCORE.INTER.CONST>
1

>  <SCORE.INTER.POLAR>
0

>  <SCORE.INTER.ROT>
4

>  <SCORE.INTER.SOLV>
12.7292

>  <SCORE.INTER.VDW>
-21.2611

>  <SCORE.INTER.norm>
-0.701174

>  <SCORE.INTRA>
-4.35747

>  <SCORE.INTRA.DIHEDRAL>
-5.83773

>  <SCORE.INTRA.DIHEDRAL.0>
8.62657

>  <SCORE.INTRA.POLAR>
0

>  <SCORE.INTRA.POLAR.0>
0

>  <SCORE.INTRA.REPUL>
0

>  <SCORE.INTRA.REPUL.0>
0

>  <SCORE.INTRA.SOLV>
2.39529

>  <SCORE.INTRA.SOLV.lig_0>
-66.3641

>  <SCORE.INTRA.VDW>
-2.63625

>  <SCORE.INTRA.VDW.0>
0.452231

>  <SCORE.INTRA.norm>
-0.189455

>  <SCORE.RESTR>
0

>  <SCORE.RESTR.CAVITY>
0

>  <SCORE.RESTR.norm>
0

>  <SCORE.SYSTEM>
0

>  <SCORE.SYSTEM.CONST>
0

>  <SCORE.SYSTEM.DIHEDRAL>
0

>  <SCORE.SYSTEM.SOLV>
0

>  <SCORE.SYSTEM.norm>
0

>  <SCORE.heavy>
23

>  <SCORE.norm>
-0.890629

>  <RMSD>
17.971

$$$$
ligand
 OpenBabel02271912143D
libRbt.so/2013.1/901 2013/11/27
 23 25  0  0  0  0  0  0  0  0999 V2000
    0.6612    4.7593   30.6768 P   0  0  1  0  0  0  0  0  0  0  0  0
    3.1469    4.7615   29.8542 C   0  0  0  0  0  0  0  0  0  0  0  0
    2.1628    5.3363   30.7026 O   0  0  0  0  0  0  0  0  0  0  0  0
    2.8312    5.1942   28.4402 C   0  0  1  0  0  0  0  0  0  0  0  0
    3.1904    6.5548   28.2023 O   0  0  0  0  0  0  0  0  0  0  0  0
    3.6143    4.3288   27.4674 C   0  0  1  0  0  0  0  0  0  0  0  0
    2.7134    3.8847   26.4382 O   0  0  0  0  0  0  0  0  0  0  0  0
    4.7114    5.2328   26.9194 C   0  0  0  0  0  0  0  0  0  0  0  0
    4.2058    6.6465   27.1943 C   0  0  2  0  0  0  0  0  0  0  0  0
    7.4894    7.2454   31.1175 N   0  0  0  0  0  0  0  0  0  0  0  0
    6.5659    6.2846   30.9512 C   0  0  2  0  0  0  0  0  0  0  0  0
    6.4644    5.3335   31.9086 N   0  0  0  0  0  0  0  0  0  0  0  0
    5.7691    6.2636   29.8555 N   0  0  0  0  0  0  0  0  0  0  0  0
    5.9015    7.2223   28.9158 C   0  0  2  0  0  0  0  0  0  0  0  0
    6.8430    8.2164   29.0725 C   0  0  1  0  0  0  0  0  0  0  0  0
    7.6492    8.2116   30.1949 C   0  0  0  0  0  0  0  0  0  0  0  0
    8.5135    9.1007   30.3527 O   0  0  0  0  0  0  0  0  0  0  0  0
    6.7625    9.0401   28.0089 N   0  0  0  0  0  0  0  0  0  0  0  0
    5.7959    8.5627   27.2052 C   0  0  0  0  0  0  0  0  0  0  0  0
    5.2753    7.4681   27.7705 N   0  0  1  0  0  0  0  0  0  0  0  0
    0.7646    3.2561   30.7656 O   0  0  0  0  0  0  0  0  0  0  0  0
    0.0002    5.4105   31.8698 O   0  5  0  0  0  0  0  0  0  0  0  0
    0.1418    5.2482   29.3518 O   0  0  0  0  0  0  0  0  0  0  0  0
  1  3  1  1  0  0  0
  1 21  1  0  0  0  0
  1 22  1  0  0  0  0
  1 23  2  0  0  0  0
  2  3  1  0  0  0  0
  4  2  1  1  0  0  0
  4  5  1  0  0  0  0
  4  6  1  0  0  0  0
  6  7  1  6  0  0  0
  6  8  1  0  0  0  0
  8  9  1  0  0  0  0
  9  5  1  1  0  0  0
  9 20  1  0  0  0  0
 10 11  1  0  0  0  0
 10 16  1  0  0  0  0
 11 12  1  6  0  0  0
 11 13  1  0  0  0  0
 14 13  1  1  0  0  0
 14 15  1  0  0  0  0
 14 20  1  0  0  0  0
 15 16  1  6  0  0  0
 15 18  1  0  0  0  0
 16 17  2  0  0  0  0
 18 19  1  0  0  0  0
 20 19  1  6  0  0  0
M  CHG  1  22  -1
M  END
>  <CHROM.1>
47.83079451,75.33325541,72.22319989,55.49067713,4.07867977,6.10370076,29.37122318
-3.04326635,-0.50235246,-1.54690612

>  <Name>
ligand

>  <RI>
0

>  <Rbt.Current_Directory>
/home/itssahil/PROJECTS/Mol_Feturizer/Test_systems_manuscript/rnas/3slm

>  <Rbt.Executable>
rbdock ($Id: //depot/dev/client3/rdock/2013.1/src/exe/rbdock.cxx#4 $)

>  <Rbt.Library>
libRbt.so (2013.1, Build901 2013/11/27)

>  <Rbt.Parameter_File>
/export/apps/rDock/src/rDock_2013.1_src/data/scripts/dock_solv.prm

>  <Rbt.Receptor>
prm/blind_docking_100.prm

>  <SCORE>
-20.3881

>  <SCORE.INTER>
-16.21

>  <SCORE.INTER.CONST>
1

>  <SCORE.INTER.POLAR>
0

>  <SCORE.INTER.ROT>
4

>  <SCORE.INTER.SOLV>
12.7178

>  <SCORE.INTER.VDW>
-21.3126

>  <SCORE.INTER.norm>
-0.704783

>  <SCORE.INTRA>
-4.17809

>  <SCORE.INTRA.DIHEDRAL>
-5.70482

>  <SCORE.INTRA.DIHEDRAL.0>
8.62657

>  <SCORE.INTRA.POLAR>
0

>  <SCORE.INTRA.POLAR.0>
0

>  <SCORE.INTRA.REPUL>
0

>  <SCORE.INTRA.REPUL.0>
0

>  <SCORE.INTRA.SOLV>
2.50995

>  <SCORE.INTRA.SOLV.lig_0>
-66.3641

>  <SCORE.INTRA.VDW>
-2.58065

>  <SCORE.INTRA.VDW.0>
0.452231

>  <SCORE.INTRA.norm>
-0.181656

>  <SCORE.RESTR>
0

>  <SCORE.RESTR.CAVITY>
0

>  <SCORE.RESTR.norm>
0

>  <SCORE.SYSTEM>
0

>  <SCORE.SYSTEM.CONST>
0

>  <SCORE.SYSTEM.DIHEDRAL>
0

>  <SCORE.SYSTEM.SOLV>
0

>  <SCORE.SYSTEM.norm>
0

>  <SCORE.heavy>
23

>  <SCORE.norm>
-0.886439

>  <RMSD>
17.975

$$$$
ligand
 OpenBabel02271912143D
libRbt.so/2013.1/901 2013/11/27
 23 25  0  0  0  0  0  0  0  0999 V2000
    0.6692    4.8576   30.7121 P   0  0  1  0  0  0  0  0  0  0  0  0
    3.1417    4.8051   29.8521 C   0  0  0  0  0  0  0  0  0  0  0  0
    2.1741    5.4260   30.6870 O   0  0  0  0  0  0  0  0  0  0  0  0
    2.8505    5.2315   28.4309 C   0  0  1  0  0  0  0  0  0  0  0  0
    3.1969    6.5963   28.1981 O   0  0  0  0  0  0  0  0  0  0  0  0
    3.6653    4.3748   27.4765 C   0  0  1  0  0  0  0  0  0  0  0  0
    2.7924    3.9174   26.4292 O   0  0  0  0  0  0  0  0  0  0  0  0
    4.7619    5.2923   26.9503 C   0  0  0  0  0  0  0  0  0  0  0  0
    4.2322    6.6997   27.2118 C   0  0  2  0  0  0  0  0  0  0  0  0
    7.4691    7.3131   31.1713 N   0  0  0  0  0  0  0  0  0  0  0  0
    6.5686    6.3346   30.9831 C   0  0  2  0  0  0  0  0  0  0  0  0
    6.4803    5.3676   31.9258 N   0  0  0  0  0  0  0  0  0  0  0  0
    5.7816    6.3122   29.8805 N   0  0  0  0  0  0  0  0  0  0  0  0
    5.9004    7.2873   28.9560 C   0  0  2  0  0  0  0  0  0  0  0  0
    6.8183    8.2995   29.1352 C   0  0  1  0  0  0  0  0  0  0  0  0
    7.6150    8.2960   30.2644 C   0  0  0  0  0  0  0  0  0  0  0  0
    8.4581    9.2015   30.4425 O   0  0  0  0  0  0  0  0  0  0  0  0
    6.7283    9.1368   28.0830 N   0  0  0  0  0  0  0  0  0  0  0  0
    5.7792    8.6501   27.2642 C   0  0  0  0  0  0  0  0  0  0  0  0
    5.2784    7.5361   27.8091 N   0  0  1  0  0  0  0  0  0  0  0  0
    0.7656    3.3612   30.8846 O   0  0  0  0  0  0  0  0  0  0  0  0
    0.0267    5.5792   31.8742 O   0  5  0  0  0  0  0  0  0  0  0  0
    0.1360    5.2738   29.3679 O   0  0  0  0  0  0  0  0  0  0  0  0
  1  3  1  1  0  0  0
  1 21  1  0  0  0  0
  1 22  1  0  0  0  0
  1 23  2  0  0  0  0
  2  3  1  0  0  0  0
  4  2  1  1  0  0  0
  4  5  1  0  0  0  0
  4  6  1  0  0  0  0
  6  7  1  6  0  0  0
  6  8  1  0  0  0  0
  8  9  1  0  0  0  0
  9  5  1  1  0  0  0
  9 20  1  0  0  0  0
 10 11  1  0  0  0  0
 10 16  1  0  0  0  0
 11 12  1  6  0  0  0
 11 13  1  0  0  0  0
 14 13  1  1  0  0  0
 14 15  1  0  0  0  0
 14 20  1  0  0  0  0
 15 16  1  6  0  0  0
 15 18  1  0  0  0  0
 16 17  2  0  0  0  0
 18 19  1  0  0  0  0
 20 19  1  6  0  0  0
M  CHG  1  22  -1
M  END
>  <CHROM.1>
48.36311541,72.30541949,75.19544163,56.78958645,4.08438590,6.17469821,29.40360960
-3.05826853,-0.50538235,-1.56916291

>  <Name>
ligand

>  <RI>
0

>  <Rbt.Current_Directory>
/home/itssahil/PROJECTS/Mol_Feturizer/Test_systems_manuscript/rnas/3slm

>  <Rbt.Executable>
rbdock ($Id: //depot/dev/client3/rdock/2013.1/src/exe/rbdock.cxx#4 $)

>  <Rbt.Library>
libRbt.so (2013.1, Build901 2013/11/27)

>  <Rbt.Parameter_File>
/export/apps/rDock/src/rDock_2013.1_src/data/scripts/dock_solv.prm

>  <Rbt.Receptor>
prm/blind_docking_40.prm

>  <SCORE>
-20.4375

>  <SCORE.INTER>
-16.1854

>  <SCORE.INTER.CONST>
1

>  <SCORE.INTER.POLAR>
0

>  <SCORE.INTER.ROT>
4

>  <SCORE.INTER.SOLV>
12.8994

>  <SCORE.INTER.VDW>
-21.3567

>  <SCORE.INTER.norm>
-0.703711

>  <SCORE.INTRA>
-4.25213

>  <SCORE.INTRA.DIHEDRAL>
-5.62874

>  <SCORE.INTRA.DIHEDRAL.0>
8.62657

>  <SCORE.INTRA.POLAR>
0

>  <SCORE.INTRA.POLAR.0>
0

>  <SCORE.INTRA.REPUL>
0

>  <SCORE.INTRA.REPUL.0>
0

>  <SCORE.INTRA.SOLV>
2.36202

>  <SCORE.INTRA.SOLV.lig_0>
-66.3641

>  <SCORE.INTRA.VDW>
-2.61877

>  <SCORE.INTRA.VDW.0>
0.452231

>  <SCORE.INTRA.norm>
-0.184875

>  <SCORE.RESTR>
0

>  <SCORE.RESTR.CAVITY>
0

>  <SCORE.RESTR.norm>
0

>  <SCORE.SYSTEM>
0

>  <SCORE.SYSTEM.CONST>
0

>  <SCORE.SYSTEM.DIHEDRAL>
0

>  <SCORE.SYSTEM.SOLV>
0

>  <SCORE.SYSTEM.norm>
0

>  <SCORE.heavy>
23

>  <SCORE.norm>
-0.888587

>  <RMSD>
17.992

$$$$
ligand
 OpenBabel02271912143D
libRbt.so/2013.1/901 2013/11/27
 23 25  0  0  0  0  0  0  0  0999 V2000
    1.9549    3.2264   21.9168 P   0  0  1  0  0  0  0  0  0  0  0  0
    3.3326    3.9108   24.0354 C   0  0  0  0  0  0  0  0  0  0  0  0
    2.4016    3.0129   23.4475 O   0  0  0  0  0  0  0  0  0  0  0  0
    3.7471    3.3231   25.3656 C   0  0  1  0  0  0  0  0  0  0  0  0
    4.9026    3.9677   25.9006 O   0  0  0  0  0  0  0  0  0  0  0  0
    2.6135    3.4966   26.3622 C   0  0  1  0  0  0  0  0  0  0  0  0
    2.4118    2.2411   27.0338 O   0  0  0  0  0  0  0  0  0  0  0  0
    3.0810    4.5892   27.3156 C   0  0  0  0  0  0  0  0  0  0  0  0
    4.5973    4.6157   27.1425 C   0  0  2  0  0  0  0  0  0  0  0  0
    7.0051    8.5516   29.4322 N   0  0  0  0  0  0  0  0  0  0  0  0
    6.7191    7.3446   29.9471 C   0  0  2  0  0  0  0  0  0  0  0  0
    7.1056    7.0929   31.2194 N   0  0  0  0  0  0  0  0  0  0  0  0
    6.0734    6.4069   29.2125 N   0  0  0  0  0  0  0  0  0  0  0  0
    5.7089    6.6873   27.9444 C   0  0  2  0  0  0  0  0  0  0  0  0
    5.9932    7.9219   27.4019 C   0  0  1  0  0  0  0  0  0  0  0  0
    6.6597    8.8587   28.1687 C   0  0  0  0  0  0  0  0  0  0  0  0
    6.9326    9.9820   27.6932 O   0  0  0  0  0  0  0  0  0  0  0  0
    5.5197    7.9435   26.1403 N   0  0  0  0  0  0  0  0  0  0  0  0
    4.9597    6.7443   25.9024 C   0  0  0  0  0  0  0  0  0  0  0  0
    5.0714    5.9968   27.0058 N   0  0  1  0  0  0  0  0  0  0  0  0
    3.2124    3.1997   21.0824 O   0  0  0  0  0  0  0  0  0  0  0  0
    1.0058    2.0806   21.6512 O   0  5  0  0  0  0  0  0  0  0  0  0
    1.2864    4.5740   21.9522 O   0  0  0  0  0  0  0  0  0  0  0  0
  1  3  1  1  0  0  0
  1 21  1  0  0  0  0
  1 22  1  0  0  0  0
  1 23  2  0  0  0  0
  2  3  1  0  0  0  0
  4  2  1  6  0  0  0
  4  5  1  0  0  0  0
  4  6  1  0  0  0  0
  6  7  1  1  0  0  0
  6  8  1  0  0  0  0
  8  9  1  0  0  0  0
  9  5  1  6  0  0  0
  9 20  1  0  0  0  0
 10 11  1  0  0  0  0
 10 16  1  0  0  0  0
 11 12  1  6  0  0  0
 11 13  1  0  0  0  0
 14 13  1  1  0  0  0
 14 15  1  0  0  0  0
 14 20  1  0  0  0  0
 15 16  1  6  0  0  0
 15 18  1  0  0  0  0
 16 17  2  0  0  0  0
 18 19  1  0  0  0  0
 20 19  1  6  0  0  0
M  CHG  1  22  -1
M  END
>  <CHROM.1>
57.31140410,166.21084501,-169.83475615,-138.28617457,4.23169488,5.25670531
25.87842144,-2.77260377,1.01921216,2.06758313

>  <Name>
ligand

>  <RI>
0

>  <Rbt.Current_Directory>
/home/itssahil/PROJECTS/Mol_Feturizer/Test_systems_manuscript/rnas/3slm

>  <Rbt.Executable>
rbdock ($Id: //depot/dev/client3/rdock/2013.1/src/exe/rbdock.cxx#4 $)

>  <Rbt.Library>
libRbt.so (2013.1, Build901 2013/11/27)

>  <Rbt.Parameter_File>
/export/apps/rDock/src/rDock_2013.1_src/data/scripts/dock_solv.prm

>  <Rbt.Receptor>
prm/blind_docking_100.prm

>  <SCORE>
-23.3267

>  <SCORE.INTER>
-18.0988

>  <SCORE.INTER.CONST>
1

>  <SCORE.INTER.POLAR>
0

>  <SCORE.INTER.ROT>
4

>  <SCORE.INTER.SOLV>
13.9707

>  <SCORE.INTER.VDW>
-22.9894

>  <SCORE.INTER.norm>
-0.786904

>  <SCORE.INTRA>
-5.22792

>  <SCORE.INTRA.DIHEDRAL>
-6.21392

>  <SCORE.INTRA.DIHEDRAL.0>
8.62657

>  <SCORE.INTRA.POLAR>
0

>  <SCORE.INTRA.POLAR.0>
0

>  <SCORE.INTRA.REPUL>
0

>  <SCORE.INTRA.REPUL.0>
0

>  <SCORE.INTRA.SOLV>
-0.641243

>  <SCORE.INTRA.SOLV.lig_0>
-66.3641

>  <SCORE.INTRA.VDW>
-1.80033

>  <SCORE.INTRA.VDW.0>
0.452231

>  <SCORE.INTRA.norm>
-0.227301

>  <SCORE.RESTR>
0

>  <SCORE.RESTR.CAVITY>
0

>  <SCORE.RESTR.norm>
0

>  <SCORE.SYSTEM>
0

>  <SCORE.SYSTEM.CONST>
0

>  <SCORE.SYSTEM.DIHEDRAL>
0

>  <SCORE.SYSTEM.SOLV>
0

>  <SCORE.SYSTEM.norm>
0

>  <SCORE.heavy>
23

>  <SCORE.norm>
-1.0142

>  <RMSD>
17.995

$$$$
ligand
 OpenBabel02271912143D
libRbt.so/2013.1/901 2013/11/27
 23 25  0  0  0  0  0  0  0  0999 V2000
    0.9841    3.8704   30.8617 P   0  0  1  0  0  0  0  0  0  0  0  0
    2.2370    5.4941   29.2341 C   0  0  0  0  0  0  0  0  0  0  0  0
    1.4276    4.3364   29.3871 O   0  0  0  0  0  0  0  0  0  0  0  0
    2.4579    5.6967   27.7520 C   0  0  1  0  0  0  0  0  0  0  0  0
    3.1571    6.9095   27.4742 O   0  0  0  0  0  0  0  0  0  0  0  0
    3.2883    4.5456   27.2098 C   0  0  1  0  0  0  0  0  0  0  0  0
    2.6608    4.0688   26.0069 O   0  0  0  0  0  0  0  0  0  0  0  0
    4.6671    5.1363   26.9430 C   0  0  0  0  0  0  0  0  0  0  0  0
    4.4210    6.6400   26.8536 C   0  0  2  0  0  0  0  0  0  0  0  0
    6.8728    6.9959   31.3696 N   0  0  0  0  0  0  0  0  0  0  0  0
    5.9174    6.1216   31.0139 C   0  0  2  0  0  0  0  0  0  0  0  0
    5.5336    5.1992   31.9267 N   0  0  0  0  0  0  0  0  0  0  0  0
    5.3635    6.1568   29.7778 N   0  0  0  0  0  0  0  0  0  0  0  0
    5.7745    7.0843   28.8887 C   0  0  2  0  0  0  0  0  0  0  0  0
    6.7525    7.9898   29.2389 C   0  0  1  0  0  0  0  0  0  0  0  0
    7.3076    7.9286   30.5030 C   0  0  0  0  0  0  0  0  0  0  0  0
    8.2005    8.7366   30.8380 O   0  0  0  0  0  0  0  0  0  0  0  0
    6.9688    8.8006   28.1843 N   0  0  0  0  0  0  0  0  0  0  0  0
    6.1470    8.4015   27.1975 C   0  0  0  0  0  0  0  0  0  0  0  0
    5.4218    7.3686   27.6401 N   0  0  1  0  0  0  0  0  0  0  0  0
    2.2498    3.5974   31.6374 O   0  0  0  0  0  0  0  0  0  0  0  0
    0.1722    5.0339   31.3826 O   0  5  0  0  0  0  0  0  0  0  0  0
    0.1698    2.6351   30.5873 O   0  0  0  0  0  0  0  0  0  0  0  0
  1  3  1  6  0  0  0
  1 21  1  0  0  0  0
  1 22  1  0  0  0  0
  1 23  2  0  0  0  0
  2  3  1  0  0  0  0
  4  2  1  1  0  0  0
  4  5  1  0  0  0  0
  4  6  1  0  0  0  0
  6  7  1  6  0  0  0
  6  8  1  0  0  0  0
  8  9  1  0  0  0  0
  9  5  1  1  0  0  0
  9 20  1  0  0  0  0
 10 11  1  0  0  0  0
 10 16  1  0  0  0  0
 11 12  1  6  0  0  0
 11 13  1  0  0  0  0
 14 13  1  1  0  0  0
 14 15  1  0  0  0  0
 14 20  1  0  0  0  0
 15 16  1  6  0  0  0
 15 18  1  0  0  0  0
 16 17  2  0  0  0  0
 18 19  1  0  0  0  0
 20 19  1  6  0  0  0
M  CHG  1  22  -1
M  END
>  <CHROM.1>
-59.81153009,174.46897568,-178.63427843,68.08736576,3.97999326,5.84442094
29.32437615,-2.94039404,-0.58544719,-1.42475866

>  <Name>
ligand

>  <RI>
0

>  <Rbt.Current_Directory>
/home/itssahil/PROJECTS/Mol_Feturizer/Test_systems_manuscript/rnas/3slm

>  <Rbt.Executable>
rbdock ($Id: //depot/dev/client3/rdock/2013.1/src/exe/rbdock.cxx#4 $)

>  <Rbt.Library>
libRbt.so (2013.1, Build901 2013/11/27)

>  <Rbt.Parameter_File>
/export/apps/rDock/src/rDock_2013.1_src/data/scripts/dock_solv.prm

>  <Rbt.Receptor>
prm/blind_docking_80.prm

>  <SCORE>
-22.3672

>  <SCORE.INTER>
-16.6768

>  <SCORE.INTER.CONST>
1

>  <SCORE.INTER.POLAR>
0

>  <SCORE.INTER.ROT>
4

>  <SCORE.INTER.SOLV>
10.0227

>  <SCORE.INTER.VDW>
-20.7254

>  <SCORE.INTER.norm>
-0.725079

>  <SCORE.INTRA>
-5.6904

>  <SCORE.INTRA.DIHEDRAL>
-7.28486

>  <SCORE.INTRA.DIHEDRAL.0>
8.62657

>  <SCORE.INTRA.POLAR>
0

>  <SCORE.INTRA.POLAR.0>
0

>  <SCORE.INTRA.REPUL>
0

>  <SCORE.INTRA.REPUL.0>
0

>  <SCORE.INTRA.SOLV>
0.62287

>  <SCORE.INTRA.SOLV.lig_0>
-66.3641

>  <SCORE.INTRA.VDW>
-2.3594

>  <SCORE.INTRA.VDW.0>
0.452231

>  <SCORE.INTRA.norm>
-0.247409

>  <SCORE.RESTR>
0

>  <SCORE.RESTR.CAVITY>
0

>  <SCORE.RESTR.norm>
0

>  <SCORE.SYSTEM>
0

>  <SCORE.SYSTEM.CONST>
0

>  <SCORE.SYSTEM.DIHEDRAL>
0

>  <SCORE.SYSTEM.SOLV>
0

>  <SCORE.SYSTEM.norm>
0

>  <SCORE.heavy>
23

>  <SCORE.norm>
-0.972487

>  <RMSD>
17.997

$$$$
ligand
 OpenBabel02271912143D
libRbt.so/2013.1/901 2013/11/27
 23 25  0  0  0  0  0  0  0  0999 V2000
    0.9316    3.8774   30.8473 P   0  0  1  0  0  0  0  0  0  0  0  0
    2.1993    5.4954   29.2255 C   0  0  0  0  0  0  0  0  0  0  0  0
    1.3576    4.3603   29.3730 O   0  0  0  0  0  0  0  0  0  0  0  0
    2.4276    5.6976   27.7445 C   0  0  1  0  0  0  0  0  0  0  0  0
    3.1345    6.9068   27.4704 O   0  0  0  0  0  0  0  0  0  0  0  0
    3.2542    4.5424   27.2052 C   0  0  1  0  0  0  0  0  0  0  0  0
    2.6293    4.0696   25.9993 O   0  0  0  0  0  0  0  0  0  0  0  0
    4.6373    5.1259   26.9446 C   0  0  0  0  0  0  0  0  0  0  0  0
    4.3996    6.6309   26.8550 C   0  0  2  0  0  0  0  0  0  0  0  0
    6.8131    6.9895   31.3914 N   0  0  0  0  0  0  0  0  0  0  0  0
    5.8516    6.1234   31.0323 C   0  0  2  0  0  0  0  0  0  0  0  0
    5.4493    5.2110   31.9474 N   0  0  0  0  0  0  0  0  0  0  0  0
    5.3096    6.1565   29.7909 N   0  0  0  0  0  0  0  0  0  0  0  0
    5.7388    7.0738   28.8998 C   0  0  2  0  0  0  0  0  0  0  0  0
    6.7233    7.9709   29.2534 C   0  0  1  0  0  0  0  0  0  0  0  0
    7.2660    7.9119   30.5229 C   0  0  0  0  0  0  0  0  0  0  0  0
    8.1644    8.7124   30.8611 O   0  0  0  0  0  0  0  0  0  0  0  0
    6.9582    8.7724   28.1956 N   0  0  0  0  0  0  0  0  0  0  0  0
    6.1413    8.3759   27.2038 C   0  0  0  0  0  0  0  0  0  0  0  0
    5.4009    7.3537   27.6462 N   0  0  1  0  0  0  0  0  0  0  0  0
    2.2066    3.6079   31.6089 O   0  0  0  0  0  0  0  0  0  0  0  0
    0.1150    5.0294   31.3861 O   0  5  0  0  0  0  0  0  0  0  0  0
    0.1249    2.6379   30.5692 O   0  0  0  0  0  0  0  0  0  0  0  0
  1  3  1  6  0  0  0
  1 21  1  0  0  0  0
  1 22  1  0  0  0  0
  1 23  2  0  0  0  0
  2  3  1  0  0  0  0
  4  2  1  1  0  0  0
  4  5  1  0  0  0  0
  4  6  1  0  0  0  0
  6  7  1  6  0  0  0
  6  8  1  0  0  0  0
  8  9  1  0  0  0  0
  9  5  1  1  0  0  0
  9 20  1  0  0  0  0
 10 11  1  0  0  0  0
 10 16  1  0  0  0  0
 11 12  1  6  0  0  0
 11 13  1  0  0  0  0
 14 13  1  1  0  0  0
 14 15  1  0  0  0  0
 14 20  1  0  0  0  0
 15 16  1  6  0  0  0
 15 18  1  0  0  0  0
 16 17  2  0  0  0  0
 18 19  1  0  0  0  0
 20 19  1  6  0  0  0
M  CHG  1  22  -1
M  END
>  <CHROM.1>
-57.35454654,173.13887811,179.73175963,67.50168565,3.93904092,5.84053447
29.32570275,-2.94913615,-0.58308233,-1.43316486

>  <Name>
ligand

>  <RI>
0

>  <Rbt.Current_Directory>
/home/itssahil/PROJECTS/Mol_Feturizer/Test_systems_manuscript/rnas/3slm

>  <Rbt.Executable>
rbdock ($Id: //depot/dev/client3/rdock/2013.1/src/exe/rbdock.cxx#4 $)

>  <Rbt.Library>
libRbt.so (2013.1, Build901 2013/11/27)

>  <Rbt.Parameter_File>
/export/apps/rDock/src/rDock_2013.1_src/data/scripts/dock_solv.prm

>  <Rbt.Receptor>
prm/blind_docking_60.prm

>  <SCORE>
-22.3848

>  <SCORE.INTER>
-16.6942

>  <SCORE.INTER.CONST>
1

>  <SCORE.INTER.POLAR>
0

>  <SCORE.INTER.ROT>
4

>  <SCORE.INTER.SOLV>
10.0895

>  <SCORE.INTER.VDW>
-20.7593

>  <SCORE.INTER.norm>
-0.725835

>  <SCORE.INTRA>
-5.69062

>  <SCORE.INTRA.DIHEDRAL>
-7.22136

>  <SCORE.INTRA.DIHEDRAL.0>
8.62657

>  <SCORE.INTRA.POLAR>
0

>  <SCORE.INTRA.POLAR.0>
0

>  <SCORE.INTRA.REPUL>
0

>  <SCORE.INTRA.REPUL.0>
0

>  <SCORE.INTRA.SOLV>
0.649233

>  <SCORE.INTRA.SOLV.lig_0>
-66.3641

>  <SCORE.INTRA.VDW>
-2.40456

>  <SCORE.INTRA.VDW.0>
0.452231

>  <SCORE.INTRA.norm>
-0.247418

>  <SCORE.RESTR>
0

>  <SCORE.RESTR.CAVITY>
0

>  <SCORE.RESTR.norm>
0

>  <SCORE.SYSTEM>
0

>  <SCORE.SYSTEM.CONST>
0

>  <SCORE.SYSTEM.DIHEDRAL>
0

>  <SCORE.SYSTEM.SOLV>
0

>  <SCORE.SYSTEM.norm>
0

>  <SCORE.heavy>
23

>  <SCORE.norm>
-0.973253

>  <RMSD>
18.033

$$$$
ligand
 OpenBabel02271912143D
libRbt.so/2013.1/901 2013/11/27
 23 25  0  0  0  0  0  0  0  0999 V2000
    0.9013    3.8518   30.8045 P   0  0  1  0  0  0  0  0  0  0  0  0
    2.1713    5.4702   29.1849 C   0  0  0  0  0  0  0  0  0  0  0  0
    1.3569    4.3153   29.3328 O   0  0  0  0  0  0  0  0  0  0  0  0
    2.4301    5.6525   27.7063 C   0  0  1  0  0  0  0  0  0  0  0  0
    3.1377    6.8608   27.4301 O   0  0  0  0  0  0  0  0  0  0  0  0
    3.2727    4.4935   27.2010 C   0  0  1  0  0  0  0  0  0  0  0  0
    2.6754    4.0010   25.9891 O   0  0  0  0  0  0  0  0  0  0  0  0
    4.6586    5.0792   26.9615 C   0  0  0  0  0  0  0  0  0  0  0  0
    4.4167    6.5818   26.8456 C   0  0  2  0  0  0  0  0  0  0  0  0
    6.7621    6.9887   31.4135 N   0  0  0  0  0  0  0  0  0  0  0  0
    5.8162    6.1095   31.0448 C   0  0  2  0  0  0  0  0  0  0  0  0
    5.4123    5.1962   31.9583 N   0  0  0  0  0  0  0  0  0  0  0  0
    5.2913    6.1308   29.7959 N   0  0  0  0  0  0  0  0  0  0  0  0
    5.7218    7.0494   28.9069 C   0  0  2  0  0  0  0  0  0  0  0  0
    6.6903    7.9600   29.2702 C   0  0  1  0  0  0  0  0  0  0  0  0
    7.2159    7.9128   30.5474 C   0  0  0  0  0  0  0  0  0  0  0  0
    8.0998    8.7256   30.8946 O   0  0  0  0  0  0  0  0  0  0  0  0
    6.9303    8.7598   28.2124 N   0  0  0  0  0  0  0  0  0  0  0  0
    6.1321    8.3493   27.2110 C   0  0  0  0  0  0  0  0  0  0  0  0
    5.3980    7.3200   27.6475 N   0  0  1  0  0  0  0  0  0  0  0  0
    2.1599    3.5577   31.5839 O   0  0  0  0  0  0  0  0  0  0  0  0
    0.1049    5.0258   31.3258 O   0  5  0  0  0  0  0  0  0  0  0  0
    0.0695    2.6296   30.5236 O   0  0  0  0  0  0  0  0  0  0  0  0
  1  3  1  6  0  0  0
  1 21  1  0  0  0  0
  1 22  1  0  0  0  0
  1 23  2  0  0  0  0
  2  3  1  0  0  0  0
  4  2  1  1  0  0  0
  4  5  1  0  0  0  0
  4  6  1  0  0  0  0
  6  7  1  6  0  0  0
  6  8  1  0  0  0  0
  8  9  1  0  0  0  0
  9  5  1  1  0  0  0
  9 20  1  0  0  0  0
 10 11  1  0  0  0  0
 10 16  1  0  0  0  0
 11 12  1  6  0  0  0
 11 13  1  0  0  0  0
 14 13  1  1  0  0  0
 14 15  1  0  0  0  0
 14 20  1  0  0  0  0
 15 16  1  6  0  0  0
 15 18  1  0  0  0  0
 16 17  2  0  0  0  0
 18 19  1  0  0  0  0
 20 19  1  6  0  0  0
M  CHG  1  22  -1
M  END
>  <CHROM.1>
-60.53814661,174.47553170,-179.92010459,68.33575743,3.92068435,5.81369770
29.31471682,-2.96677058,-0.58982740,-1.44880421

>  <Name>
ligand

>  <RI>
0

>  <Rbt.Current_Directory>
/home/itssahil/PROJECTS/Mol_Feturizer/Test_systems_manuscript/rnas/3slm

>  <Rbt.Executable>
rbdock ($Id: //depot/dev/client3/rdock/2013.1/src/exe/rbdock.cxx#4 $)

>  <Rbt.Library>
libRbt.so (2013.1, Build901 2013/11/27)

>  <Rbt.Parameter_File>
/export/apps/rDock/src/rDock_2013.1_src/data/scripts/dock_solv.prm

>  <Rbt.Receptor>
prm/blind_docking_100.prm

>  <SCORE>
-22.3316

>  <SCORE.INTER>
-16.6425

>  <SCORE.INTER.CONST>
1

>  <SCORE.INTER.POLAR>
0

>  <SCORE.INTER.ROT>
4

>  <SCORE.INTER.SOLV>
10.0256

>  <SCORE.INTER.VDW>
-20.7035

>  <SCORE.INTER.norm>
-0.723585

>  <SCORE.INTRA>
-5.68913

>  <SCORE.INTRA.DIHEDRAL>
-7.29443

>  <SCORE.INTRA.DIHEDRAL.0>
8.62657

>  <SCORE.INTRA.POLAR>
0

>  <SCORE.INTRA.POLAR.0>
0

>  <SCORE.INTRA.REPUL>
0

>  <SCORE.INTRA.REPUL.0>
0

>  <SCORE.INTRA.SOLV>
0.623224

>  <SCORE.INTRA.SOLV.lig_0>
-66.3641

>  <SCORE.INTRA.VDW>
-2.35353

>  <SCORE.INTRA.VDW.0>
0.452231

>  <SCORE.INTRA.norm>
-0.247354

>  <SCORE.RESTR>
0

>  <SCORE.RESTR.CAVITY>
0

>  <SCORE.RESTR.norm>
0

>  <SCORE.SYSTEM>
0

>  <SCORE.SYSTEM.CONST>
0

>  <SCORE.SYSTEM.DIHEDRAL>
0

>  <SCORE.SYSTEM.SOLV>
0

>  <SCORE.SYSTEM.norm>
0

>  <SCORE.heavy>
23

>  <SCORE.norm>
-0.970938

>  <RMSD>
18.044

$$$$
ligand
 OpenBabel02271912143D
libRbt.so/2013.1/901 2013/11/27
 23 25  0  0  0  0  0  0  0  0999 V2000
    0.7927    3.8713   30.8580 P   0  0  1  0  0  0  0  0  0  0  0  0
    2.1631    5.3642   29.2002 C   0  0  0  0  0  0  0  0  0  0  0  0
    1.3149    4.2388   29.3814 O   0  0  0  0  0  0  0  0  0  0  0  0
    2.3791    5.5308   27.7128 C   0  0  1  0  0  0  0  0  0  0  0  0
    3.0571    6.7475   27.4017 O   0  0  0  0  0  0  0  0  0  0  0  0
    3.2285    4.3800   27.2004 C   0  0  1  0  0  0  0  0  0  0  0  0
    2.6081    3.8604   26.0116 O   0  0  0  0  0  0  0  0  0  0  0  0
    4.5967    4.9868   26.9159 C   0  0  0  0  0  0  0  0  0  0  0  0
    4.3248    6.4831   26.7867 C   0  0  2  0  0  0  0  0  0  0  0  0
    6.7766    7.0000   31.2871 N   0  0  0  0  0  0  0  0  0  0  0  0
    5.8362    6.1001   30.9561 C   0  0  2  0  0  0  0  0  0  0  0  0
    5.4701    5.1952   31.8936 N   0  0  0  0  0  0  0  0  0  0  0  0
    5.2800    6.0932   29.7207 N   0  0  0  0  0  0  0  0  0  0  0  0
    5.6732    7.0042   28.8069 C   0  0  2  0  0  0  0  0  0  0  0  0
    6.6356    7.9357   29.1314 C   0  0  1  0  0  0  0  0  0  0  0  0
    7.1936    7.9173   30.3956 C   0  0  0  0  0  0  0  0  0  0  0  0
    8.0726    8.7494   30.7076 O   0  0  0  0  0  0  0  0  0  0  0  0
    6.8360    8.7222   28.0556 N   0  0  0  0  0  0  0  0  0  0  0  0
    6.0199    8.2831   27.0811 C   0  0  0  0  0  0  0  0  0  0  0  0
    5.3138    7.2495   27.5520 N   0  0  1  0  0  0  0  0  0  0  0  0
   -0.0669    2.6375   30.7277 O   0  0  0  0  0  0  0  0  0  0  0  0
    2.0619    3.6659   31.6525 O   0  5  0  0  0  0  0  0  0  0  0  0
    0.0212    5.1018   31.2518 O   0  0  0  0  0  0  0  0  0  0  0  0
  1  3  1  6  0  0  0
  1 21  1  0  0  0  0
  1 22  1  0  0  0  0
  1 23  2  0  0  0  0
  2  3  1  0  0  0  0
  4  2  1  1  0  0  0
  4  5  1  0  0  0  0
  4  6  1  0  0  0  0
  6  7  1  6  0  0  0
  6  8  1  0  0  0  0
  8  9  1  0  0  0  0
  9  5  1  1  0  0  0
  9 20  1  0  0  0  0
 10 11  1  0  0  0  0
 10 16  1  0  0  0  0
 11 12  1  6  0  0  0
 11 13  1  0  0  0  0
 14 13  1  1  0  0  0
 14 15  1  0  0  0  0
 14 20  1  0  0  0  0
 15 16  1  6  0  0  0
 15 18  1  0  0  0  0
 16 17  2  0  0  0  0
 18 19  1  0  0  0  0
 20 19  1  6  0  0  0
M  CHG  1  22  -1
M  END
>  <CHROM.1>
-179.57870418,171.42330237,-174.82878444,68.14114158,3.86305343,5.77859080
29.27601206,-2.95268528,-0.58331700,-1.47356349

>  <Name>
ligand

>  <RI>
0

>  <Rbt.Current_Directory>
/home/itssahil/PROJECTS/Mol_Feturizer/Test_systems_manuscript/rnas/3slm

>  <Rbt.Executable>
rbdock ($Id: //depot/dev/client3/rdock/2013.1/src/exe/rbdock.cxx#4 $)

>  <Rbt.Library>
libRbt.so (2013.1, Build901 2013/11/27)

>  <Rbt.Parameter_File>
/export/apps/rDock/src/rDock_2013.1_src/data/scripts/dock_solv.prm

>  <Rbt.Receptor>
prm/blind_docking_60.prm

>  <SCORE>
-22.5942

>  <SCORE.INTER>
-17.7662

>  <SCORE.INTER.CONST>
1

>  <SCORE.INTER.POLAR>
0

>  <SCORE.INTER.ROT>
4

>  <SCORE.INTER.SOLV>
8.21614

>  <SCORE.INTER.VDW>
-20.8495

>  <SCORE.INTER.norm>
-0.772445

>  <SCORE.INTRA>
-4.82793

>  <SCORE.INTRA.DIHEDRAL>
-7.01087

>  <SCORE.INTRA.DIHEDRAL.0>
8.62657

>  <SCORE.INTRA.POLAR>
0

>  <SCORE.INTRA.POLAR.0>
0

>  <SCORE.INTRA.REPUL>
0

>  <SCORE.INTRA.REPUL.0>
0

>  <SCORE.INTRA.SOLV>
1.76338

>  <SCORE.INTRA.SOLV.lig_0>
-66.3641

>  <SCORE.INTRA.VDW>
-2.20418

>  <SCORE.INTRA.VDW.0>
0.452231

>  <SCORE.INTRA.norm>
-0.20991

>  <SCORE.RESTR>
0

>  <SCORE.RESTR.CAVITY>
0

>  <SCORE.RESTR.norm>
0

>  <SCORE.SYSTEM>
0

>  <SCORE.SYSTEM.CONST>
0

>  <SCORE.SYSTEM.DIHEDRAL>
0

>  <SCORE.SYSTEM.SOLV>
0

>  <SCORE.SYSTEM.norm>
0

>  <SCORE.heavy>
23

>  <SCORE.norm>
-0.982355

>  <RMSD>
18.084

$$$$
ligand
 OpenBabel02271912143D
libRbt.so/2013.1/901 2013/11/27
 23 25  0  0  0  0  0  0  0  0999 V2000
    0.7749    3.9232   30.9117 P   0  0  1  0  0  0  0  0  0  0  0  0
    2.1771    5.4198   29.2840 C   0  0  0  0  0  0  0  0  0  0  0  0
    1.3035    4.3105   29.4424 O   0  0  0  0  0  0  0  0  0  0  0  0
    2.4146    5.5982   27.8014 C   0  0  1  0  0  0  0  0  0  0  0  0
    3.1099    6.8104   27.5110 O   0  0  0  0  0  0  0  0  0  0  0  0
    3.2584    4.4431   27.2891 C   0  0  1  0  0  0  0  0  0  0  0  0
    2.6483    3.9417   26.0873 O   0  0  0  0  0  0  0  0  0  0  0  0
    4.6368    5.0376   27.0286 C   0  0  0  0  0  0  0  0  0  0  0  0
    4.3828    6.5380   26.9103 C   0  0  2  0  0  0  0  0  0  0  0  0
    6.8043    6.9645   31.4365 N   0  0  0  0  0  0  0  0  0  0  0  0
    5.8622    6.0750   31.0831 C   0  0  2  0  0  0  0  0  0  0  0  0
    5.4852    5.1555   32.0018 N   0  0  0  0  0  0  0  0  0  0  0  0
    5.3149    6.0923   29.8438 N   0  0  0  0  0  0  0  0  0  0  0  0
    5.7189    7.0173   28.9489 C   0  0  2  0  0  0  0  0  0  0  0  0
    6.6832    7.9384   29.2966 C   0  0  1  0  0  0  0  0  0  0  0  0
    7.2319    7.8952   30.5642 C   0  0  0  0  0  0  0  0  0  0  0  0
    8.1124    8.7176   30.8971 O   0  0  0  0  0  0  0  0  0  0  0  0
    6.8949    8.7427   28.2362 N   0  0  0  0  0  0  0  0  0  0  0  0
    6.0839    8.3246   27.2484 C   0  0  0  0  0  0  0  0  0  0  0  0
    5.3696    7.2862   27.6959 N   0  0  1  0  0  0  0  0  0  0  0  0
   -0.1518    2.7429   30.7502 O   0  0  0  0  0  0  0  0  0  0  0  0
    2.0378    3.6232   31.6857 O   0  5  0  0  0  0  0  0  0  0  0  0
    0.0751    5.1801   31.3534 O   0  0  0  0  0  0  0  0  0  0  0  0
  1  3  1  6  0  0  0
  1 21  1  0  0  0  0
  1 22  1  0  0  0  0
  1 23  2  0  0  0  0
  2  3  1  0  0  0  0
  4  2  1  1  0  0  0
  4  5  1  0  0  0  0
  4  6  1  0  0  0  0
  6  7  1  6  0  0  0
  6  8  1  0  0  0  0
  8  9  1  0  0  0  0
  9  5  1  1  0  0  0
  9 20  1  0  0  0  0
 10 11  1  0  0  0  0
 10 16  1  0  0  0  0
 11 12  1  6  0  0  0
 11 13  1  0  0  0  0
 14 13  1  1  0  0  0
 14 15  1  0  0  0  0
 14 20  1  0  0  0  0
 15 16  1  6  0  0  0
 15 18  1  0  0  0  0
 16 17  2  0  0  0  0
 18 19  1  0  0  0  0
 20 19  1  6  0  0  0
M  CHG  1  22  -1
M  END
>  <CHROM.1>
178.45447035,170.83749169,-175.82277112,68.81559129,3.88723528,5.80968864
29.38462317,-2.96586626,-0.57168374,-1.46649158

>  <Name>
ligand

>  <RI>
0

>  <Rbt.Current_Directory>
/home/itssahil/PROJECTS/Mol_Feturizer/Test_systems_manuscript/rnas/3slm

>  <Rbt.Executable>
rbdock ($Id: //depot/dev/client3/rdock/2013.1/src/exe/rbdock.cxx#4 $)

>  <Rbt.Library>
libRbt.so (2013.1, Build901 2013/11/27)

>  <Rbt.Parameter_File>
/export/apps/rDock/src/rDock_2013.1_src/data/scripts/dock_solv.prm

>  <Rbt.Receptor>
prm/blind_docking_80.prm

>  <SCORE>
-22.5763

>  <SCORE.INTER>
-17.7267

>  <SCORE.INTER.CONST>
1

>  <SCORE.INTER.POLAR>
0

>  <SCORE.INTER.ROT>
4

>  <SCORE.INTER.SOLV>
8.24827

>  <SCORE.INTER.VDW>
-20.8339

>  <SCORE.INTER.norm>
-0.770727

>  <SCORE.INTRA>
-4.84956

>  <SCORE.INTRA.DIHEDRAL>
-7.01799

>  <SCORE.INTRA.DIHEDRAL.0>
8.62657

>  <SCORE.INTRA.POLAR>
0

>  <SCORE.INTRA.POLAR.0>
0

>  <SCORE.INTRA.REPUL>
0

>  <SCORE.INTRA.REPUL.0>
0

>  <SCORE.INTRA.SOLV>
1.68455

>  <SCORE.INTRA.SOLV.lig_0>
-66.3641

>  <SCORE.INTRA.VDW>
-2.18284

>  <SCORE.INTRA.VDW.0>
0.452231

>  <SCORE.INTRA.norm>
-0.210851

>  <SCORE.RESTR>
0

>  <SCORE.RESTR.CAVITY>
0

>  <SCORE.RESTR.norm>
0

>  <SCORE.SYSTEM>
0

>  <SCORE.SYSTEM.CONST>
0

>  <SCORE.SYSTEM.DIHEDRAL>
0

>  <SCORE.SYSTEM.SOLV>
0

>  <SCORE.SYSTEM.norm>
0

>  <SCORE.heavy>
23

>  <SCORE.norm>
-0.981578

>  <RMSD>
18.084

$$$$
ligand
 OpenBabel02271912143D
libRbt.so/2013.1/901 2013/11/27
 23 25  0  0  0  0  0  0  0  0999 V2000
    0.7337    5.1575   31.4264 P   0  0  1  0  0  0  0  0  0  0  0  0
    2.5041    5.1640   29.4975 C   0  0  0  0  0  0  0  0  0  0  0  0
    1.2463    5.6219   29.9739 O   0  0  0  0  0  0  0  0  0  0  0  0
    2.5461    5.4293   28.0094 C   0  0  1  0  0  0  0  0  0  0  0  0
    3.1011    6.7090   27.7077 O   0  0  0  0  0  0  0  0  0  0  0  0
    3.4124    4.3761   27.3395 C   0  0  1  0  0  0  0  0  0  0  0  0
    2.7043    3.8787   26.1908 O   0  0  0  0  0  0  0  0  0  0  0  0
    4.6968    5.0990   26.9537 C   0  0  0  0  0  0  0  0  0  0  0  0
    4.3102    6.5756   26.9489 C   0  0  2  0  0  0  0  0  0  0  0  0
    7.1336    7.0671   31.2289 N   0  0  0  0  0  0  0  0  0  0  0  0
    6.2186    6.1257   30.9452 C   0  0  2  0  0  0  0  0  0  0  0  0
    5.9918    5.1657   31.8717 N   0  0  0  0  0  0  0  0  0  0  0  0
    5.5521    6.1324   29.7656 N   0  0  0  0  0  0  0  0  0  0  0  0
    5.8077    7.0993   28.8604 C   0  0  2  0  0  0  0  0  0  0  0  0
    6.7422    8.0737   29.1371 C   0  0  1  0  0  0  0  0  0  0  0  0
    7.4145    8.0407   30.3440 C   0  0  0  0  0  0  0  0  0  0  0  0
    8.2704    8.9114   30.6115 O   0  0  0  0  0  0  0  0  0  0  0  0
    6.7982    8.9110   28.0826 N   0  0  0  0  0  0  0  0  0  0  0  0
    5.9216    8.4612   27.1673 C   0  0  0  0  0  0  0  0  0  0  0  0
    5.3209    7.3701   27.6546 N   0  0  1  0  0  0  0  0  0  0  0  0
    0.6526    3.6505   31.4047 O   0  0  0  0  0  0  0  0  0  0  0  0
    1.7722    5.7126   32.3738 O   0  5  0  0  0  0  0  0  0  0  0  0
   -0.6085    5.8295   31.5339 O   0  0  0  0  0  0  0  0  0  0  0  0
  1  3  1  6  0  0  0
  1 21  1  0  0  0  0
  1 22  1  0  0  0  0
  1 23  2  0  0  0  0
  2  3  1  0  0  0  0
  4  2  1  1  0  0  0
  4  5  1  0  0  0  0
  4  6  1  0  0  0  0
  6  7  1  6  0  0  0
  6  8  1  0  0  0  0
  8  9  1  0  0  0  0
  9  5  1  1  0  0  0
  9 20  1  0  0  0  0
 10 11  1  0  0  0  0
 10 16  1  0  0  0  0
 11 12  1  6  0  0  0
 11 13  1  0  0  0  0
 14 13  1  1  0  0  0
 14 15  1  0  0  0  0
 14 20  1  0  0  0  0
 15 16  1  6  0  0  0
 15 18  1  0  0  0  0
 16 17  2  0  0  0  0
 18 19  1  0  0  0  0
 20 19  1  6  0  0  0
M  CHG  1  22  -1
M  END
>  <CHROM.1>
-59.48292462,90.91561042,164.63211520,66.51869848,3.96445837,6.17712905,29.49647342
-2.95986828,-0.46347600,-1.66174821

>  <Name>
ligand

>  <RI>
0

>  <Rbt.Current_Directory>
/home/itssahil/PROJECTS/Mol_Feturizer/Test_systems_manuscript/rnas/3slm

>  <Rbt.Executable>
rbdock ($Id: //depot/dev/client3/rdock/2013.1/src/exe/rbdock.cxx#4 $)

>  <Rbt.Library>
libRbt.so (2013.1, Build901 2013/11/27)

>  <Rbt.Parameter_File>
/export/apps/rDock/src/rDock_2013.1_src/data/scripts/dock_solv.prm

>  <Rbt.Receptor>
prm/blind_docking_80.prm

>  <SCORE>
-20.0417

>  <SCORE.INTER>
-15.902

>  <SCORE.INTER.CONST>
1

>  <SCORE.INTER.POLAR>
0

>  <SCORE.INTER.ROT>
4

>  <SCORE.INTER.SOLV>
12.0854

>  <SCORE.INTER.VDW>
-20.8965

>  <SCORE.INTER.norm>
-0.69139

>  <SCORE.INTRA>
-4.13976

>  <SCORE.INTRA.DIHEDRAL>
-3.53334

>  <SCORE.INTRA.DIHEDRAL.0>
8.62657

>  <SCORE.INTRA.POLAR>
0

>  <SCORE.INTRA.POLAR.0>
0

>  <SCORE.INTRA.REPUL>
0

>  <SCORE.INTRA.REPUL.0>
0

>  <SCORE.INTRA.SOLV>
0.111392

>  <SCORE.INTRA.SOLV.lig_0>
-66.3641

>  <SCORE.INTRA.VDW>
-2.42878

>  <SCORE.INTRA.VDW.0>
0.452231

>  <SCORE.INTRA.norm>
-0.179989

>  <SCORE.RESTR>
0

>  <SCORE.RESTR.CAVITY>
0

>  <SCORE.RESTR.norm>
0

>  <SCORE.SYSTEM>
0

>  <SCORE.SYSTEM.CONST>
0

>  <SCORE.SYSTEM.DIHEDRAL>
0

>  <SCORE.SYSTEM.SOLV>
0

>  <SCORE.SYSTEM.norm>
0

>  <SCORE.heavy>
23

>  <SCORE.norm>
-0.87138

>  <RMSD>
18.085

$$$$
ligand
 OpenBabel02271912143D
libRbt.so/2013.1/901 2013/11/27
 23 25  0  0  0  0  0  0  0  0999 V2000
    0.8023    3.8597   30.8276 P   0  0  1  0  0  0  0  0  0  0  0  0
    2.1704    5.3965   29.2084 C   0  0  0  0  0  0  0  0  0  0  0  0
    1.2813    4.2981   29.3556 O   0  0  0  0  0  0  0  0  0  0  0  0
    2.4216    5.5775   27.7283 C   0  0  1  0  0  0  0  0  0  0  0  0
    3.1092    6.7958   27.4455 O   0  0  0  0  0  0  0  0  0  0  0  0
    3.2807    4.4300   27.2244 C   0  0  1  0  0  0  0  0  0  0  0  0
    2.6874    3.9237   26.0162 O   0  0  0  0  0  0  0  0  0  0  0  0
    4.6564    5.0366   26.9783 C   0  0  0  0  0  0  0  0  0  0  0  0
    4.3905    6.5348   26.8578 C   0  0  2  0  0  0  0  0  0  0  0  0
    6.7183    7.0167   31.4275 N   0  0  0  0  0  0  0  0  0  0  0  0
    5.7816    6.1245   31.0664 C   0  0  2  0  0  0  0  0  0  0  0  0
    5.3832    5.2183   31.9893 N   0  0  0  0  0  0  0  0  0  0  0  0
    5.2602    6.1264   29.8158 N   0  0  0  0  0  0  0  0  0  0  0  0
    5.6851    7.0385   28.9172 C   0  0  2  0  0  0  0  0  0  0  0  0
    6.6442    7.9620   29.2726 C   0  0  1  0  0  0  0  0  0  0  0  0
    7.1663    7.9346   30.5519 C   0  0  0  0  0  0  0  0  0  0  0  0
    8.0417    8.7595   30.8920 O   0  0  0  0  0  0  0  0  0  0  0  0
    6.8800    8.7516   28.2062 N   0  0  0  0  0  0  0  0  0  0  0  0
    6.0887    8.3220   27.2074 C   0  0  0  0  0  0  0  0  0  0  0  0
    5.3627    7.2913   27.6538 N   0  0  1  0  0  0  0  0  0  0  0  0
    2.0377    3.4415   31.5873 O   0  0  0  0  0  0  0  0  0  0  0  0
    0.1235    5.0951   31.3727 O   0  5  0  0  0  0  0  0  0  0  0  0
   -0.1414    2.7226   30.5434 O   0  0  0  0  0  0  0  0  0  0  0  0
  1  3  1  6  0  0  0
  1 21  1  0  0  0  0
  1 22  1  0  0  0  0
  1 23  2  0  0  0  0
  2  3  1  0  0  0  0
  4  2  1  1  0  0  0
  4  5  1  0  0  0  0
  4  6  1  0  0  0  0
  6  7  1  6  0  0  0
  6  8  1  0  0  0  0
  8  9  1  0  0  0  0
  9  5  1  1  0  0  0
  9 20  1  0  0  0  0
 10 11  1  0  0  0  0
 10 16  1  0  0  0  0
 11 12  1  6  0  0  0
 11 13  1  0  0  0  0
 14 13  1  1  0  0  0
 14 15  1  0  0  0  0
 14 20  1  0  0  0  0
 15 16  1  6  0  0  0
 15 18  1  0  0  0  0
 16 17  2  0  0  0  0
 18 19  1  0  0  0  0
 20 19  1  6  0  0  0
M  CHG  1  22  -1
M  END
>  <CHROM.1>
-62.10328365,169.56254109,-179.28304935,67.63683619,3.87343091,5.79916518
29.33085124,-2.97937045,-0.59094555,-1.47752237

>  <Name>
ligand

>  <RI>
0

>  <Rbt.Current_Directory>
/home/itssahil/PROJECTS/Mol_Feturizer/Test_systems_manuscript/rnas/3slm

>  <Rbt.Executable>
rbdock ($Id: //depot/dev/client3/rdock/2013.1/src/exe/rbdock.cxx#4 $)

>  <Rbt.Library>
libRbt.so (2013.1, Build901 2013/11/27)

>  <Rbt.Parameter_File>
/export/apps/rDock/src/rDock_2013.1_src/data/scripts/dock_solv.prm

>  <Rbt.Receptor>
prm/blind_docking_60.prm

>  <SCORE>
-22.3434

>  <SCORE.INTER>
-16.7358

>  <SCORE.INTER.CONST>
1

>  <SCORE.INTER.POLAR>
0

>  <SCORE.INTER.ROT>
4

>  <SCORE.INTER.SOLV>
10.2187

>  <SCORE.INTER.VDW>
-20.8301

>  <SCORE.INTER.norm>
-0.727642

>  <SCORE.INTRA>
-5.6076

>  <SCORE.INTRA.DIHEDRAL>
-7.01594

>  <SCORE.INTRA.DIHEDRAL.0>
8.62657

>  <SCORE.INTRA.POLAR>
0

>  <SCORE.INTRA.POLAR.0>
0

>  <SCORE.INTRA.REPUL>
0

>  <SCORE.INTRA.REPUL.0>
0

>  <SCORE.INTRA.SOLV>
0.500764

>  <SCORE.INTRA.SOLV.lig_0>
-66.3641

>  <SCORE.INTRA.VDW>
-2.35001

>  <SCORE.INTRA.VDW.0>
0.452231

>  <SCORE.INTRA.norm>
-0.243809

>  <SCORE.RESTR>
0

>  <SCORE.RESTR.CAVITY>
0

>  <SCORE.RESTR.norm>
0

>  <SCORE.SYSTEM>
0

>  <SCORE.SYSTEM.CONST>
0

>  <SCORE.SYSTEM.DIHEDRAL>
0

>  <SCORE.SYSTEM.SOLV>
0

>  <SCORE.SYSTEM.norm>
0

>  <SCORE.heavy>
23

>  <SCORE.norm>
-0.971451

>  <RMSD>
18.087

$$$$
ligand
 OpenBabel02271912143D
libRbt.so/2013.1/901 2013/11/27
 23 25  0  0  0  0  0  0  0  0999 V2000
    0.7781    3.9103   30.8946 P   0  0  1  0  0  0  0  0  0  0  0  0
    2.1594    5.3842   29.2287 C   0  0  0  0  0  0  0  0  0  0  0  0
    1.3250    4.2502   29.4202 O   0  0  0  0  0  0  0  0  0  0  0  0
    2.4064    5.5160   27.7428 C   0  0  1  0  0  0  0  0  0  0  0  0
    3.0840    6.7290   27.4167 O   0  0  0  0  0  0  0  0  0  0  0  0
    3.2733    4.3585   27.2769 C   0  0  1  0  0  0  0  0  0  0  0  0
    2.6816    3.8063   26.0881 O   0  0  0  0  0  0  0  0  0  0  0  0
    4.6438    4.9667   27.0070 C   0  0  0  0  0  0  0  0  0  0  0  0
    4.3662    6.4578   26.8356 C   0  0  2  0  0  0  0  0  0  0  0  0
    6.7561    7.0669   31.3577 N   0  0  0  0  0  0  0  0  0  0  0  0
    5.8338    6.1484   31.0267 C   0  0  2  0  0  0  0  0  0  0  0  0
    5.4707    5.2492   31.9707 N   0  0  0  0  0  0  0  0  0  0  0  0
    5.2924    6.1180   29.7850 N   0  0  0  0  0  0  0  0  0  0  0  0
    5.6823    7.0240   28.8648 C   0  0  2  0  0  0  0  0  0  0  0  0
    6.6262    7.9743   29.1892 C   0  0  1  0  0  0  0  0  0  0  0  0
    7.1694    7.9797   30.4599 C   0  0  0  0  0  0  0  0  0  0  0  0
    8.0316    8.8292   30.7721 O   0  0  0  0  0  0  0  0  0  0  0  0
    6.8272    8.7509   28.1063 N   0  0  0  0  0  0  0  0  0  0  0  0
    6.0296    8.2875   27.1278 C   0  0  0  0  0  0  0  0  0  0  0  0
    5.3340    7.2486   27.6029 N   0  0  1  0  0  0  0  0  0  0  0  0
   -0.0270    2.6384   30.7841 O   0  0  0  0  0  0  0  0  0  0  0  0
    2.0324    3.7840   31.7281 O   0  5  0  0  0  0  0  0  0  0  0  0
   -0.0531    5.1201   31.2261 O   0  0  0  0  0  0  0  0  0  0  0  0
  1  3  1  6  0  0  0
  1 21  1  0  0  0  0
  1 22  1  0  0  0  0
  1 23  2  0  0  0  0
  2  3  1  0  0  0  0
  4  2  1  1  0  0  0
  4  5  1  0  0  0  0
  4  6  1  0  0  0  0
  6  7  1  6  0  0  0
  6  8  1  0  0  0  0
  8  9  1  0  0  0  0
  9  5  1  1  0  0  0
  9 20  1  0  0  0  0
 10 11  1  0  0  0  0
 10 16  1  0  0  0  0
 11 12  1  6  0  0  0
 11 13  1  0  0  0  0
 14 13  1  1  0  0  0
 14 15  1  0  0  0  0
 14 20  1  0  0  0  0
 15 16  1  6  0  0  0
 15 18  1  0  0  0  0
 16 17  2  0  0  0  0
 18 19  1  0  0  0  0
 20 19  1  6  0  0  0
M  CHG  1  22  -1
M  END
>  <CHROM.1>
-177.99154302,172.00148785,-174.97626112,69.19162039,3.86765140,5.80038321
29.32778848,-2.97096057,-0.58900162,-1.49912162

>  <Name>
ligand

>  <RI>
0

>  <Rbt.Current_Directory>
/home/itssahil/PROJECTS/Mol_Feturizer/Test_systems_manuscript/rnas/3slm

>  <Rbt.Executable>
rbdock ($Id: //depot/dev/client3/rdock/2013.1/src/exe/rbdock.cxx#4 $)

>  <Rbt.Library>
libRbt.so (2013.1, Build901 2013/11/27)

>  <Rbt.Parameter_File>
/export/apps/rDock/src/rDock_2013.1_src/data/scripts/dock_solv.prm

>  <Rbt.Receptor>
prm/blind_docking_60.prm

>  <SCORE>
-22.5936

>  <SCORE.INTER>
-17.7696

>  <SCORE.INTER.CONST>
1

>  <SCORE.INTER.POLAR>
0

>  <SCORE.INTER.ROT>
4

>  <SCORE.INTER.SOLV>
8.08537

>  <SCORE.INTER.VDW>
-20.8082

>  <SCORE.INTER.norm>
-0.772591

>  <SCORE.INTRA>
-4.82398

>  <SCORE.INTRA.DIHEDRAL>
-7.03965

>  <SCORE.INTRA.DIHEDRAL.0>
8.62657

>  <SCORE.INTRA.POLAR>
0

>  <SCORE.INTRA.POLAR.0>
0

>  <SCORE.INTRA.REPUL>
0

>  <SCORE.INTRA.REPUL.0>
0

>  <SCORE.INTRA.SOLV>
1.72509

>  <SCORE.INTRA.SOLV.lig_0>
-66.3641

>  <SCORE.INTRA.VDW>
-2.16671

>  <SCORE.INTRA.VDW.0>
0.452231

>  <SCORE.INTRA.norm>
-0.209738

>  <SCORE.RESTR>
0

>  <SCORE.RESTR.CAVITY>
0

>  <SCORE.RESTR.norm>
0

>  <SCORE.SYSTEM>
0

>  <SCORE.SYSTEM.CONST>
0

>  <SCORE.SYSTEM.DIHEDRAL>
0

>  <SCORE.SYSTEM.SOLV>
0

>  <SCORE.SYSTEM.norm>
0

>  <SCORE.heavy>
23

>  <SCORE.norm>
-0.98233

>  <RMSD>
18.092

$$$$
ligand
 OpenBabel02271912143D
libRbt.so/2013.1/901 2013/11/27
 23 25  0  0  0  0  0  0  0  0999 V2000
    0.7669    3.9206   30.9025 P   0  0  1  0  0  0  0  0  0  0  0  0
    2.1415    5.4001   29.2361 C   0  0  0  0  0  0  0  0  0  0  0  0
    1.3065    4.2664   29.4269 O   0  0  0  0  0  0  0  0  0  0  0  0
    2.3722    5.5444   27.7486 C   0  0  1  0  0  0  0  0  0  0  0  0
    3.0667    6.7492   27.4275 O   0  0  0  0  0  0  0  0  0  0  0  0
    3.2130    4.3775   27.2590 C   0  0  1  0  0  0  0  0  0  0  0  0
    2.5971    3.8491   26.0717 O   0  0  0  0  0  0  0  0  0  0  0  0
    4.5905    4.9650   26.9786 C   0  0  0  0  0  0  0  0  0  0  0  0
    4.3366    6.4625   26.8273 C   0  0  2  0  0  0  0  0  0  0  0  0
    6.7644    7.0035   31.3379 N   0  0  0  0  0  0  0  0  0  0  0  0
    5.8181    6.1086   31.0100 C   0  0  2  0  0  0  0  0  0  0  0  0
    5.4380    5.2166   31.9542 N   0  0  0  0  0  0  0  0  0  0  0  0
    5.2697    6.0940   29.7711 N   0  0  0  0  0  0  0  0  0  0  0  0
    5.6768    6.9922   28.8507 C   0  0  2  0  0  0  0  0  0  0  0  0
    6.6454    7.9184   29.1720 C   0  0  1  0  0  0  0  0  0  0  0  0
    7.1951    7.9079   30.4398 C   0  0  0  0  0  0  0  0  0  0  0  0
    8.0795    8.7354   30.7491 O   0  0  0  0  0  0  0  0  0  0  0  0
    6.8596    8.6921   28.0895 N   0  0  0  0  0  0  0  0  0  0  0  0
    6.0458    8.2504   27.1143 C   0  0  0  0  0  0  0  0  0  0  0  0
    5.3275    7.2279   27.5911 N   0  0  1  0  0  0  0  0  0  0  0  0
   -0.0847    2.6804   30.7815 O   0  0  0  0  0  0  0  0  0  0  0  0
    2.0266    3.7352   31.7168 O   0  5  0  0  0  0  0  0  0  0  0  0
   -0.0159    5.1534   31.2657 O   0  0  0  0  0  0  0  0  0  0  0  0
  1  3  1  6  0  0  0
  1 21  1  0  0  0  0
  1 22  1  0  0  0  0
  1 23  2  0  0  0  0
  2  3  1  0  0  0  0
  4  2  1  1  0  0  0
  4  5  1  0  0  0  0
  4  6  1  0  0  0  0
  6  7  1  6  0  0  0
  6  8  1  0  0  0  0
  8  9  1  0  0  0  0
  9  5  1  1  0  0  0
  9 20  1  0  0  0  0
 10 11  1  0  0  0  0
 10 16  1  0  0  0  0
 11 12  1  6  0  0  0
 11 13  1  0  0  0  0
 14 13  1  1  0  0  0
 14 15  1  0  0  0  0
 14 20  1  0  0  0  0
 15 16  1  6  0  0  0
 15 18  1  0  0  0  0
 16 17  2  0  0  0  0
 18 19  1  0  0  0  0
 20 19  1  6  0  0  0
M  CHG  1  22  -1
M  END
>  <CHROM.1>
179.85565893,172.87106481,-174.55096546,68.40363192,3.85484953,5.78789900
29.32091044,-2.95982541,-0.57567877,-1.48554442

>  <Name>
ligand

>  <RI>
0

>  <Rbt.Current_Directory>
/home/itssahil/PROJECTS/Mol_Feturizer/Test_systems_manuscript/rnas/3slm

>  <Rbt.Executable>
rbdock ($Id: //depot/dev/client3/rdock/2013.1/src/exe/rbdock.cxx#4 $)

>  <Rbt.Library>
libRbt.so (2013.1, Build901 2013/11/27)

>  <Rbt.Parameter_File>
/export/apps/rDock/src/rDock_2013.1_src/data/scripts/dock_solv.prm

>  <Rbt.Receptor>
prm/blind_docking_80.prm

>  <SCORE>
-22.6256

>  <SCORE.INTER>
-17.7978

>  <SCORE.INTER.CONST>
1

>  <SCORE.INTER.POLAR>
0

>  <SCORE.INTER.ROT>
4

>  <SCORE.INTER.SOLV>
8.26048

>  <SCORE.INTER.VDW>
-20.8854

>  <SCORE.INTER.norm>
-0.773817

>  <SCORE.INTRA>
-4.82776

>  <SCORE.INTRA.DIHEDRAL>
-7.07669

>  <SCORE.INTRA.DIHEDRAL.0>
8.62657

>  <SCORE.INTRA.POLAR>
0

>  <SCORE.INTRA.POLAR.0>
0

>  <SCORE.INTRA.REPUL>
0

>  <SCORE.INTRA.REPUL.0>
0

>  <SCORE.INTRA.SOLV>
1.78431

>  <SCORE.INTRA.SOLV.lig_0>
-66.3641

>  <SCORE.INTRA.VDW>
-2.18157

>  <SCORE.INTRA.VDW.0>
0.452231

>  <SCORE.INTRA.norm>
-0.209903

>  <SCORE.RESTR>
0

>  <SCORE.RESTR.CAVITY>
0

>  <SCORE.RESTR.norm>
0

>  <SCORE.SYSTEM>
0

>  <SCORE.SYSTEM.CONST>
0

>  <SCORE.SYSTEM.DIHEDRAL>
0

>  <SCORE.SYSTEM.SOLV>
0

>  <SCORE.SYSTEM.norm>
0

>  <SCORE.heavy>
23

>  <SCORE.norm>
-0.98372

>  <RMSD>
18.097

$$$$
ligand
 OpenBabel02271912143D
libRbt.so/2013.1/901 2013/11/27
 23 25  0  0  0  0  0  0  0  0999 V2000
    0.2126    4.8345   29.6905 P   0  0  1  0  0  0  0  0  0  0  0  0
    2.6400    5.8155   29.7112 C   0  0  0  0  0  0  0  0  0  0  0  0
    1.7927    4.7031   29.9630 O   0  0  0  0  0  0  0  0  0  0  0  0
    2.7510    5.9668   28.2108 C   0  0  1  0  0  0  0  0  0  0  0  0
    3.3916    7.1871   27.8401 O   0  0  0  0  0  0  0  0  0  0  0  0
    3.5767    4.8194   27.6538 C   0  0  1  0  0  0  0  0  0  0  0  0
    2.8821    4.2788   26.5165 O   0  0  0  0  0  0  0  0  0  0  0  0
    4.9148    5.4378   27.2688 C   0  0  0  0  0  0  0  0  0  0  0  0
    4.6170    6.9294   27.1421 C   0  0  2  0  0  0  0  0  0  0  0  0
    7.5724    7.3602   31.3388 N   0  0  0  0  0  0  0  0  0  0  0  0
    6.6517    6.4205   31.0684 C   0  0  2  0  0  0  0  0  0  0  0  0
    6.4569    5.4446   31.9856 N   0  0  0  0  0  0  0  0  0  0  0  0
    5.9483    6.4443   29.9106 N   0  0  0  0  0  0  0  0  0  0  0  0
    6.1725    7.4268   29.0139 C   0  0  2  0  0  0  0  0  0  0  0  0
    7.1124    8.3997   29.2772 C   0  0  1  0  0  0  0  0  0  0  0  0
    7.8224    8.3492   30.4616 C   0  0  0  0  0  0  0  0  0  0  0  0
    8.6839    9.2183   30.7165 O   0  0  0  0  0  0  0  0  0  0  0  0
    7.1327    9.2544   28.2354 N   0  0  0  0  0  0  0  0  0  0  0  0
    6.2290    8.8167   27.3409 C   0  0  0  0  0  0  0  0  0  0  0  0
    5.6471    7.7157   27.8287 N   0  0  1  0  0  0  0  0  0  0  0  0
    0.0438    5.1806   28.2311 O   0  0  0  0  0  0  0  0  0  0  0  0
   -0.3376    3.4812   30.0781 O   0  5  0  0  0  0  0  0  0  0  0  0
   -0.1925    5.9450   30.6218 O   0  0  0  0  0  0  0  0  0  0  0  0
  1  3  1  1  0  0  0
  1 21  1  0  0  0  0
  1 22  1  0  0  0  0
  1 23  2  0  0  0  0
  2  3  1  0  0  0  0
  4  2  1  1  0  0  0
  4  5  1  0  0  0  0
  4  6  1  0  0  0  0
  6  7  1  6  0  0  0
  6  8  1  0  0  0  0
  8  9  1  0  0  0  0
  9  5  1  1  0  0  0
  9 20  1  0  0  0  0
 10 11  1  0  0  0  0
 10 16  1  0  0  0  0
 11 12  1  6  0  0  0
 11 13  1  0  0  0  0
 14 13  1  1  0  0  0
 14 15  1  0  0  0  0
 14 20  1  0  0  0  0
 15 16  1  6  0  0  0
 15 18  1  0  0  0  0
 16 17  2  0  0  0  0
 18 19  1  0  0  0  0
 20 19  1  6  0  0  0
M  CHG  1  22  -1
M  END
>  <CHROM.1>
59.06905762,170.00300667,-72.44790656,73.91253052,4.06359148,6.34629148,29.16683190
-3.13099000,-0.46307761,-1.40401036

>  <Name>
ligand

>  <RI>
0

>  <Rbt.Current_Directory>
/home/itssahil/PROJECTS/Mol_Feturizer/Test_systems_manuscript/rnas/3slm

>  <Rbt.Executable>
rbdock ($Id: //depot/dev/client3/rdock/2013.1/src/exe/rbdock.cxx#4 $)

>  <Rbt.Library>
libRbt.so (2013.1, Build901 2013/11/27)

>  <Rbt.Parameter_File>
/export/apps/rDock/src/rDock_2013.1_src/data/scripts/dock_solv.prm

>  <Rbt.Receptor>
prm/blind_docking_40.prm

>  <SCORE>
-23.2106

>  <SCORE.INTER>
-18.4618

>  <SCORE.INTER.CONST>
1

>  <SCORE.INTER.POLAR>
0

>  <SCORE.INTER.ROT>
4

>  <SCORE.INTER.SOLV>
16.1057

>  <SCORE.INTER.VDW>
-23.9431

>  <SCORE.INTER.norm>
-0.802688

>  <SCORE.INTRA>
-4.74876

>  <SCORE.INTRA.DIHEDRAL>
-6.29861

>  <SCORE.INTRA.DIHEDRAL.0>
8.62657

>  <SCORE.INTRA.POLAR>
0

>  <SCORE.INTRA.POLAR.0>
0

>  <SCORE.INTRA.REPUL>
0

>  <SCORE.INTRA.REPUL.0>
0

>  <SCORE.INTRA.SOLV>
0.874534

>  <SCORE.INTRA.SOLV.lig_0>
-66.3641

>  <SCORE.INTRA.VDW>
-2.03673

>  <SCORE.INTRA.VDW.0>
0.452231

>  <SCORE.INTRA.norm>
-0.206468

>  <SCORE.RESTR>
0

>  <SCORE.RESTR.CAVITY>
0

>  <SCORE.RESTR.norm>
0

>  <SCORE.SYSTEM>
0

>  <SCORE.SYSTEM.CONST>
0

>  <SCORE.SYSTEM.DIHEDRAL>
0

>  <SCORE.SYSTEM.SOLV>
0

>  <SCORE.SYSTEM.norm>
0

>  <SCORE.heavy>
23

>  <SCORE.norm>
-1.00916

>  <RMSD>
18.100

$$$$
ligand
 OpenBabel02271912143D
libRbt.so/2013.1/901 2013/11/27
 23 25  0  0  0  0  0  0  0  0999 V2000
    0.2014    4.8406   29.6624 P   0  0  1  0  0  0  0  0  0  0  0  0
    2.6172    5.8489   29.7102 C   0  0  0  0  0  0  0  0  0  0  0  0
    1.7778    4.7310   29.9642 O   0  0  0  0  0  0  0  0  0  0  0  0
    2.7359    5.9914   28.2095 C   0  0  1  0  0  0  0  0  0  0  0  0
    3.3882    7.2045   27.8353 O   0  0  0  0  0  0  0  0  0  0  0  0
    3.5545    4.8344   27.6620 C   0  0  1  0  0  0  0  0  0  0  0  0
    2.8603    4.2937   26.5245 O   0  0  0  0  0  0  0  0  0  0  0  0
    4.8993    5.4397   27.2796 C   0  0  0  0  0  0  0  0  0  0  0  0
    4.6144    6.9331   27.1439 C   0  0  2  0  0  0  0  0  0  0  0  0
    7.5775    7.3440   31.3372 N   0  0  0  0  0  0  0  0  0  0  0  0
    6.6534    6.4079   31.0659 C   0  0  2  0  0  0  0  0  0  0  0  0
    6.4570    5.4303   31.9809 N   0  0  0  0  0  0  0  0  0  0  0  0
    5.9484    6.4368   29.9092 N   0  0  0  0  0  0  0  0  0  0  0  0
    6.1743    7.4209   29.0146 C   0  0  2  0  0  0  0  0  0  0  0  0
    7.1176    8.3901   29.2789 C   0  0  1  0  0  0  0  0  0  0  0  0
    7.8293    8.3344   30.4622 C   0  0  0  0  0  0  0  0  0  0  0  0
    8.6939    9.2002   30.7179 O   0  0  0  0  0  0  0  0  0  0  0  0
    7.1390    9.2474   28.2393 N   0  0  0  0  0  0  0  0  0  0  0  0
    6.2326    8.8148   27.3450 C   0  0  0  0  0  0  0  0  0  0  0  0
    5.6480    7.7144   27.8309 N   0  0  1  0  0  0  0  0  0  0  0  0
    0.0564    5.2566   28.2187 O   0  0  0  0  0  0  0  0  0  0  0  0
   -0.3250    3.4573   29.9687 O   0  5  0  0  0  0  0  0  0  0  0  0
   -0.2499    5.8929   30.6387 O   0  0  0  0  0  0  0  0  0  0  0  0
  1  3  1  1  0  0  0
  1 21  1  0  0  0  0
  1 22  1  0  0  0  0
  1 23  2  0  0  0  0
  2  3  1  0  0  0  0
  4  2  1  1  0  0  0
  4  5  1  0  0  0  0
  4  6  1  0  0  0  0
  6  7  1  6  0  0  0
  6  8  1  0  0  0  0
  8  9  1  0  0  0  0
  9  5  1  1  0  0  0
  9 20  1  0  0  0  0
 10 11  1  0  0  0  0
 10 16  1  0  0  0  0
 11 12  1  6  0  0  0
 11 13  1  0  0  0  0
 14 13  1  1  0  0  0
 14 15  1  0  0  0  0
 14 20  1  0  0  0  0
 15 16  1  6  0  0  0
 15 18  1  0  0  0  0
 16 17  2  0  0  0  0
 18 19  1  0  0  0  0
 20 19  1  6  0  0  0
M  CHG  1  22  -1
M  END
>  <CHROM.1>
55.23313477,170.96890178,-71.61253887,74.53957966,4.05773135,6.34844944,29.16043404
-3.13042096,-0.45977166,-1.39320265

>  <Name>
ligand

>  <RI>
0

>  <Rbt.Current_Directory>
/home/itssahil/PROJECTS/Mol_Feturizer/Test_systems_manuscript/rnas/3slm

>  <Rbt.Executable>
rbdock ($Id: //depot/dev/client3/rdock/2013.1/src/exe/rbdock.cxx#4 $)

>  <Rbt.Library>
libRbt.so (2013.1, Build901 2013/11/27)

>  <Rbt.Parameter_File>
/export/apps/rDock/src/rDock_2013.1_src/data/scripts/dock_solv.prm

>  <Rbt.Receptor>
prm/blind_docking_60.prm

>  <SCORE>
-23.2214

>  <SCORE.INTER>
-18.5044

>  <SCORE.INTER.CONST>
1

>  <SCORE.INTER.POLAR>
0

>  <SCORE.INTER.ROT>
4

>  <SCORE.INTER.SOLV>
16.2742

>  <SCORE.INTER.VDW>
-24.0277

>  <SCORE.INTER.norm>
-0.80454

>  <SCORE.INTRA>
-4.71698

>  <SCORE.INTRA.DIHEDRAL>
-6.42436

>  <SCORE.INTRA.DIHEDRAL.0>
8.62657

>  <SCORE.INTRA.POLAR>
0

>  <SCORE.INTRA.POLAR.0>
0

>  <SCORE.INTRA.REPUL>
0

>  <SCORE.INTRA.REPUL.0>
0

>  <SCORE.INTRA.SOLV>
0.856737

>  <SCORE.INTRA.SOLV.lig_0>
-66.3641

>  <SCORE.INTRA.VDW>
-1.93317

>  <SCORE.INTRA.VDW.0>
0.452231

>  <SCORE.INTRA.norm>
-0.205086

>  <SCORE.RESTR>
0

>  <SCORE.RESTR.CAVITY>
0

>  <SCORE.RESTR.norm>
0

>  <SCORE.SYSTEM>
0

>  <SCORE.SYSTEM.CONST>
0

>  <SCORE.SYSTEM.DIHEDRAL>
0

>  <SCORE.SYSTEM.SOLV>
0

>  <SCORE.SYSTEM.norm>
0

>  <SCORE.heavy>
23

>  <SCORE.norm>
-1.00963

>  <RMSD>
18.106

$$$$
ligand
 OpenBabel02271912143D
libRbt.so/2013.1/901 2013/11/27
 23 25  0  0  0  0  0  0  0  0999 V2000
    0.4252    5.1902   29.8585 P   0  0  1  0  0  0  0  0  0  0  0  0
    1.8533    4.2703   31.8509 C   0  0  0  0  0  0  0  0  0  0  0  0
    1.8052    5.0687   30.6765 O   0  0  0  0  0  0  0  0  0  0  0  0
    3.2549    4.3737   32.4088 C   0  0  1  0  0  0  0  0  0  0  0  0
    4.2472    4.2931   31.3861 O   0  0  0  0  0  0  0  0  0  0  0  0
    3.4154    5.7125   33.1090 C   0  0  1  0  0  0  0  0  0  0  0  0
    4.0273    5.4777   34.3890 O   0  0  0  0  0  0  0  0  0  0  0  0
    4.3046    6.5416   32.1907 C   0  0  0  0  0  0  0  0  0  0  0  0
    5.0038    5.5084   31.3113 C   0  0  2  0  0  0  0  0  0  0  0  0
    6.8252    8.7756   27.7701 N   0  0  0  0  0  0  0  0  0  0  0  0
    7.1212    8.7255   29.0792 C   0  0  2  0  0  0  0  0  0  0  0  0
    8.0123    9.6233   29.5602 N   0  0  0  0  0  0  0  0  0  0  0  0
    6.5529    7.7997   29.8889 N   0  0  0  0  0  0  0  0  0  0  0  0
    5.6743    6.9139   29.3759 C   0  0  2  0  0  0  0  0  0  0  0  0
    5.3584    6.9534   28.0351 C   0  0  1  0  0  0  0  0  0  0  0  0
    5.9573    7.9021   27.2282 C   0  0  0  0  0  0  0  0  0  0  0  0
    5.6892    7.9504   26.0083 O   0  0  0  0  0  0  0  0  0  0  0  0
    4.4623    5.9776   27.7876 N   0  0  0  0  0  0  0  0  0  0  0  0
    4.2325    5.3411   28.9497 C   0  0  0  0  0  0  0  0  0  0  0  0
    4.9642    5.9242   29.9055 N   0  0  1  0  0  0  0  0  0  0  0  0
   -0.4803    6.0994   30.6533 O   0  0  0  0  0  0  0  0  0  0  0  0
    0.8447    5.7455   28.5170 O   0  5  0  0  0  0  0  0  0  0  0  0
   -0.0535    3.7646   29.8037 O   0  0  0  0  0  0  0  0  0  0  0  0
  1  3  1  1  0  0  0
  1 21  1  0  0  0  0
  1 22  1  0  0  0  0
  1 23  2  0  0  0  0
  2  3  1  0  0  0  0
  4  2  1  6  0  0  0
  4  5  1  0  0  0  0
  4  6  1  0  0  0  0
  6  7  1  1  0  0  0
  6  8  1  0  0  0  0
  8  9  1  0  0  0  0
  9  5  1  6  0  0  0
  9 20  1  0  0  0  0
 10 11  1  0  0  0  0
 10 16  1  0  0  0  0
 11 12  1  6  0  0  0
 11 13  1  0  0  0  0
 14 13  1  1  0  0  0
 14 15  1  0  0  0  0
 14 20  1  0  0  0  0
 15 16  1  6  0  0  0
 15 18  1  0  0  0  0
 16 17  2  0  0  0  0
 18 19  1  0  0  0  0
 20 19  1  6  0  0  0
M  CHG  1  22  -1
M  END
>  <CHROM.1>
74.66510238,-42.78833550,-178.81456934,-171.38863428,3.76541258,6.15546919
30.01421789,2.60830443,0.41659134,1.85930006

>  <Name>
ligand

>  <RI>
0

>  <Rbt.Current_Directory>
/home/itssahil/PROJECTS/Mol_Feturizer/Test_systems_manuscript/rnas/3slm

>  <Rbt.Executable>
rbdock ($Id: //depot/dev/client3/rdock/2013.1/src/exe/rbdock.cxx#4 $)

>  <Rbt.Library>
libRbt.so (2013.1, Build901 2013/11/27)

>  <Rbt.Parameter_File>
/export/apps/rDock/src/rDock_2013.1_src/data/scripts/dock_solv.prm

>  <Rbt.Receptor>
prm/blind_docking_80.prm

>  <SCORE>
-15.1775

>  <SCORE.INTER>
-10.0029

>  <SCORE.INTER.CONST>
1

>  <SCORE.INTER.POLAR>
0

>  <SCORE.INTER.ROT>
4

>  <SCORE.INTER.SOLV>
18.9883

>  <SCORE.INTER.VDW>
-19.2647

>  <SCORE.INTER.norm>
-0.434907

>  <SCORE.INTRA>
-5.1746

>  <SCORE.INTRA.DIHEDRAL>
-6.03141

>  <SCORE.INTRA.DIHEDRAL.0>
8.62657

>  <SCORE.INTRA.POLAR>
0

>  <SCORE.INTRA.POLAR.0>
0

>  <SCORE.INTRA.REPUL>
0

>  <SCORE.INTRA.REPUL.0>
0

>  <SCORE.INTRA.SOLV>
0.139742

>  <SCORE.INTRA.SOLV.lig_0>
-66.3641

>  <SCORE.INTRA.VDW>
-2.22877

>  <SCORE.INTRA.VDW.0>
0.452231

>  <SCORE.INTRA.norm>
-0.224982

>  <SCORE.RESTR>
0

>  <SCORE.RESTR.CAVITY>
0

>  <SCORE.RESTR.norm>
0

>  <SCORE.SYSTEM>
0

>  <SCORE.SYSTEM.CONST>
0

>  <SCORE.SYSTEM.DIHEDRAL>
0

>  <SCORE.SYSTEM.SOLV>
0

>  <SCORE.SYSTEM.norm>
0

>  <SCORE.heavy>
23

>  <SCORE.norm>
-0.65989

>  <RMSD>
18.106

$$$$
ligand
 OpenBabel02271912143D
libRbt.so/2013.1/901 2013/11/27
 23 25  0  0  0  0  0  0  0  0999 V2000
    0.3380    5.1745   29.9323 P   0  0  1  0  0  0  0  0  0  0  0  0
    2.9054    4.9984   29.4500 C   0  0  0  0  0  0  0  0  0  0  0  0
    1.8577    5.6561   30.1488 O   0  0  0  0  0  0  0  0  0  0  0  0
    2.7757    5.3697   27.9899 C   0  0  1  0  0  0  0  0  0  0  0  0
    3.2159    6.7029   27.7338 O   0  0  0  0  0  0  0  0  0  0  0  0
    3.6311    4.4288   27.1584 C   0  0  1  0  0  0  0  0  0  0  0  0
    2.8395    3.9652   26.0508 O   0  0  0  0  0  0  0  0  0  0  0  0
    4.8211    5.2645   26.7037 C   0  0  0  0  0  0  0  0  0  0  0  0
    4.3453    6.7073   26.8508 C   0  0  2  0  0  0  0  0  0  0  0  0
    7.2631    7.3109   31.0525 N   0  0  0  0  0  0  0  0  0  0  0  0
    6.3403    6.3644   30.8154 C   0  0  2  0  0  0  0  0  0  0  0  0
    6.1321    5.4312   31.7731 N   0  0  0  0  0  0  0  0  0  0  0  0
    5.6480    6.3398   29.6509 N   0  0  0  0  0  0  0  0  0  0  0  0
    5.8855    7.2804   28.7136 C   0  0  2  0  0  0  0  0  0  0  0  0
    6.8278    8.2598   28.9424 C   0  0  1  0  0  0  0  0  0  0  0  0
    7.5264    8.2588   30.1347 C   0  0  0  0  0  0  0  0  0  0  0  0
    8.3897    9.1345   30.3590 O   0  0  0  0  0  0  0  0  0  0  0  0
    6.8621    9.0672   27.8639 N   0  0  0  0  0  0  0  0  0  0  0  0
    5.9648    8.5942   26.9811 C   0  0  0  0  0  0  0  0  0  0  0  0
    5.3729    7.5187   27.5117 N   0  0  1  0  0  0  0  0  0  0  0  0
    0.0388    5.3071   28.4589 O   0  0  0  0  0  0  0  0  0  0  0  0
    0.3301    3.7527   30.4448 O   0  5  0  0  0  0  0  0  0  0  0  0
   -0.4390    6.1348   30.7917 O   0  0  0  0  0  0  0  0  0  0  0  0
  1  3  1  1  0  0  0
  1 21  1  0  0  0  0
  1 22  1  0  0  0  0
  1 23  2  0  0  0  0
  2  3  1  0  0  0  0
  4  2  1  1  0  0  0
  4  5  1  0  0  0  0
  4  6  1  0  0  0  0
  6  7  1  6  0  0  0
  6  8  1  0  0  0  0
  8  9  1  0  0  0  0
  9  5  1  1  0  0  0
  9 20  1  0  0  0  0
 10 11  1  0  0  0  0
 10 16  1  0  0  0  0
 11 12  1  6  0  0  0
 11 13  1  0  0  0  0
 14 13  1  1  0  0  0
 14 15  1  0  0  0  0
 14 20  1  0  0  0  0
 15 16  1  6  0  0  0
 15 18  1  0  0  0  0
 16 17  2  0  0  0  0
 18 19  1  0  0  0  0
 20 19  1  6  0  0  0
M  CHG  1  22  -1
M  END
>  <CHROM.1>
-58.34330562,75.00752114,70.02150487,58.13703032,3.96138047,6.27527939,29.00200256
3.11331671,-0.44651530,-1.63662116

>  <Name>
ligand

>  <RI>
0

>  <Rbt.Current_Directory>
/home/itssahil/PROJECTS/Mol_Feturizer/Test_systems_manuscript/rnas/3slm

>  <Rbt.Executable>
rbdock ($Id: //depot/dev/client3/rdock/2013.1/src/exe/rbdock.cxx#4 $)

>  <Rbt.Library>
libRbt.so (2013.1, Build901 2013/11/27)

>  <Rbt.Parameter_File>
/export/apps/rDock/src/rDock_2013.1_src/data/scripts/dock_solv.prm

>  <Rbt.Receptor>
prm/blind_docking_60.prm

>  <SCORE>
-22.7515

>  <SCORE.INTER>
-17.864

>  <SCORE.INTER.CONST>
1

>  <SCORE.INTER.POLAR>
0

>  <SCORE.INTER.ROT>
4

>  <SCORE.INTER.SOLV>
14.2012

>  <SCORE.INTER.VDW>
-22.9097

>  <SCORE.INTER.norm>
-0.776696

>  <SCORE.INTRA>
-4.88747

>  <SCORE.INTRA.DIHEDRAL>
-6.16526

>  <SCORE.INTRA.DIHEDRAL.0>
8.62657

>  <SCORE.INTRA.POLAR>
0

>  <SCORE.INTRA.POLAR.0>
0

>  <SCORE.INTRA.REPUL>
0

>  <SCORE.INTRA.REPUL.0>
0

>  <SCORE.INTRA.SOLV>
1.24549

>  <SCORE.INTRA.SOLV.lig_0>
-66.3641

>  <SCORE.INTRA.VDW>
-2.42759

>  <SCORE.INTRA.VDW.0>
0.452231

>  <SCORE.INTRA.norm>
-0.212499

>  <SCORE.RESTR>
0

>  <SCORE.RESTR.CAVITY>
0

>  <SCORE.RESTR.norm>
0

>  <SCORE.SYSTEM>
0

>  <SCORE.SYSTEM.CONST>
0

>  <SCORE.SYSTEM.DIHEDRAL>
0

>  <SCORE.SYSTEM.SOLV>
0

>  <SCORE.SYSTEM.norm>
0

>  <SCORE.heavy>
23

>  <SCORE.norm>
-0.989195

>  <RMSD>
18.115

$$$$
ligand
 OpenBabel02271912143D
libRbt.so/2013.1/901 2013/11/27
 23 25  0  0  0  0  0  0  0  0999 V2000
    0.3262    5.1811   29.9374 P   0  0  1  0  0  0  0  0  0  0  0  0
    2.8991    5.0069   29.4842 C   0  0  0  0  0  0  0  0  0  0  0  0
    1.8448    5.6499   30.1871 O   0  0  0  0  0  0  0  0  0  0  0  0
    2.7797    5.4048   28.0303 C   0  0  1  0  0  0  0  0  0  0  0  0
    3.2329    6.7383   27.7997 O   0  0  0  0  0  0  0  0  0  0  0  0
    3.6308    4.4711   27.1864 C   0  0  1  0  0  0  0  0  0  0  0  0
    2.8405    4.0339   26.0672 O   0  0  0  0  0  0  0  0  0  0  0  0
    4.8303    5.3040   26.7520 C   0  0  0  0  0  0  0  0  0  0  0  0
    4.3665    6.7482   26.9222 C   0  0  2  0  0  0  0  0  0  0  0  0
    7.2830    7.2413   31.1392 N   0  0  0  0  0  0  0  0  0  0  0  0
    6.3551    6.3056   30.8801 C   0  0  2  0  0  0  0  0  0  0  0  0
    6.1404    5.3525   31.8166 N   0  0  0  0  0  0  0  0  0  0  0  0
    5.6640    6.3110   29.7147 N   0  0  0  0  0  0  0  0  0  0  0  0
    5.9079    7.2708   28.7988 C   0  0  2  0  0  0  0  0  0  0  0  0
    6.8555    8.2394   29.0503 C   0  0  1  0  0  0  0  0  0  0  0  0
    7.5527    8.2078   30.2430 C   0  0  0  0  0  0  0  0  0  0  0  0
    8.4208    9.0733   30.4875 O   0  0  0  0  0  0  0  0  0  0  0  0
    6.8957    9.0704   27.9900 N   0  0  0  0  0  0  0  0  0  0  0  0
    5.9966    8.6224   27.0960 C   0  0  0  0  0  0  0  0  0  0  0  0
    5.3979    7.5387   27.6020 N   0  0  1  0  0  0  0  0  0  0  0  0
    0.0433    5.3670   28.4665 O   0  0  0  0  0  0  0  0  0  0  0  0
    0.3087    3.7421   30.3988 O   0  5  0  0  0  0  0  0  0  0  0  0
   -0.4572    6.1129   30.8220 O   0  0  0  0  0  0  0  0  0  0  0  0
  1  3  1  1  0  0  0
  1 21  1  0  0  0  0
  1 22  1  0  0  0  0
  1 23  2  0  0  0  0
  2  3  1  0  0  0  0
  4  2  1  1  0  0  0
  4  5  1  0  0  0  0
  4  6  1  0  0  0  0
  6  7  1  6  0  0  0
  6  8  1  0  0  0  0
  8  9  1  0  0  0  0
  9  5  1  1  0  0  0
  9 20  1  0  0  0  0
 10 11  1  0  0  0  0
 10 16  1  0  0  0  0
 11 12  1  6  0  0  0
 11 13  1  0  0  0  0
 14 13  1  1  0  0  0
 14 15  1  0  0  0  0
 14 20  1  0  0  0  0
 15 16  1  6  0  0  0
 15 18  1  0  0  0  0
 16 17  2  0  0  0  0
 18 19  1  0  0  0  0
 20 19  1  6  0  0  0
M  CHG  1  22  -1
M  END
>  <CHROM.1>
-58.82889792,75.64037470,69.31304418,58.52529650,3.96999919,6.27512259,29.05643220
3.10929232,-0.43764023,-1.61377540

>  <Name>
ligand

>  <RI>
0

>  <Rbt.Current_Directory>
/home/itssahil/PROJECTS/Mol_Feturizer/Test_systems_manuscript/rnas/3slm

>  <Rbt.Executable>
rbdock ($Id: //depot/dev/client3/rdock/2013.1/src/exe/rbdock.cxx#4 $)

>  <Rbt.Library>
libRbt.so (2013.1, Build901 2013/11/27)

>  <Rbt.Parameter_File>
/export/apps/rDock/src/rDock_2013.1_src/data/scripts/dock_solv.prm

>  <Rbt.Receptor>
prm/blind_docking_60.prm

>  <SCORE>
-22.7543

>  <SCORE.INTER>
-17.9062

>  <SCORE.INTER.CONST>
1

>  <SCORE.INTER.POLAR>
0

>  <SCORE.INTER.ROT>
4

>  <SCORE.INTER.SOLV>
14.2649

>  <SCORE.INTER.VDW>
-22.9591

>  <SCORE.INTER.norm>
-0.77853

>  <SCORE.INTRA>
-4.84811

>  <SCORE.INTRA.DIHEDRAL>
-6.16897

>  <SCORE.INTRA.DIHEDRAL.0>
8.62657

>  <SCORE.INTRA.POLAR>
0

>  <SCORE.INTRA.POLAR.0>
0

>  <SCORE.INTRA.REPUL>
0

>  <SCORE.INTRA.REPUL.0>
0

>  <SCORE.INTRA.SOLV>
1.26479

>  <SCORE.INTRA.SOLV.lig_0>
-66.3641

>  <SCORE.INTRA.VDW>
-2.39602

>  <SCORE.INTRA.VDW.0>
0.452231

>  <SCORE.INTRA.norm>
-0.210787

>  <SCORE.RESTR>
0

>  <SCORE.RESTR.CAVITY>
0

>  <SCORE.RESTR.norm>
0

>  <SCORE.SYSTEM>
0

>  <SCORE.SYSTEM.CONST>
0

>  <SCORE.SYSTEM.DIHEDRAL>
0

>  <SCORE.SYSTEM.SOLV>
0

>  <SCORE.SYSTEM.norm>
0

>  <SCORE.heavy>
23

>  <SCORE.norm>
-0.989317

>  <RMSD>
18.116

$$$$
ligand
 OpenBabel02271912143D
libRbt.so/2013.1/901 2013/11/27
 23 25  0  0  0  0  0  0  0  0999 V2000
    0.7293    3.9175   30.9449 P   0  0  1  0  0  0  0  0  0  0  0  0
    2.1513    5.3434   29.2715 C   0  0  0  0  0  0  0  0  0  0  0  0
    1.2392    4.2705   29.4604 O   0  0  0  0  0  0  0  0  0  0  0  0
    2.3874    5.4776   27.7840 C   0  0  1  0  0  0  0  0  0  0  0  0
    3.0663    6.6891   27.4552 O   0  0  0  0  0  0  0  0  0  0  0  0
    3.2471    4.3183   27.3091 C   0  0  1  0  0  0  0  0  0  0  0  0
    2.6447    3.7704   26.1238 O   0  0  0  0  0  0  0  0  0  0  0  0
    4.6174    4.9228   27.0301 C   0  0  0  0  0  0  0  0  0  0  0  0
    4.3432    6.4151   26.8638 C   0  0  2  0  0  0  0  0  0  0  0  0
    6.7192    7.0494   31.3898 N   0  0  0  0  0  0  0  0  0  0  0  0
    5.7843    6.1409   31.0666 C   0  0  2  0  0  0  0  0  0  0  0  0
    5.4024    5.2606   32.0209 N   0  0  0  0  0  0  0  0  0  0  0  0
    5.2489    6.1017   29.8226 N   0  0  0  0  0  0  0  0  0  0  0  0
    5.6575    6.9888   28.8921 C   0  0  2  0  0  0  0  0  0  0  0  0
    6.6145    7.9287   29.2084 C   0  0  1  0  0  0  0  0  0  0  0  0
    7.1512    7.9432   30.4818 C   0  0  0  0  0  0  0  0  0  0  0  0
    8.0249    8.7834   30.7869 O   0  0  0  0  0  0  0  0  0  0  0  0
    6.8331    8.6871   28.1160 N   0  0  0  0  0  0  0  0  0  0  0  0
    6.0334    8.2226   27.1398 C   0  0  0  0  0  0  0  0  0  0  0  0
    5.3192    7.2013   27.6254 N   0  0  1  0  0  0  0  0  0  0  0  0
   -0.2299    2.7590   30.8181 O   0  0  0  0  0  0  0  0  0  0  0  0
    1.9990    3.5962   31.6992 O   0  5  0  0  0  0  0  0  0  0  0  0
    0.0702    5.1979   31.3813 O   0  0  0  0  0  0  0  0  0  0  0  0
  1  3  1  6  0  0  0
  1 21  1  0  0  0  0
  1 22  1  0  0  0  0
  1 23  2  0  0  0  0
  2  3  1  0  0  0  0
  4  2  1  1  0  0  0
  4  5  1  0  0  0  0
  4  6  1  0  0  0  0
  6  7  1  6  0  0  0
  6  8  1  0  0  0  0
  8  9  1  0  0  0  0
  9  5  1  1  0  0  0
  9 20  1  0  0  0  0
 10 11  1  0  0  0  0
 10 16  1  0  0  0  0
 11 12  1  6  0  0  0
 11 13  1  0  0  0  0
 14 13  1  1  0  0  0
 14 15  1  0  0  0  0
 14 20  1  0  0  0  0
 15 16  1  6  0  0  0
 15 18  1  0  0  0  0
 16 17  2  0  0  0  0
 18 19  1  0  0  0  0
 20 19  1  6  0  0  0
M  CHG  1  22  -1
M  END
>  <CHROM.1>
179.29055636,167.94614389,-177.14123752,67.82394346,3.83691362,5.77644549
29.36309450,-2.97441592,-0.58328789,-1.51521787

>  <Name>
ligand

>  <RI>
0

>  <Rbt.Current_Directory>
/home/itssahil/PROJECTS/Mol_Feturizer/Test_systems_manuscript/rnas/3slm

>  <Rbt.Executable>
rbdock ($Id: //depot/dev/client3/rdock/2013.1/src/exe/rbdock.cxx#4 $)

>  <Rbt.Library>
libRbt.so (2013.1, Build901 2013/11/27)

>  <Rbt.Parameter_File>
/export/apps/rDock/src/rDock_2013.1_src/data/scripts/dock_solv.prm

>  <Rbt.Receptor>
prm/blind_docking_80.prm

>  <SCORE>
-22.6002

>  <SCORE.INTER>
-17.7781

>  <SCORE.INTER.CONST>
1

>  <SCORE.INTER.POLAR>
0

>  <SCORE.INTER.ROT>
4

>  <SCORE.INTER.SOLV>
8.13974

>  <SCORE.INTER.VDW>
-20.832

>  <SCORE.INTER.norm>
-0.772963

>  <SCORE.INTRA>
-4.82207

>  <SCORE.INTRA.DIHEDRAL>
-6.85794

>  <SCORE.INTRA.DIHEDRAL.0>
8.62657

>  <SCORE.INTRA.POLAR>
0

>  <SCORE.INTRA.POLAR.0>
0

>  <SCORE.INTRA.REPUL>
0

>  <SCORE.INTRA.REPUL.0>
0

>  <SCORE.INTRA.SOLV>
1.69317

>  <SCORE.INTRA.SOLV.lig_0>
-66.3641

>  <SCORE.INTRA.VDW>
-2.23969

>  <SCORE.INTRA.VDW.0>
0.452231

>  <SCORE.INTRA.norm>
-0.209655

>  <SCORE.RESTR>
0

>  <SCORE.RESTR.CAVITY>
0

>  <SCORE.RESTR.norm>
0

>  <SCORE.SYSTEM>
0

>  <SCORE.SYSTEM.CONST>
0

>  <SCORE.SYSTEM.DIHEDRAL>
0

>  <SCORE.SYSTEM.SOLV>
0

>  <SCORE.SYSTEM.norm>
0

>  <SCORE.heavy>
23

>  <SCORE.norm>
-0.982618

>  <RMSD>
18.117

$$$$
ligand
 OpenBabel02271912143D
libRbt.so/2013.1/901 2013/11/27
 23 25  0  0  0  0  0  0  0  0999 V2000
    0.7652    3.9119   30.8975 P   0  0  1  0  0  0  0  0  0  0  0  0
    2.1110    5.4125   29.2265 C   0  0  0  0  0  0  0  0  0  0  0  0
    1.2566    4.2928   29.4137 O   0  0  0  0  0  0  0  0  0  0  0  0
    2.3381    5.5622   27.7390 C   0  0  1  0  0  0  0  0  0  0  0  0
    3.0272    6.7706   27.4200 O   0  0  0  0  0  0  0  0  0  0  0  0
    3.1825    4.4000   27.2442 C   0  0  1  0  0  0  0  0  0  0  0  0
    2.5662    3.8727   26.0566 O   0  0  0  0  0  0  0  0  0  0  0  0
    4.5570    4.9938   26.9627 C   0  0  0  0  0  0  0  0  0  0  0  0
    4.2970    6.4907   26.8164 C   0  0  2  0  0  0  0  0  0  0  0  0
    6.7527    7.0101   31.3144 N   0  0  0  0  0  0  0  0  0  0  0  0
    5.8123    6.1098   30.9846 C   0  0  2  0  0  0  0  0  0  0  0  0
    5.4473    5.2052   31.9227 N   0  0  0  0  0  0  0  0  0  0  0  0
    5.2549    6.1022   29.7497 N   0  0  0  0  0  0  0  0  0  0  0  0
    5.6471    7.0130   28.8351 C   0  0  2  0  0  0  0  0  0  0  0  0
    6.6095    7.9448   29.1584 C   0  0  1  0  0  0  0  0  0  0  0  0
    7.1686    7.9271   30.4220 C   0  0  0  0  0  0  0  0  0  0  0  0
    8.0477    8.7596   30.7330 O   0  0  0  0  0  0  0  0  0  0  0  0
    6.8088    8.7310   28.0820 N   0  0  0  0  0  0  0  0  0  0  0  0
    5.9919    8.2913   27.1085 C   0  0  0  0  0  0  0  0  0  0  0  0
    5.2864    7.2577   27.5804 N   0  0  1  0  0  0  0  0  0  0  0  0
   -0.0997    2.6811   30.7736 O   0  0  0  0  0  0  0  0  0  0  0  0
    2.0505    3.6965   31.6628 O   0  5  0  0  0  0  0  0  0  0  0  0
    0.0048    5.1400   31.3195 O   0  0  0  0  0  0  0  0  0  0  0  0
  1  3  1  6  0  0  0
  1 21  1  0  0  0  0
  1 22  1  0  0  0  0
  1 23  2  0  0  0  0
  2  3  1  0  0  0  0
  4  2  1  1  0  0  0
  4  5  1  0  0  0  0
  4  6  1  0  0  0  0
  6  7  1  6  0  0  0
  6  8  1  0  0  0  0
  8  9  1  0  0  0  0
  9  5  1  1  0  0  0
  9 20  1  0  0  0  0
 10 11  1  0  0  0  0
 10 16  1  0  0  0  0
 11 12  1  6  0  0  0
 11 13  1  0  0  0  0
 14 13  1  1  0  0  0
 14 15  1  0  0  0  0
 14 20  1  0  0  0  0
 15 16  1  6  0  0  0
 15 18  1  0  0  0  0
 16 17  2  0  0  0  0
 18 19  1  0  0  0  0
 20 19  1  6  0  0  0
M  CHG  1  22  -1
M  END
>  <CHROM.1>
-179.12239994,171.59637781,-177.01811800,68.97807094,3.83245323,5.80030737
29.30856780,-2.95189927,-0.57899546,-1.47344843

>  <Name>
ligand

>  <RI>
0

>  <Rbt.Current_Directory>
/home/itssahil/PROJECTS/Mol_Feturizer/Test_systems_manuscript/rnas/3slm

>  <Rbt.Executable>
rbdock ($Id: //depot/dev/client3/rdock/2013.1/src/exe/rbdock.cxx#4 $)

>  <Rbt.Library>
libRbt.so (2013.1, Build901 2013/11/27)

>  <Rbt.Parameter_File>
/export/apps/rDock/src/rDock_2013.1_src/data/scripts/dock_solv.prm

>  <Rbt.Receptor>
prm/blind_docking_60.prm

>  <SCORE>
-22.5867

>  <SCORE.INTER>
-17.7417

>  <SCORE.INTER.CONST>
1

>  <SCORE.INTER.POLAR>
0

>  <SCORE.INTER.ROT>
4

>  <SCORE.INTER.SOLV>
8.25835

>  <SCORE.INTER.VDW>
-20.8472

>  <SCORE.INTER.norm>
-0.771377

>  <SCORE.INTRA>
-4.84505

>  <SCORE.INTRA.DIHEDRAL>
-7.10437

>  <SCORE.INTRA.DIHEDRAL.0>
8.62657

>  <SCORE.INTRA.POLAR>
0

>  <SCORE.INTRA.POLAR.0>
0

>  <SCORE.INTRA.REPUL>
0

>  <SCORE.INTRA.REPUL.0>
0

>  <SCORE.INTRA.SOLV>
1.78174

>  <SCORE.INTRA.SOLV.lig_0>
-66.3641

>  <SCORE.INTRA.VDW>
-2.18373

>  <SCORE.INTRA.VDW.0>
0.452231

>  <SCORE.INTRA.norm>
-0.210654

>  <SCORE.RESTR>
0

>  <SCORE.RESTR.CAVITY>
0

>  <SCORE.RESTR.norm>
0

>  <SCORE.SYSTEM>
0

>  <SCORE.SYSTEM.CONST>
0

>  <SCORE.SYSTEM.DIHEDRAL>
0

>  <SCORE.SYSTEM.SOLV>
0

>  <SCORE.SYSTEM.norm>
0

>  <SCORE.heavy>
23

>  <SCORE.norm>
-0.982032

>  <RMSD>
18.119

$$$$
ligand
 OpenBabel02271912143D
libRbt.so/2013.1/901 2013/11/27
 23 25  0  0  0  0  0  0  0  0999 V2000
    0.0838    5.2213   30.5764 P   0  0  1  0  0  0  0  0  0  0  0  0
    1.8467    4.7407   28.7012 C   0  0  0  0  0  0  0  0  0  0  0  0
    0.8951    5.6406   29.2519 O   0  0  0  0  0  0  0  0  0  0  0  0
    2.3711    5.3636   27.4270 C   0  0  1  0  0  0  0  0  0  0  0  0
    3.1662    6.5208   27.6829 O   0  0  0  0  0  0  0  0  0  0  0  0
    3.2407    4.3525   26.6990 C   0  0  1  0  0  0  0  0  0  0  0  0
    2.8479    4.3381   25.3157 O   0  0  0  0  0  0  0  0  0  0  0  0
    4.6704    4.8453   26.8850 C   0  0  0  0  0  0  0  0  0  0  0  0
    4.5158    6.3211   27.2425 C   0  0  2  0  0  0  0  0  0  0  0  0
    7.8643    9.7008   29.2167 N   0  0  0  0  0  0  0  0  0  0  0  0
    7.2637    9.7366   28.0160 C   0  0  2  0  0  0  0  0  0  0  0  0
    7.5418   10.7811   27.2015 N   0  0  0  0  0  0  0  0  0  0  0  0
    6.4004    8.7634   27.6373 N   0  0  0  0  0  0  0  0  0  0  0  0
    6.1391    7.7399   28.4764 C   0  0  2  0  0  0  0  0  0  0  0  0
    6.7487    7.6875   29.7112 C   0  0  1  0  0  0  0  0  0  0  0  0
    7.6193    8.6962   30.0775 C   0  0  0  0  0  0  0  0  0  0  0  0
    8.1775    8.6706   31.1956 O   0  0  0  0  0  0  0  0  0  0  0  0
    6.3255    6.5728   30.3395 N   0  0  0  0  0  0  0  0  0  0  0  0
    5.4654    5.9503   29.5143 C   0  0  0  0  0  0  0  0  0  0  0  0
    5.3693    6.6614   28.3856 N   0  0  1  0  0  0  0  0  0  0  0  0
   -0.7407    6.4174   30.9860 O   0  0  0  0  0  0  0  0  0  0  0  0
   -0.7286    4.0232   30.1419 O   0  5  0  0  0  0  0  0  0  0  0  0
    1.1845    4.8898   31.5475 O   0  0  0  0  0  0  0  0  0  0  0  0
  1  3  1  6  0  0  0
  1 21  1  0  0  0  0
  1 22  1  0  0  0  0
  1 23  2  0  0  0  0
  2  3  1  0  0  0  0
  4  2  1  1  0  0  0
  4  5  1  0  0  0  0
  4  6  1  0  0  0  0
  6  7  1  6  0  0  0
  6  8  1  0  0  0  0
  8  9  1  0  0  0  0
  9  5  1  1  0  0  0
  9 20  1  0  0  0  0
 10 11  1  0  0  0  0
 10 16  1  0  0  0  0
 11 12  1  1  0  0  0
 11 13  1  0  0  0  0
 14 13  1  6  0  0  0
 14 15  1  0  0  0  0
 14 20  1  0  0  0  0
 15 16  1  1  0  0  0
 15 18  1  0  0  0  0
 16 17  2  0  0  0  0
 18 19  1  0  0  0  0
 20 19  1  1  0  0  0
M  CHG  1  22  -1
M  END
>  <CHROM.1>
174.75790653,68.64877552,176.29427174,-108.72868919,3.91311579,6.54415192
28.91201035,3.06655097,-0.52145645,-1.92813557

>  <Name>
ligand

>  <RI>
0

>  <Rbt.Current_Directory>
/home/itssahil/PROJECTS/Mol_Feturizer/Test_systems_manuscript/rnas/3slm

>  <Rbt.Executable>
rbdock ($Id: //depot/dev/client3/rdock/2013.1/src/exe/rbdock.cxx#4 $)

>  <Rbt.Library>
libRbt.so (2013.1, Build901 2013/11/27)

>  <Rbt.Parameter_File>
/export/apps/rDock/src/rDock_2013.1_src/data/scripts/dock_solv.prm

>  <Rbt.Receptor>
prm/blind_docking_60.prm

>  <SCORE>
-22.3074

>  <SCORE.INTER>
-17.1969

>  <SCORE.INTER.CONST>
1

>  <SCORE.INTER.POLAR>
0

>  <SCORE.INTER.ROT>
4

>  <SCORE.INTER.SOLV>
17.9297

>  <SCORE.INTER.VDW>
-23.7079

>  <SCORE.INTER.norm>
-0.747693

>  <SCORE.INTRA>
-5.11045

>  <SCORE.INTRA.DIHEDRAL>
-7.08382

>  <SCORE.INTRA.DIHEDRAL.0>
8.62657

>  <SCORE.INTRA.POLAR>
0

>  <SCORE.INTRA.POLAR.0>
0

>  <SCORE.INTRA.REPUL>
0

>  <SCORE.INTRA.REPUL.0>
0

>  <SCORE.INTRA.SOLV>
-0.0702969

>  <SCORE.INTRA.SOLV.lig_0>
-66.3641

>  <SCORE.INTRA.VDW>
-1.53339

>  <SCORE.INTRA.VDW.0>
0.452231

>  <SCORE.INTRA.norm>
-0.222193

>  <SCORE.RESTR>
0

>  <SCORE.RESTR.CAVITY>
0

>  <SCORE.RESTR.norm>
0

>  <SCORE.SYSTEM>
0

>  <SCORE.SYSTEM.CONST>
0

>  <SCORE.SYSTEM.DIHEDRAL>
0

>  <SCORE.SYSTEM.SOLV>
0

>  <SCORE.SYSTEM.norm>
0

>  <SCORE.heavy>
23

>  <SCORE.norm>
-0.969886

>  <RMSD>
18.146

$$$$
ligand
 OpenBabel02271912143D
libRbt.so/2013.1/901 2013/11/27
 23 25  0  0  0  0  0  0  0  0999 V2000
    0.3812    4.5537   30.8033 P   0  0  1  0  0  0  0  0  0  0  0  0
    2.0974    5.6879   29.1835 C   0  0  0  0  0  0  0  0  0  0  0  0
    1.1159    4.6790   29.3775 O   0  0  0  0  0  0  0  0  0  0  0  0
    2.4315    5.7139   27.7090 C   0  0  1  0  0  0  0  0  0  0  0  0
    3.2005    6.8622   27.3529 O   0  0  0  0  0  0  0  0  0  0  0  0
    3.2477    4.4805   27.3610 C   0  0  1  0  0  0  0  0  0  0  0  0
    2.6871    3.8930   26.1741 O   0  0  0  0  0  0  0  0  0  0  0  0
    4.6662    4.9884   27.1354 C   0  0  0  0  0  0  0  0  0  0  0  0
    4.4924    6.4801   26.8628 C   0  0  2  0  0  0  0  0  0  0  0  0
    6.9089    7.0126   31.3804 N   0  0  0  0  0  0  0  0  0  0  0  0
    5.9837    6.1006   31.0398 C   0  0  2  0  0  0  0  0  0  0  0  0
    5.6250    5.1864   31.9710 N   0  0  0  0  0  0  0  0  0  0  0  0
    5.4351    6.0911   29.8009 N   0  0  0  0  0  0  0  0  0  0  0  0
    5.8207    7.0117   28.8934 C   0  0  2  0  0  0  0  0  0  0  0  0
    6.7676    7.9556   29.2279 C   0  0  1  0  0  0  0  0  0  0  0  0
    7.3180    7.9396   30.4954 C   0  0  0  0  0  0  0  0  0  0  0  0
    8.1829    8.7830   30.8165 O   0  0  0  0  0  0  0  0  0  0  0  0
    6.9632    8.7497   28.1567 N   0  0  0  0  0  0  0  0  0  0  0  0
    6.1595    8.3031   27.1754 C   0  0  0  0  0  0  0  0  0  0  0  0
    5.4655    7.2573   27.6374 N   0  0  1  0  0  0  0  0  0  0  0  0
   -0.2757    5.8842   31.0796 O   0  0  0  0  0  0  0  0  0  0  0  0
   -0.5860    3.4077   30.6151 O   0  5  0  0  0  0  0  0  0  0  0  0
    1.5201    4.2412   31.7359 O   0  0  0  0  0  0  0  0  0  0  0  0
  1  3  1  6  0  0  0
  1 21  1  0  0  0  0
  1 22  1  0  0  0  0
  1 23  2  0  0  0  0
  2  3  1  0  0  0  0
  4  2  1  1  0  0  0
  4  5  1  0  0  0  0
  4  6  1  0  0  0  0
  6  7  1  6  0  0  0
  6  8  1  0  0  0  0
  8  9  1  0  0  0  0
  9  5  1  1  0  0  0
  9 20  1  0  0  0  0
 10 11  1  0  0  0  0
 10 16  1  0  0  0  0
 11 12  1  6  0  0  0
 11 13  1  0  0  0  0
 14 13  1  1  0  0  0
 14 15  1  0  0  0  0
 14 20  1  0  0  0  0
 15 16  1  6  0  0  0
 15 18  1  0  0  0  0
 16 17  2  0  0  0  0
 18 19  1  0  0  0  0
 20 19  1  6  0  0  0
M  CHG  1  22  -1
M  END
>  <CHROM.1>
57.77614622,168.11832775,-170.55135714,75.75754200,3.83139960,5.99817882
29.32339038,-3.03431545,-0.48278506,-1.56497795

>  <Name>
ligand

>  <RI>
0

>  <Rbt.Current_Directory>
/home/itssahil/PROJECTS/Mol_Feturizer/Test_systems_manuscript/rnas/3slm

>  <Rbt.Executable>
rbdock ($Id: //depot/dev/client3/rdock/2013.1/src/exe/rbdock.cxx#4 $)

>  <Rbt.Library>
libRbt.so (2013.1, Build901 2013/11/27)

>  <Rbt.Parameter_File>
/export/apps/rDock/src/rDock_2013.1_src/data/scripts/dock_solv.prm

>  <Rbt.Receptor>
prm/blind_docking_100.prm

>  <SCORE>
-22.7225

>  <SCORE.INTER>
-17.5826

>  <SCORE.INTER.CONST>
1

>  <SCORE.INTER.POLAR>
0

>  <SCORE.INTER.ROT>
4

>  <SCORE.INTER.SOLV>
10.3596

>  <SCORE.INTER.VDW>
-21.4416

>  <SCORE.INTER.norm>
-0.764461

>  <SCORE.INTRA>
-5.13989

>  <SCORE.INTRA.DIHEDRAL>
-6.45546

>  <SCORE.INTRA.DIHEDRAL.0>
8.62657

>  <SCORE.INTRA.POLAR>
0

>  <SCORE.INTRA.POLAR.0>
0

>  <SCORE.INTRA.REPUL>
0

>  <SCORE.INTRA.REPUL.0>
0

>  <SCORE.INTRA.SOLV>
0.035923

>  <SCORE.INTRA.SOLV.lig_0>
-66.3641

>  <SCORE.INTRA.VDW>
-1.93012

>  <SCORE.INTRA.VDW.0>
0.452231

>  <SCORE.INTRA.norm>
-0.223473

>  <SCORE.RESTR>
0

>  <SCORE.RESTR.CAVITY>
0

>  <SCORE.RESTR.norm>
0

>  <SCORE.SYSTEM>
0

>  <SCORE.SYSTEM.CONST>
0

>  <SCORE.SYSTEM.DIHEDRAL>
0

>  <SCORE.SYSTEM.SOLV>
0

>  <SCORE.SYSTEM.norm>
0

>  <SCORE.heavy>
23

>  <SCORE.norm>
-0.987934

>  <RMSD>
18.169

$$$$
ligand
 OpenBabel02271912143D
libRbt.so/2013.1/901 2013/11/27
 23 25  0  0  0  0  0  0  0  0999 V2000
    0.3905    4.5477   30.8124 P   0  0  1  0  0  0  0  0  0  0  0  0
    2.1097    5.6960   29.2059 C   0  0  0  0  0  0  0  0  0  0  0  0
    1.1209    4.6917   29.3862 O   0  0  0  0  0  0  0  0  0  0  0  0
    2.4289    5.7540   27.7290 C   0  0  1  0  0  0  0  0  0  0  0  0
    3.1886    6.9133   27.3889 O   0  0  0  0  0  0  0  0  0  0  0  0
    3.2476    4.5322   27.3476 C   0  0  1  0  0  0  0  0  0  0  0  0
    2.6781    3.9664   26.1544 O   0  0  0  0  0  0  0  0  0  0  0  0
    4.6613    5.0519   27.1185 C   0  0  0  0  0  0  0  0  0  0  0  0
    4.4775    6.5480   26.8783 C   0  0  2  0  0  0  0  0  0  0  0  0
    6.9336    7.0021   31.3831 N   0  0  0  0  0  0  0  0  0  0  0  0
    6.0091    6.0930   31.0331 C   0  0  2  0  0  0  0  0  0  0  0  0
    5.6630    5.1591   31.9494 N   0  0  0  0  0  0  0  0  0  0  0  0
    5.4491    6.1054   29.7994 N   0  0  0  0  0  0  0  0  0  0  0  0
    5.8223    7.0454   28.9067 C   0  0  2  0  0  0  0  0  0  0  0  0
    6.7682    7.9867   29.2510 C   0  0  1  0  0  0  0  0  0  0  0  0
    7.3305    7.9482   30.5128 C   0  0  0  0  0  0  0  0  0  0  0  0
    8.1948    8.7889   30.8425 O   0  0  0  0  0  0  0  0  0  0  0  0
    6.9505    8.8025   28.1939 N   0  0  0  0  0  0  0  0  0  0  0  0
    6.1396    8.3718   27.2115 C   0  0  0  0  0  0  0  0  0  0  0  0
    5.4543    7.3141   27.6591 N   0  0  1  0  0  0  0  0  0  0  0  0
   -0.2704    5.8726   31.1054 O   0  0  0  0  0  0  0  0  0  0  0  0
   -0.5733    3.4005   30.6137 O   0  5  0  0  0  0  0  0  0  0  0  0
    1.5329    4.2287   31.7384 O   0  0  0  0  0  0  0  0  0  0  0  0
  1  3  1  6  0  0  0
  1 21  1  0  0  0  0
  1 22  1  0  0  0  0
  1 23  2  0  0  0  0
  2  3  1  0  0  0  0
  4  2  1  1  0  0  0
  4  5  1  0  0  0  0
  4  6  1  0  0  0  0
  6  7  1  6  0  0  0
  6  8  1  0  0  0  0
  8  9  1  0  0  0  0
  9  5  1  1  0  0  0
  9 20  1  0  0  0  0
 10 11  1  0  0  0  0
 10 16  1  0  0  0  0
 11 12  1  6  0  0  0
 11 13  1  0  0  0  0
 14 13  1  1  0  0  0
 14 15  1  0  0  0  0
 14 20  1  0  0  0  0
 15 16  1  6  0  0  0
 15 18  1  0  0  0  0
 16 17  2  0  0  0  0
 18 19  1  0  0  0  0
 20 19  1  6  0  0  0
M  CHG  1  22  -1
M  END
>  <CHROM.1>
58.51303450,167.28898287,-170.01140795,75.68326467,3.83603245,6.02024518
29.33348373,-3.02662873,-0.48368423,-1.54476356

>  <Name>
ligand

>  <RI>
0

>  <Rbt.Current_Directory>
/home/itssahil/PROJECTS/Mol_Feturizer/Test_systems_manuscript/rnas/3slm

>  <Rbt.Executable>
rbdock ($Id: //depot/dev/client3/rdock/2013.1/src/exe/rbdock.cxx#4 $)

>  <Rbt.Library>
libRbt.so (2013.1, Build901 2013/11/27)

>  <Rbt.Parameter_File>
/export/apps/rDock/src/rDock_2013.1_src/data/scripts/dock_solv.prm

>  <Rbt.Receptor>
prm/blind_docking_60.prm

>  <SCORE>
-22.7429

>  <SCORE.INTER>
-17.6409

>  <SCORE.INTER.CONST>
1

>  <SCORE.INTER.POLAR>
0

>  <SCORE.INTER.ROT>
4

>  <SCORE.INTER.SOLV>
10.393

>  <SCORE.INTER.VDW>
-21.4916

>  <SCORE.INTER.norm>
-0.766996

>  <SCORE.INTRA>
-5.10195

>  <SCORE.INTRA.DIHEDRAL>
-6.34058

>  <SCORE.INTRA.DIHEDRAL.0>
8.62657

>  <SCORE.INTRA.POLAR>
0

>  <SCORE.INTRA.POLAR.0>
0

>  <SCORE.INTRA.REPUL>
0

>  <SCORE.INTRA.REPUL.0>
0

>  <SCORE.INTRA.SOLV>
0.00865219

>  <SCORE.INTRA.SOLV.lig_0>
-66.3641

>  <SCORE.INTRA.VDW>
-1.93599

>  <SCORE.INTRA.VDW.0>
0.452231

>  <SCORE.INTRA.norm>
-0.221824

>  <SCORE.RESTR>
0

>  <SCORE.RESTR.CAVITY>
0

>  <SCORE.RESTR.norm>
0

>  <SCORE.SYSTEM>
0

>  <SCORE.SYSTEM.CONST>
0

>  <SCORE.SYSTEM.DIHEDRAL>
0

>  <SCORE.SYSTEM.SOLV>
0

>  <SCORE.SYSTEM.norm>
0

>  <SCORE.heavy>
23

>  <SCORE.norm>
-0.98882

>  <RMSD>
18.172

$$$$
ligand
 OpenBabel02271912143D
libRbt.so/2013.1/901 2013/11/27
 23 25  0  0  0  0  0  0  0  0999 V2000
    0.3528    4.5731   30.7825 P   0  0  1  0  0  0  0  0  0  0  0  0
    2.0940    5.6841   29.1734 C   0  0  0  0  0  0  0  0  0  0  0  0
    1.1134    4.6746   29.3684 O   0  0  0  0  0  0  0  0  0  0  0  0
    2.4340    5.7033   27.7001 C   0  0  1  0  0  0  0  0  0  0  0  0
    3.2041    6.8503   27.3417 O   0  0  0  0  0  0  0  0  0  0  0  0
    3.2520    4.4686   27.3611 C   0  0  1  0  0  0  0  0  0  0  0  0
    2.6963    3.8755   26.1747 O   0  0  0  0  0  0  0  0  0  0  0  0
    4.6713    4.9760   27.1389 C   0  0  0  0  0  0  0  0  0  0  0  0
    4.4981    6.4663   26.8586 C   0  0  2  0  0  0  0  0  0  0  0  0
    6.9123    7.0076   31.3764 N   0  0  0  0  0  0  0  0  0  0  0  0
    5.9910    6.0918   31.0355 C   0  0  2  0  0  0  0  0  0  0  0  0
    5.6362    5.1757   31.9664 N   0  0  0  0  0  0  0  0  0  0  0  0
    5.4425    6.0803   29.7966 N   0  0  0  0  0  0  0  0  0  0  0  0
    5.8241    7.0029   28.8895 C   0  0  2  0  0  0  0  0  0  0  0  0
    6.7669    7.9507   29.2243 C   0  0  1  0  0  0  0  0  0  0  0  0
    7.3174    7.9367   30.4918 C   0  0  0  0  0  0  0  0  0  0  0  0
    8.1787    8.7837   30.8131 O   0  0  0  0  0  0  0  0  0  0  0  0
    6.9590    8.7460   28.1534 N   0  0  0  0  0  0  0  0  0  0  0  0
    6.1573    8.2964   27.1719 C   0  0  0  0  0  0  0  0  0  0  0  0
    5.4678    7.2475   27.6335 N   0  0  1  0  0  0  0  0  0  0  0  0
   -0.3400    5.8952   31.0067 O   0  0  0  0  0  0  0  0  0  0  0  0
   -0.5838    3.3997   30.6088 O   0  5  0  0  0  0  0  0  0  0  0  0
    1.4793    4.3145   31.7461 O   0  0  0  0  0  0  0  0  0  0  0  0
  1  3  1  6  0  0  0
  1 21  1  0  0  0  0
  1 22  1  0  0  0  0
  1 23  2  0  0  0  0
  2  3  1  0  0  0  0
  4  2  1  1  0  0  0
  4  5  1  0  0  0  0
  4  6  1  0  0  0  0
  6  7  1  6  0  0  0
  6  8  1  0  0  0  0
  8  9  1  0  0  0  0
  9  5  1  1  0  0  0
  9 20  1  0  0  0  0
 10 11  1  0  0  0  0
 10 16  1  0  0  0  0
 11 12  1  6  0  0  0
 11 13  1  0  0  0  0
 14 13  1  1  0  0  0
 14 15  1  0  0  0  0
 14 20  1  0  0  0  0
 15 16  1  6  0  0  0
 15 18  1  0  0  0  0
 16 17  2  0  0  0  0
 18 19  1  0  0  0  0
 20 19  1  6  0  0  0
M  CHG  1  22  -1
M  END
>  <CHROM.1>
58.99563971,168.19752649,-169.37409273,76.19024604,3.82588675,5.99713653
29.31489997,-3.03999895,-0.47880559,-1.57088197

>  <Name>
ligand

>  <RI>
0

>  <Rbt.Current_Directory>
/home/itssahil/PROJECTS/Mol_Feturizer/Test_systems_manuscript/rnas/3slm

>  <Rbt.Executable>
rbdock ($Id: //depot/dev/client3/rdock/2013.1/src/exe/rbdock.cxx#4 $)

>  <Rbt.Library>
libRbt.so (2013.1, Build901 2013/11/27)

>  <Rbt.Parameter_File>
/export/apps/rDock/src/rDock_2013.1_src/data/scripts/dock_solv.prm

>  <Rbt.Receptor>
prm/blind_docking_40.prm

>  <SCORE>
-22.7393

>  <SCORE.INTER>
-17.6471

>  <SCORE.INTER.CONST>
1

>  <SCORE.INTER.POLAR>
0

>  <SCORE.INTER.ROT>
4

>  <SCORE.INTER.SOLV>
10.4551

>  <SCORE.INTER.VDW>
-21.5164

>  <SCORE.INTER.norm>
-0.767264

>  <SCORE.INTRA>
-5.09222

>  <SCORE.INTRA.DIHEDRAL>
-6.3539

>  <SCORE.INTRA.DIHEDRAL.0>
8.62657

>  <SCORE.INTRA.POLAR>
0

>  <SCORE.INTRA.POLAR.0>
0

>  <SCORE.INTRA.REPUL>
0

>  <SCORE.INTRA.REPUL.0>
0

>  <SCORE.INTRA.SOLV>
-0.0258195

>  <SCORE.INTRA.SOLV.lig_0>
-66.3641

>  <SCORE.INTRA.VDW>
-1.90236

>  <SCORE.INTRA.VDW.0>
0.452231

>  <SCORE.INTRA.norm>
-0.221401

>  <SCORE.RESTR>
0

>  <SCORE.RESTR.CAVITY>
0

>  <SCORE.RESTR.norm>
0

>  <SCORE.SYSTEM>
0

>  <SCORE.SYSTEM.CONST>
0

>  <SCORE.SYSTEM.DIHEDRAL>
0

>  <SCORE.SYSTEM.SOLV>
0

>  <SCORE.SYSTEM.norm>
0

>  <SCORE.heavy>
23

>  <SCORE.norm>
-0.988665

>  <RMSD>
18.174

$$$$
ligand
 OpenBabel02271912143D
libRbt.so/2013.1/901 2013/11/27
 23 25  0  0  0  0  0  0  0  0999 V2000
    0.3996    4.5365   30.8035 P   0  0  1  0  0  0  0  0  0  0  0  0
    2.1035    5.7135   29.2016 C   0  0  0  0  0  0  0  0  0  0  0  0
    1.1375    4.6874   29.3819 O   0  0  0  0  0  0  0  0  0  0  0  0
    2.4529    5.7500   27.7308 C   0  0  1  0  0  0  0  0  0  0  0  0
    3.2085    6.9109   27.3871 O   0  0  0  0  0  0  0  0  0  0  0  0
    3.2909    4.5301   27.3871 C   0  0  1  0  0  0  0  0  0  0  0  0
    2.7518    3.9389   26.1921 O   0  0  0  0  0  0  0  0  0  0  0  0
    4.7041    5.0599   27.1785 C   0  0  0  0  0  0  0  0  0  0  0  0
    4.5111    6.5499   26.9094 C   0  0  2  0  0  0  0  0  0  0  0  0
    6.9042    7.0754   31.4403 N   0  0  0  0  0  0  0  0  0  0  0  0
    6.0010    6.1472   31.0847 C   0  0  2  0  0  0  0  0  0  0  0  0
    5.6612    5.2123   32.0024 N   0  0  0  0  0  0  0  0  0  0  0  0
    5.4557    6.1421   29.8444 N   0  0  0  0  0  0  0  0  0  0  0  0
    5.8221    7.0838   28.9507 C   0  0  2  0  0  0  0  0  0  0  0  0
    6.7462    8.0444   29.3006 C   0  0  1  0  0  0  0  0  0  0  0  0
    7.2939    8.0236   30.5692 C   0  0  0  0  0  0  0  0  0  0  0  0
    8.1385    8.8821   30.9041 O   0  0  0  0  0  0  0  0  0  0  0  0
    6.9260    8.8574   28.2409 N   0  0  0  0  0  0  0  0  0  0  0  0
    6.1351    8.4061   27.2514 C   0  0  0  0  0  0  0  0  0  0  0  0
    5.4642    7.3384   27.6972 N   0  0  1  0  0  0  0  0  0  0  0  0
   -0.2740    5.8557   31.0933 O   0  0  0  0  0  0  0  0  0  0  0  0
   -0.5533    3.3814   30.5984 O   0  5  0  0  0  0  0  0  0  0  0  0
    1.5390    4.2264   31.7363 O   0  0  0  0  0  0  0  0  0  0  0  0
  1  3  1  6  0  0  0
  1 21  1  0  0  0  0
  1 22  1  0  0  0  0
  1 23  2  0  0  0  0
  2  3  1  0  0  0  0
  4  2  1  1  0  0  0
  4  5  1  0  0  0  0
  4  6  1  0  0  0  0
  6  7  1  6  0  0  0
  6  8  1  0  0  0  0
  8  9  1  0  0  0  0
  9  5  1  1  0  0  0
  9 20  1  0  0  0  0
 10 11  1  0  0  0  0
 10 16  1  0  0  0  0
 11 12  1  6  0  0  0
 11 13  1  0  0  0  0
 14 13  1  1  0  0  0
 14 15  1  0  0  0  0
 14 20  1  0  0  0  0
 15 16  1  6  0  0  0
 15 18  1  0  0  0  0
 16 17  2  0  0  0  0
 18 19  1  0  0  0  0
 20 19  1  6  0  0  0
M  CHG  1  22  -1
M  END
>  <CHROM.1>
57.51605436,168.25580957,-171.10255917,76.63432223,3.84168840,6.04026077
29.35916657,-3.04149409,-0.49637391,-1.55727120

>  <Name>
ligand

>  <RI>
0

>  <Rbt.Current_Directory>
/home/itssahil/PROJECTS/Mol_Feturizer/Test_systems_manuscript/rnas/3slm

>  <Rbt.Executable>
rbdock ($Id: //depot/dev/client3/rdock/2013.1/src/exe/rbdock.cxx#4 $)

>  <Rbt.Library>
libRbt.so (2013.1, Build901 2013/11/27)

>  <Rbt.Parameter_File>
/export/apps/rDock/src/rDock_2013.1_src/data/scripts/dock_solv.prm

>  <Rbt.Receptor>
prm/blind_docking_80.prm

>  <SCORE>
-22.6245

>  <SCORE.INTER>
-17.4598

>  <SCORE.INTER.CONST>
1

>  <SCORE.INTER.POLAR>
0

>  <SCORE.INTER.ROT>
4

>  <SCORE.INTER.SOLV>
10.2429

>  <SCORE.INTER.VDW>
-21.3208

>  <SCORE.INTER.norm>
-0.75912

>  <SCORE.INTRA>
-5.16477

>  <SCORE.INTRA.DIHEDRAL>
-6.51102

>  <SCORE.INTRA.DIHEDRAL.0>
8.62657

>  <SCORE.INTRA.POLAR>
0

>  <SCORE.INTRA.POLAR.0>
0

>  <SCORE.INTRA.REPUL>
0

>  <SCORE.INTRA.REPUL.0>
0

>  <SCORE.INTRA.SOLV>
-0.0408127

>  <SCORE.INTRA.SOLV.lig_0>
-66.3641

>  <SCORE.INTRA.VDW>
-1.88885

>  <SCORE.INTRA.VDW.0>
0.452231

>  <SCORE.INTRA.norm>
-0.224555

>  <SCORE.RESTR>
0

>  <SCORE.RESTR.CAVITY>
0

>  <SCORE.RESTR.norm>
0

>  <SCORE.SYSTEM>
0

>  <SCORE.SYSTEM.CONST>
0

>  <SCORE.SYSTEM.DIHEDRAL>
0

>  <SCORE.SYSTEM.SOLV>
0

>  <SCORE.SYSTEM.norm>
0

>  <SCORE.heavy>
23

>  <SCORE.norm>
-0.983675

>  <RMSD>
18.178

$$$$
ligand
 OpenBabel02271912143D
libRbt.so/2013.1/901 2013/11/27
 23 25  0  0  0  0  0  0  0  0999 V2000
    0.3425    4.5843   30.8027 P   0  0  1  0  0  0  0  0  0  0  0  0
    2.0849    5.6890   29.1905 C   0  0  0  0  0  0  0  0  0  0  0  0
    1.0794    4.7028   29.3774 O   0  0  0  0  0  0  0  0  0  0  0  0
    2.4232    5.7140   27.7169 C   0  0  1  0  0  0  0  0  0  0  0  0
    3.1950    6.8610   27.3626 O   0  0  0  0  0  0  0  0  0  0  0  0
    3.2383    4.4792   27.3716 C   0  0  1  0  0  0  0  0  0  0  0  0
    2.6801    3.8923   26.1833 O   0  0  0  0  0  0  0  0  0  0  0  0
    4.6583    4.9848   27.1498 C   0  0  0  0  0  0  0  0  0  0  0  0
    4.4877    6.4767   26.8762 C   0  0  2  0  0  0  0  0  0  0  0  0
    6.9083    6.9938   31.3934 N   0  0  0  0  0  0  0  0  0  0  0  0
    5.9849    6.0812   31.0495 C   0  0  2  0  0  0  0  0  0  0  0  0
    5.6295    5.1618   31.9769 N   0  0  0  0  0  0  0  0  0  0  0  0
    5.4349    6.0762   29.8113 N   0  0  0  0  0  0  0  0  0  0  0  0
    5.8172    7.0020   28.9077 C   0  0  2  0  0  0  0  0  0  0  0  0
    6.7622    7.9465   29.2455 C   0  0  1  0  0  0  0  0  0  0  0  0
    7.3142    7.9259   30.5122 C   0  0  0  0  0  0  0  0  0  0  0  0
    8.1775    8.7698   30.8362 O   0  0  0  0  0  0  0  0  0  0  0  0
    6.9546    8.7460   28.1778 N   0  0  0  0  0  0  0  0  0  0  0  0
    6.1507    8.3022   27.1953 C   0  0  0  0  0  0  0  0  0  0  0  0
    5.4598    7.2526   27.6533 N   0  0  1  0  0  0  0  0  0  0  0  0
   -0.2605    5.9354   31.1012 O   0  0  0  0  0  0  0  0  0  0  0  0
   -0.6699    3.4809   30.5987 O   0  5  0  0  0  0  0  0  0  0  0  0
    1.4696    4.2121   31.7277 O   0  0  0  0  0  0  0  0  0  0  0  0
  1  3  1  6  0  0  0
  1 21  1  0  0  0  0
  1 22  1  0  0  0  0
  1 23  2  0  0  0  0
  2  3  1  0  0  0  0
  4  2  1  1  0  0  0
  4  5  1  0  0  0  0
  4  6  1  0  0  0  0
  6  7  1  6  0  0  0
  6  8  1  0  0  0  0
  8  9  1  0  0  0  0
  9  5  1  1  0  0  0
  9 20  1  0  0  0  0
 10 11  1  0  0  0  0
 10 16  1  0  0  0  0
 11 12  1  6  0  0  0
 11 13  1  0  0  0  0
 14 13  1  1  0  0  0
 14 15  1  0  0  0  0
 14 20  1  0  0  0  0
 15 16  1  6  0  0  0
 15 18  1  0  0  0  0
 16 17  2  0  0  0  0
 18 19  1  0  0  0  0
 20 19  1  6  0  0  0
M  CHG  1  22  -1
M  END
>  <CHROM.1>
56.76975135,166.82052667,-170.79207766,76.18835211,3.81685782,6.00096924
29.33260155,-3.03868638,-0.47573822,-1.56781273

>  <Name>
ligand

>  <RI>
0

>  <Rbt.Current_Directory>
/home/itssahil/PROJECTS/Mol_Feturizer/Test_systems_manuscript/rnas/3slm

>  <Rbt.Executable>
rbdock ($Id: //depot/dev/client3/rdock/2013.1/src/exe/rbdock.cxx#4 $)

>  <Rbt.Library>
libRbt.so (2013.1, Build901 2013/11/27)

>  <Rbt.Parameter_File>
/export/apps/rDock/src/rDock_2013.1_src/data/scripts/dock_solv.prm

>  <Rbt.Receptor>
prm/blind_docking_60.prm

>  <SCORE>
-22.7097

>  <SCORE.INTER>
-17.569

>  <SCORE.INTER.CONST>
1

>  <SCORE.INTER.POLAR>
0

>  <SCORE.INTER.ROT>
4

>  <SCORE.INTER.SOLV>
10.5395

>  <SCORE.INTER.VDW>
-21.4925

>  <SCORE.INTER.norm>
-0.763872

>  <SCORE.INTRA>
-5.14064

>  <SCORE.INTRA.DIHEDRAL>
-6.35937

>  <SCORE.INTRA.DIHEDRAL.0>
8.62657

>  <SCORE.INTRA.POLAR>
0

>  <SCORE.INTRA.POLAR.0>
0

>  <SCORE.INTRA.REPUL>
0

>  <SCORE.INTRA.REPUL.0>
0

>  <SCORE.INTRA.SOLV>
-0.077212

>  <SCORE.INTRA.SOLV.lig_0>
-66.3641

>  <SCORE.INTRA.VDW>
-1.92235

>  <SCORE.INTRA.VDW.0>
0.452231

>  <SCORE.INTRA.norm>
-0.223506

>  <SCORE.RESTR>
0

>  <SCORE.RESTR.CAVITY>
0

>  <SCORE.RESTR.norm>
0

>  <SCORE.SYSTEM>
0

>  <SCORE.SYSTEM.CONST>
0

>  <SCORE.SYSTEM.DIHEDRAL>
0

>  <SCORE.SYSTEM.SOLV>
0

>  <SCORE.SYSTEM.norm>
0

>  <SCORE.heavy>
23

>  <SCORE.norm>
-0.987378

>  <RMSD>
18.184

$$$$
ligand
 OpenBabel02271912143D
libRbt.so/2013.1/901 2013/11/27
 23 25  0  0  0  0  0  0  0  0999 V2000
    5.4367    3.6867   33.3163 P   0  0  1  0  0  0  0  0  0  0  0  0
    5.2571    5.6663   31.6121 C   0  0  0  0  0  0  0  0  0  0  0  0
    5.8343    4.4087   31.9347 O   0  0  0  0  0  0  0  0  0  0  0  0
    5.6423    5.9861   30.1853 C   0  0  1  0  0  0  0  0  0  0  0  0
    4.8202    5.3013   29.2408 O   0  0  0  0  0  0  0  0  0  0  0  0
    5.4807    7.4781   29.9478 C   0  0  1  0  0  0  0  0  0  0  0  0
    6.6667    7.9578   29.2909 O   0  0  0  0  0  0  0  0  0  0  0  0
    4.2432    7.6130   29.0694 C   0  0  0  0  0  0  0  0  0  0  0  0
    4.0728    6.2306   28.4453 C   0  0  2  0  0  0  0  0  0  0  0  0
    0.1344    5.0930   31.5641 N   0  0  0  0  0  0  0  0  0  0  0  0
    1.3805    5.4596   31.9054 C   0  0  2  0  0  0  0  0  0  0  0  0
    1.6699    5.5629   33.2234 N   0  0  0  0  0  0  0  0  0  0  0  0
    2.3138    5.7265   30.9601 N   0  0  0  0  0  0  0  0  0  0  0  0
    1.9903    5.6216   29.6548 C   0  0  2  0  0  0  0  0  0  0  0  0
    0.7165    5.2446   29.2880 C   0  0  1  0  0  0  0  0  0  0  0  0
   -0.2199    4.9854   30.2707 C   0  0  0  0  0  0  0  0  0  0  0  0
   -1.3825    4.6484   29.9589 O   0  0  0  0  0  0  0  0  0  0  0  0
    0.6618    5.2099   27.9418 N   0  0  0  0  0  0  0  0  0  0  0  0
    1.8748    5.5652   27.4828 C   0  0  0  0  0  0  0  0  0  0  0  0
    2.6729    5.8016   28.5297 N   0  0  1  0  0  0  0  0  0  0  0  0
    5.7968    4.6384   34.4311 O   0  0  0  0  0  0  0  0  0  0  0  0
    3.9552    3.4227   33.1760 O   0  5  0  0  0  0  0  0  0  0  0  0
    6.2811    2.4414   33.2937 O   0  0  0  0  0  0  0  0  0  0  0  0
  1  3  1  6  0  0  0
  1 21  1  0  0  0  0
  1 22  1  0  0  0  0
  1 23  2  0  0  0  0
  2  3  1  0  0  0  0
  4  2  1  1  0  0  0
  4  5  1  0  0  0  0
  4  6  1  0  0  0  0
  6  7  1  6  0  0  0
  6  8  1  0  0  0  0
  8  9  1  0  0  0  0
  9  5  1  1  0  0  0
  9 20  1  0  0  0  0
 10 11  1  0  0  0  0
 10 16  1  0  0  0  0
 11 12  1  6  0  0  0
 11 13  1  0  0  0  0
 14 13  1  1  0  0  0
 14 15  1  0  0  0  0
 14 20  1  0  0  0  0
 15 16  1  6  0  0  0
 15 18  1  0  0  0  0
 16 17  2  0  0  0  0
 18 19  1  0  0  0  0
 20 19  1  6  0  0  0
M  CHG  1  22  -1
M  END
>  <CHROM.1>
-58.32980351,80.06873048,-171.34177729,54.97411389,3.48173854,5.25754897
30.85037870,0.61722784,0.16671215,2.11652603

>  <Name>
ligand

>  <RI>
0

>  <Rbt.Current_Directory>
/home/itssahil/PROJECTS/Mol_Feturizer/Test_systems_manuscript/rnas/3slm

>  <Rbt.Executable>
rbdock ($Id: //depot/dev/client3/rdock/2013.1/src/exe/rbdock.cxx#4 $)

>  <Rbt.Library>
libRbt.so (2013.1, Build901 2013/11/27)

>  <Rbt.Parameter_File>
/export/apps/rDock/src/rDock_2013.1_src/data/scripts/dock_solv.prm

>  <Rbt.Receptor>
prm/blind_docking_60.prm

>  <SCORE>
-14.649

>  <SCORE.INTER>
-10.2355

>  <SCORE.INTER.CONST>
1

>  <SCORE.INTER.POLAR>
0

>  <SCORE.INTER.ROT>
4

>  <SCORE.INTER.SOLV>
12.5447

>  <SCORE.INTER.VDW>
-17.2719

>  <SCORE.INTER.norm>
-0.445021

>  <SCORE.INTRA>
-4.41354

>  <SCORE.INTRA.DIHEDRAL>
-5.74062

>  <SCORE.INTRA.DIHEDRAL.0>
8.62657

>  <SCORE.INTRA.POLAR>
0

>  <SCORE.INTRA.POLAR.0>
0

>  <SCORE.INTRA.REPUL>
0

>  <SCORE.INTRA.REPUL.0>
0

>  <SCORE.INTRA.SOLV>
3.19418

>  <SCORE.INTRA.SOLV.lig_0>
-66.3641

>  <SCORE.INTRA.VDW>
-3.14032

>  <SCORE.INTRA.VDW.0>
0.452231

>  <SCORE.INTRA.norm>
-0.191893

>  <SCORE.RESTR>
0

>  <SCORE.RESTR.CAVITY>
0

>  <SCORE.RESTR.norm>
0

>  <SCORE.SYSTEM>
0

>  <SCORE.SYSTEM.CONST>
0

>  <SCORE.SYSTEM.DIHEDRAL>
0

>  <SCORE.SYSTEM.SOLV>
0

>  <SCORE.SYSTEM.norm>
0

>  <SCORE.heavy>
23

>  <SCORE.norm>
-0.636914

>  <RMSD>
18.189

$$$$
ligand
 OpenBabel02271912143D
libRbt.so/2013.1/901 2013/11/27
 23 25  0  0  0  0  0  0  0  0999 V2000
    0.0510    4.2194   29.9686 P   0  0  1  0  0  0  0  0  0  0  0  0
    2.4352    5.2370   29.6003 C   0  0  0  0  0  0  0  0  0  0  0  0
    1.6531    4.0892   29.8996 O   0  0  0  0  0  0  0  0  0  0  0  0
    2.4776    5.3733   28.0949 C   0  0  1  0  0  0  0  0  0  0  0  0
    3.0572    6.6110   27.6839 O   0  0  0  0  0  0  0  0  0  0  0  0
    3.3204    4.2493   27.5162 C   0  0  1  0  0  0  0  0  0  0  0  0
    2.5988    3.6700   26.4154 O   0  0  0  0  0  0  0  0  0  0  0  0
    4.6178    4.9105   27.0680 C   0  0  0  0  0  0  0  0  0  0  0  0
    4.2608    6.3887   26.9375 C   0  0  2  0  0  0  0  0  0  0  0  0
    7.1837    7.1238   31.1146 N   0  0  0  0  0  0  0  0  0  0  0  0
    6.2601    6.1707   30.9087 C   0  0  2  0  0  0  0  0  0  0  0  0
    6.0525    5.2685   31.8958 N   0  0  0  0  0  0  0  0  0  0  0  0
    5.5665    6.1096   29.7464 N   0  0  0  0  0  0  0  0  0  0  0  0
    5.8035    7.0198   28.7794 C   0  0  2  0  0  0  0  0  0  0  0  0
    6.7465    8.0053   28.9759 C   0  0  1  0  0  0  0  0  0  0  0  0
    7.4465    8.0418   30.1669 C   0  0  0  0  0  0  0  0  0  0  0  0
    8.3105    8.9237   30.3622 O   0  0  0  0  0  0  0  0  0  0  0  0
    6.7801    8.7781   27.8723 N   0  0  0  0  0  0  0  0  0  0  0  0
    5.8815    8.2779   27.0059 C   0  0  0  0  0  0  0  0  0  0  0  0
    5.2895    7.2201   27.5711 N   0  0  1  0  0  0  0  0  0  0  0  0
   -0.5015    2.8185   30.0698 O   0  0  0  0  0  0  0  0  0  0  0  0
   -0.1925    5.0755   31.1901 O   0  5  0  0  0  0  0  0  0  0  0  0
   -0.2814    4.9037   28.6703 O   0  0  0  0  0  0  0  0  0  0  0  0
  1  3  1  6  0  0  0
  1 21  1  0  0  0  0
  1 22  1  0  0  0  0
  1 23  2  0  0  0  0
  2  3  1  0  0  0  0
  4  2  1  1  0  0  0
  4  5  1  0  0  0  0
  4  6  1  0  0  0  0
  6  7  1  6  0  0  0
  6  8  1  0  0  0  0
  8  9  1  0  0  0  0
  9  5  1  1  0  0  0
  9 20  1  0  0  0  0
 10 11  1  0  0  0  0
 10 16  1  0  0  0  0
 11 12  1  6  0  0  0
 11 13  1  0  0  0  0
 14 13  1  1  0  0  0
 14 15  1  0  0  0  0
 14 20  1  0  0  0  0
 15 16  1  6  0  0  0
 15 18  1  0  0  0  0
 16 17  2  0  0  0  0
 18 19  1  0  0  0  0
 20 19  1  6  0  0  0
M  CHG  1  22  -1
M  END
>  <CHROM.1>
170.68084707,170.66724203,-84.25519367,68.65258653,3.77515607,5.85812332
29.08497503,-3.09415022,-0.50490340,-1.49617650

>  <Name>
ligand

>  <RI>
0

>  <Rbt.Current_Directory>
/home/itssahil/PROJECTS/Mol_Feturizer/Test_systems_manuscript/rnas/3slm

>  <Rbt.Executable>
rbdock ($Id: //depot/dev/client3/rdock/2013.1/src/exe/rbdock.cxx#4 $)

>  <Rbt.Library>
libRbt.so (2013.1, Build901 2013/11/27)

>  <Rbt.Parameter_File>
/export/apps/rDock/src/rDock_2013.1_src/data/scripts/dock_solv.prm

>  <Rbt.Receptor>
prm/blind_docking_100.prm

>  <SCORE>
-20.7242

>  <SCORE.INTER>
-17.7435

>  <SCORE.INTER.CONST>
1

>  <SCORE.INTER.POLAR>
0

>  <SCORE.INTER.ROT>
4

>  <SCORE.INTER.SOLV>
13.8631

>  <SCORE.INTER.VDW>
-22.7167

>  <SCORE.INTER.norm>
-0.771455

>  <SCORE.INTRA>
-2.98077

>  <SCORE.INTRA.DIHEDRAL>
-4.43682

>  <SCORE.INTRA.DIHEDRAL.0>
8.62657

>  <SCORE.INTRA.POLAR>
0

>  <SCORE.INTRA.POLAR.0>
0

>  <SCORE.INTRA.REPUL>
0

>  <SCORE.INTRA.REPUL.0>
0

>  <SCORE.INTRA.SOLV>
2.76899

>  <SCORE.INTRA.SOLV.lig_0>
-66.3641

>  <SCORE.INTRA.VDW>
-2.14686

>  <SCORE.INTRA.VDW.0>
0.452231

>  <SCORE.INTRA.norm>
-0.129599

>  <SCORE.RESTR>
0

>  <SCORE.RESTR.CAVITY>
0

>  <SCORE.RESTR.norm>
0

>  <SCORE.SYSTEM>
0

>  <SCORE.SYSTEM.CONST>
0

>  <SCORE.SYSTEM.DIHEDRAL>
0

>  <SCORE.SYSTEM.SOLV>
0

>  <SCORE.SYSTEM.norm>
0

>  <SCORE.heavy>
23

>  <SCORE.norm>
-0.901054

>  <RMSD>
18.194

$$$$
ligand
 OpenBabel02271912143D
libRbt.so/2013.1/901 2013/11/27
 23 25  0  0  0  0  0  0  0  0999 V2000
    0.0270    4.6910   30.9891 P   0  0  1  0  0  0  0  0  0  0  0  0
    1.8457    4.0236   29.2277 C   0  0  0  0  0  0  0  0  0  0  0  0
    0.6452    4.7315   29.5043 O   0  0  0  0  0  0  0  0  0  0  0  0
    2.0564    4.0616   27.7308 C   0  0  1  0  0  0  0  0  0  0  0  0
    2.4937    5.3441   27.2826 O   0  0  0  0  0  0  0  0  0  0  0  0
    3.1222    3.0473   27.3515 C   0  0  1  0  0  0  0  0  0  0  0  0
    2.6384    2.2878   26.2302 O   0  0  0  0  0  0  0  0  0  0  0  0
    4.3535    3.8721   26.9982 C   0  0  0  0  0  0  0  0  0  0  0  0
    3.8012    5.2634   26.7001 C   0  0  2  0  0  0  0  0  0  0  0  0
    7.0901    9.1823   26.1027 N   0  0  0  0  0  0  0  0  0  0  0  0
    6.5418    8.4101   25.1504 C   0  0  2  0  0  0  0  0  0  0  0  0
    6.8632    8.6721   23.8621 N   0  0  0  0  0  0  0  0  0  0  0  0
    5.6875    7.4081   25.4695 N   0  0  0  0  0  0  0  0  0  0  0  0
    5.3819    7.1786   26.7632 C   0  0  2  0  0  0  0  0  0  0  0  0
    5.9376    7.9607   27.7524 C   0  0  1  0  0  0  0  0  0  0  0  0
    6.8001    8.9816   27.4010 C   0  0  0  0  0  0  0  0  0  0  0  0
    7.3097    9.7064   28.2827 O   0  0  0  0  0  0  0  0  0  0  0  0
    5.4786    7.5207   28.9407 N   0  0  0  0  0  0  0  0  0  0  0  0
    4.6495    6.4913   28.6933 C   0  0  0  0  0  0  0  0  0  0  0  0
    4.6077    6.2875   27.3721 N   0  0  1  0  0  0  0  0  0  0  0  0
   -1.2532    5.4898   30.9560 O   0  0  0  0  0  0  0  0  0  0  0  0
   -0.1644    3.2172   31.2638 O   0  5  0  0  0  0  0  0  0  0  0  0
    1.1109    5.3279   31.8161 O   0  0  0  0  0  0  0  0  0  0  0  0
  1  3  1  6  0  0  0
  1 21  1  0  0  0  0
  1 22  1  0  0  0  0
  1 23  2  0  0  0  0
  2  3  1  0  0  0  0
  4  2  1  1  0  0  0
  4  5  1  0  0  0  0
  4  6  1  0  0  0  0
  6  7  1  6  0  0  0
  6  8  1  0  0  0  0
  8  9  1  0  0  0  0
  9  5  1  1  0  0  0
  9 20  1  0  0  0  0
 10 11  1  0  0  0  0
 10 16  1  0  0  0  0
 11 12  1  6  0  0  0
 11 13  1  0  0  0  0
 14 13  1  1  0  0  0
 14 15  1  0  0  0  0
 14 20  1  0  0  0  0
 15 16  1  6  0  0  0
 15 18  1  0  0  0  0
 16 17  2  0  0  0  0
 18 19  1  0  0  0  0
 20 19  1  6  0  0  0
M  CHG  1  22  -1
M  END
>  <CHROM.1>
-178.22771269,74.26936474,171.13842363,-131.59418641,3.46183281,5.91096462
28.14619335,-3.13227935,-0.75091498,-2.34000107

>  <Name>
ligand

>  <RI>
0

>  <Rbt.Current_Directory>
/home/itssahil/PROJECTS/Mol_Feturizer/Test_systems_manuscript/rnas/3slm

>  <Rbt.Executable>
rbdock ($Id: //depot/dev/client3/rdock/2013.1/src/exe/rbdock.cxx#4 $)

>  <Rbt.Library>
libRbt.so (2013.1, Build901 2013/11/27)

>  <Rbt.Parameter_File>
/export/apps/rDock/src/rDock_2013.1_src/data/scripts/dock_solv.prm

>  <Rbt.Receptor>
prm/blind_docking_60.prm

>  <SCORE>
-17.6329

>  <SCORE.INTER>
-12.6013

>  <SCORE.INTER.CONST>
1

>  <SCORE.INTER.POLAR>
0

>  <SCORE.INTER.ROT>
4

>  <SCORE.INTER.SOLV>
12.6407

>  <SCORE.INTER.VDW>
-18.8811

>  <SCORE.INTER.norm>
-0.547881

>  <SCORE.INTRA>
-5.03161

>  <SCORE.INTRA.DIHEDRAL>
-6.29468

>  <SCORE.INTRA.DIHEDRAL.0>
8.62657

>  <SCORE.INTRA.POLAR>
0

>  <SCORE.INTRA.POLAR.0>
0

>  <SCORE.INTRA.REPUL>
0

>  <SCORE.INTRA.REPUL.0>
0

>  <SCORE.INTRA.SOLV>
-0.102039

>  <SCORE.INTRA.SOLV.lig_0>
-66.3641

>  <SCORE.INTRA.VDW>
-1.83325

>  <SCORE.INTRA.VDW.0>
0.452231

>  <SCORE.INTRA.norm>
-0.218766

>  <SCORE.RESTR>
0

>  <SCORE.RESTR.CAVITY>
0

>  <SCORE.RESTR.norm>
0

>  <SCORE.SYSTEM>
0

>  <SCORE.SYSTEM.CONST>
0

>  <SCORE.SYSTEM.DIHEDRAL>
0

>  <SCORE.SYSTEM.SOLV>
0

>  <SCORE.SYSTEM.norm>
0

>  <SCORE.heavy>
23

>  <SCORE.norm>
-0.766646

>  <RMSD>
18.227

$$$$
ligand
 OpenBabel02271912143D
libRbt.so/2013.1/901 2013/11/27
 23 25  0  0  0  0  0  0  0  0999 V2000
    0.3538    5.3227   31.0585 P   0  0  1  0  0  0  0  0  0  0  0  0
    2.2750    5.2485   29.2812 C   0  0  0  0  0  0  0  0  0  0  0  0
    1.0070    5.7677   29.6572 O   0  0  0  0  0  0  0  0  0  0  0  0
    2.4332    5.4779   27.7950 C   0  0  1  0  0  0  0  0  0  0  0  0
    3.0694    6.7230   27.5087 O   0  0  0  0  0  0  0  0  0  0  0  0
    3.2917    4.3703   27.2081 C   0  0  1  0  0  0  0  0  0  0  0  0
    2.6420    3.8810   26.0221 O   0  0  0  0  0  0  0  0  0  0  0  0
    4.6335    5.0229   26.9001 C   0  0  0  0  0  0  0  0  0  0  0  0
    4.3204    6.5156   26.8398 C   0  0  2  0  0  0  0  0  0  0  0  0
    6.8324    6.9925   31.3113 N   0  0  0  0  0  0  0  0  0  0  0  0
    5.8908    6.0927   30.9834 C   0  0  2  0  0  0  0  0  0  0  0  0
    5.5410    5.1762   31.9158 N   0  0  0  0  0  0  0  0  0  0  0  0
    5.3175    6.0972   29.7558 N   0  0  0  0  0  0  0  0  0  0  0  0
    5.6947    7.0196   28.8467 C   0  0  2  0  0  0  0  0  0  0  0  0
    6.6582    7.9511   29.1681 C   0  0  1  0  0  0  0  0  0  0  0  0
    7.2337    7.9210   30.4242 C   0  0  0  0  0  0  0  0  0  0  0  0
    8.1138    8.7530   30.7332 O   0  0  0  0  0  0  0  0  0  0  0  0
    6.8408    8.7502   28.0983 N   0  0  0  0  0  0  0  0  0  0  0  0
    6.0129    8.3187   27.1305 C   0  0  0  0  0  0  0  0  0  0  0  0
    5.3170    7.2773   27.5996 N   0  0  1  0  0  0  0  0  0  0  0  0
   -0.9489    6.0725   31.1958 O   0  0  0  0  0  0  0  0  0  0  0  0
    0.2005    3.8247   30.9294 O   0  5  0  0  0  0  0  0  0  0  0  0
    1.3970    5.7433   32.0581 O   0  0  0  0  0  0  0  0  0  0  0  0
  1  3  1  6  0  0  0
  1 21  1  0  0  0  0
  1 22  1  0  0  0  0
  1 23  2  0  0  0  0
  2  3  1  0  0  0  0
  4  2  1  1  0  0  0
  4  5  1  0  0  0  0
  4  6  1  0  0  0  0
  6  7  1  6  0  0  0
  6  8  1  0  0  0  0
  8  9  1  0  0  0  0
  9  5  1  1  0  0  0
  9 20  1  0  0  0  0
 10 11  1  0  0  0  0
 10 16  1  0  0  0  0
 11 12  1  6  0  0  0
 11 13  1  0  0  0  0
 14 13  1  1  0  0  0
 14 15  1  0  0  0  0
 14 20  1  0  0  0  0
 15 16  1  6  0  0  0
 15 18  1  0  0  0  0
 16 17  2  0  0  0  0
 18 19  1  0  0  0  0
 20 19  1  6  0  0  0
M  CHG  1  22  -1
M  END
>  <CHROM.1>
177.87608102,91.30104734,162.79587407,65.76088547,3.77058483,6.18099449,29.36154484
-3.03373571,-0.41503604,-1.71203774

>  <Name>
ligand

>  <RI>
0

>  <Rbt.Current_Directory>
/home/itssahil/PROJECTS/Mol_Feturizer/Test_systems_manuscript/rnas/3slm

>  <Rbt.Executable>
rbdock ($Id: //depot/dev/client3/rdock/2013.1/src/exe/rbdock.cxx#4 $)

>  <Rbt.Library>
libRbt.so (2013.1, Build901 2013/11/27)

>  <Rbt.Parameter_File>
/export/apps/rDock/src/rDock_2013.1_src/data/scripts/dock_solv.prm

>  <Rbt.Receptor>
prm/blind_docking_100.prm

>  <SCORE>
-20.914

>  <SCORE.INTER>
-17.4732

>  <SCORE.INTER.CONST>
1

>  <SCORE.INTER.POLAR>
0

>  <SCORE.INTER.ROT>
4

>  <SCORE.INTER.SOLV>
10.5597

>  <SCORE.INTER.VDW>
-21.4354

>  <SCORE.INTER.norm>
-0.759702

>  <SCORE.INTRA>
-3.44088

>  <SCORE.INTRA.DIHEDRAL>
-3.21947

>  <SCORE.INTRA.DIHEDRAL.0>
8.62657

>  <SCORE.INTRA.POLAR>
0

>  <SCORE.INTRA.POLAR.0>
0

>  <SCORE.INTRA.REPUL>
0

>  <SCORE.INTRA.REPUL.0>
0

>  <SCORE.INTRA.SOLV>
1.02165

>  <SCORE.INTRA.SOLV.lig_0>
-66.3641

>  <SCORE.INTRA.VDW>
-2.34197

>  <SCORE.INTRA.VDW.0>
0.452231

>  <SCORE.INTRA.norm>
-0.149603

>  <SCORE.RESTR>
0

>  <SCORE.RESTR.CAVITY>
0

>  <SCORE.RESTR.norm>
0

>  <SCORE.SYSTEM>
0

>  <SCORE.SYSTEM.CONST>
0

>  <SCORE.SYSTEM.DIHEDRAL>
0

>  <SCORE.SYSTEM.SOLV>
0

>  <SCORE.SYSTEM.norm>
0

>  <SCORE.heavy>
23

>  <SCORE.norm>
-0.909306

>  <RMSD>
18.256

$$$$
ligand
 OpenBabel02271912143D
libRbt.so/2013.1/901 2013/11/27
 23 25  0  0  0  0  0  0  0  0999 V2000
   -0.1329    4.6521   30.7219 P   0  0  1  0  0  0  0  0  0  0  0  0
    1.6765    4.4147   28.8444 C   0  0  0  0  0  0  0  0  0  0  0  0
    0.6770    5.2204   29.4532 O   0  0  0  0  0  0  0  0  0  0  0  0
    2.1251    5.1263   27.5879 C   0  0  1  0  0  0  0  0  0  0  0  0
    2.8864    6.2983   27.8772 O   0  0  0  0  0  0  0  0  0  0  0  0
    3.0014    4.1914   26.7714 C   0  0  1  0  0  0  0  0  0  0  0  0
    2.5534    4.2368   25.4056 O   0  0  0  0  0  0  0  0  0  0  0  0
    4.4181    4.7292   26.9293 C   0  0  0  0  0  0  0  0  0  0  0  0
    4.2235    6.1761   27.3746 C   0  0  2  0  0  0  0  0  0  0  0  0
    7.7623    9.4095   29.2597 N   0  0  0  0  0  0  0  0  0  0  0  0
    7.1464    9.4612   28.0673 C   0  0  2  0  0  0  0  0  0  0  0  0
    7.4631   10.4814   27.2364 N   0  0  0  0  0  0  0  0  0  0  0  0
    6.2310    8.5273   27.7128 N   0  0  0  0  0  0  0  0  0  0  0  0
    5.9324    7.5275   28.5678 C   0  0  2  0  0  0  0  0  0  0  0  0
    6.5571    7.4592   29.7943 C   0  0  1  0  0  0  0  0  0  0  0  0
    7.4813    8.4281   30.1359 C   0  0  0  0  0  0  0  0  0  0  0  0
    8.0542    8.3877   31.2462 O   0  0  0  0  0  0  0  0  0  0  0  0
    6.0892    6.3738   30.4420 N   0  0  0  0  0  0  0  0  0  0  0  0
    5.1875    5.7850   29.6368 C   0  0  0  0  0  0  0  0  0  0  0  0
    5.1095    6.4870   28.5011 N   0  0  1  0  0  0  0  0  0  0  0  0
    0.8919    4.2252   31.7444 O   0  0  0  0  0  0  0  0  0  0  0  0
   -0.9971    5.8148   31.1528 O   0  5  0  0  0  0  0  0  0  0  0  0
   -0.9075    3.5044   30.1327 O   0  0  0  0  0  0  0  0  0  0  0  0
  1  3  1  6  0  0  0
  1 21  1  0  0  0  0
  1 22  1  0  0  0  0
  1 23  2  0  0  0  0
  2  3  1  0  0  0  0
  4  2  1  1  0  0  0
  4  5  1  0  0  0  0
  4  6  1  0  0  0  0
  6  7  1  6  0  0  0
  6  8  1  0  0  0  0
  8  9  1  0  0  0  0
  9  5  1  1  0  0  0
  9 20  1  0  0  0  0
 10 11  1  0  0  0  0
 10 16  1  0  0  0  0
 11 12  1  1  0  0  0
 11 13  1  0  0  0  0
 14 13  1  6  0  0  0
 14 15  1  0  0  0  0
 14 20  1  0  0  0  0
 15 16  1  1  0  0  0
 15 18  1  0  0  0  0
 16 17  2  0  0  0  0
 18 19  1  0  0  0  0
 20 19  1  1  0  0  0
M  CHG  1  22  -1
M  END
>  <CHROM.1>
53.82520608,70.90621270,172.62861567,-115.19616554,3.70115701,6.23097567
29.01850400,3.12812547,-0.54720017,-1.82325497

>  <Name>
ligand

>  <RI>
0

>  <Rbt.Current_Directory>
/home/itssahil/PROJECTS/Mol_Feturizer/Test_systems_manuscript/rnas/3slm

>  <Rbt.Executable>
rbdock ($Id: //depot/dev/client3/rdock/2013.1/src/exe/rbdock.cxx#4 $)

>  <Rbt.Library>
libRbt.so (2013.1, Build901 2013/11/27)

>  <Rbt.Parameter_File>
/export/apps/rDock/src/rDock_2013.1_src/data/scripts/dock_solv.prm

>  <Rbt.Receptor>
prm/blind_docking_60.prm

>  <SCORE>
-20.8536

>  <SCORE.INTER>
-15.3863

>  <SCORE.INTER.CONST>
1

>  <SCORE.INTER.POLAR>
0

>  <SCORE.INTER.ROT>
4

>  <SCORE.INTER.SOLV>
20.6986

>  <SCORE.INTER.VDW>
-23.4237

>  <SCORE.INTER.norm>
-0.668968

>  <SCORE.INTRA>
-5.46729

>  <SCORE.INTRA.DIHEDRAL>
-6.69938

>  <SCORE.INTRA.DIHEDRAL.0>
8.62657

>  <SCORE.INTRA.POLAR>
0

>  <SCORE.INTRA.POLAR.0>
0

>  <SCORE.INTRA.REPUL>
0

>  <SCORE.INTRA.REPUL.0>
0

>  <SCORE.INTRA.SOLV>
-0.735201

>  <SCORE.INTRA.SOLV.lig_0>
-66.3641

>  <SCORE.INTRA.VDW>
-1.75

>  <SCORE.INTRA.VDW.0>
0.452231

>  <SCORE.INTRA.norm>
-0.237708

>  <SCORE.RESTR>
0

>  <SCORE.RESTR.CAVITY>
0

>  <SCORE.RESTR.norm>
0

>  <SCORE.SYSTEM>
0

>  <SCORE.SYSTEM.CONST>
0

>  <SCORE.SYSTEM.DIHEDRAL>
0

>  <SCORE.SYSTEM.SOLV>
0

>  <SCORE.SYSTEM.norm>
0

>  <SCORE.heavy>
23

>  <SCORE.norm>
-0.906677

>  <RMSD>
18.266

$$$$
ligand
 OpenBabel02271912143D
libRbt.so/2013.1/901 2013/11/27
 23 25  0  0  0  0  0  0  0  0999 V2000
    0.2074    4.7194   30.8635 P   0  0  1  0  0  0  0  0  0  0  0  0
    2.0121    5.6806   29.2282 C   0  0  0  0  0  0  0  0  0  0  0  0
    0.9889    4.7218   29.4573 O   0  0  0  0  0  0  0  0  0  0  0  0
    2.3588    5.6269   27.7574 C   0  0  1  0  0  0  0  0  0  0  0  0
    3.1168    6.7628   27.3426 O   0  0  0  0  0  0  0  0  0  0  0  0
    3.1931    4.3862   27.4869 C   0  0  1  0  0  0  0  0  0  0  0  0
    2.6503    3.7251   26.3309 O   0  0  0  0  0  0  0  0  0  0  0  0
    4.6073    4.8985   27.2442 C   0  0  0  0  0  0  0  0  0  0  0  0
    4.4176    6.3700   26.8855 C   0  0  2  0  0  0  0  0  0  0  0  0
    6.8661    7.1267   31.3536 N   0  0  0  0  0  0  0  0  0  0  0  0
    5.9664    6.1756   31.0543 C   0  0  2  0  0  0  0  0  0  0  0  0
    5.6471    5.2820   32.0192 N   0  0  0  0  0  0  0  0  0  0  0  0
    5.4047    6.1079   29.8231 N   0  0  0  0  0  0  0  0  0  0  0  0
    5.7510    7.0096   28.8814 C   0  0  2  0  0  0  0  0  0  0  0  0
    6.6712    7.9931   29.1733 C   0  0  1  0  0  0  0  0  0  0  0  0
    7.2359    8.0363   30.4339 C   0  0  0  0  0  0  0  0  0  0  0  0
    8.0773    8.9163   30.7166 O   0  0  0  0  0  0  0  0  0  0  0  0
    6.8297    8.7570   28.0744 N   0  0  0  0  0  0  0  0  0  0  0  0
    6.0296    8.2534   27.1181 C   0  0  0  0  0  0  0  0  0  0  0  0
    5.3742    7.2023   27.6224 N   0  0  1  0  0  0  0  0  0  0  0  0
   -0.4228    6.0819   31.0204 O   0  0  0  0  0  0  0  0  0  0  0  0
   -0.7832    3.5860   30.7277 O   0  5  0  0  0  0  0  0  0  0  0  0
    1.3083    4.4494   31.8533 O   0  0  0  0  0  0  0  0  0  0  0  0
  1  3  1  6  0  0  0
  1 21  1  0  0  0  0
  1 22  1  0  0  0  0
  1 23  2  0  0  0  0
  2  3  1  0  0  0  0
  4  2  1  1  0  0  0
  4  5  1  0  0  0  0
  4  6  1  0  0  0  0
  6  7  1  6  0  0  0
  6  8  1  0  0  0  0
  8  9  1  0  0  0  0
  9  5  1  1  0  0  0
  9 20  1  0  0  0  0
 10 11  1  0  0  0  0
 10 16  1  0  0  0  0
 11 12  1  6  0  0  0
 11 13  1  0  0  0  0
 14 13  1  1  0  0  0
 14 15  1  0  0  0  0
 14 20  1  0  0  0  0
 15 16  1  6  0  0  0
 15 18  1  0  0  0  0
 16 17  2  0  0  0  0
 18 19  1  0  0  0  0
 20 19  1  6  0  0  0
M  CHG  1  22  -1
M  END
>  <CHROM.1>
58.46483361,165.00473120,-168.68856376,77.85460816,3.73381920,6.03420865
29.34848229,-3.04958239,-0.47171983,-1.62726019

>  <Name>
ligand

>  <RI>
0

>  <Rbt.Current_Directory>
/home/itssahil/PROJECTS/Mol_Feturizer/Test_systems_manuscript/rnas/3slm

>  <Rbt.Executable>
rbdock ($Id: //depot/dev/client3/rdock/2013.1/src/exe/rbdock.cxx#4 $)

>  <Rbt.Library>
libRbt.so (2013.1, Build901 2013/11/27)

>  <Rbt.Parameter_File>
/export/apps/rDock/src/rDock_2013.1_src/data/scripts/dock_solv.prm

>  <Rbt.Receptor>
prm/blind_docking_40.prm

>  <SCORE>
-22.7203

>  <SCORE.INTER>
-17.71

>  <SCORE.INTER.CONST>
1

>  <SCORE.INTER.POLAR>
0

>  <SCORE.INTER.ROT>
4

>  <SCORE.INTER.SOLV>
10.8203

>  <SCORE.INTER.VDW>
-21.6801

>  <SCORE.INTER.norm>
-0.769999

>  <SCORE.INTRA>
-5.01029

>  <SCORE.INTRA.DIHEDRAL>
-5.99505

>  <SCORE.INTRA.DIHEDRAL.0>
8.62657

>  <SCORE.INTRA.POLAR>
0

>  <SCORE.INTRA.POLAR.0>
0

>  <SCORE.INTRA.REPUL>
0

>  <SCORE.INTRA.REPUL.0>
0

>  <SCORE.INTRA.SOLV>
-0.372797

>  <SCORE.INTRA.SOLV.lig_0>
-66.3641

>  <SCORE.INTRA.VDW>
-1.82637

>  <SCORE.INTRA.VDW.0>
0.452231

>  <SCORE.INTRA.norm>
-0.217839

>  <SCORE.RESTR>
0

>  <SCORE.RESTR.CAVITY>
0

>  <SCORE.RESTR.norm>
0

>  <SCORE.SYSTEM>
0

>  <SCORE.SYSTEM.CONST>
0

>  <SCORE.SYSTEM.DIHEDRAL>
0

>  <SCORE.SYSTEM.SOLV>
0

>  <SCORE.SYSTEM.norm>
0

>  <SCORE.heavy>
23

>  <SCORE.norm>
-0.987838

>  <RMSD>
18.268

$$$$
ligand
 OpenBabel02271912143D
libRbt.so/2013.1/901 2013/11/27
 23 25  0  0  0  0  0  0  0  0999 V2000
    1.8983    5.0865   28.8569 P   0  0  1  0  0  0  0  0  0  0  0  0
    4.3878    5.7542   29.3174 C   0  0  0  0  0  0  0  0  0  0  0  0
    3.0126    5.9879   29.5878 O   0  0  0  0  0  0  0  0  0  0  0  0
    5.1779    6.8129   30.0531 C   0  0  1  0  0  0  0  0  0  0  0  0
    4.9661    6.7579   31.4634 O   0  0  0  0  0  0  0  0  0  0  0  0
    6.6598    6.5978   29.7958 C   0  0  1  0  0  0  0  0  0  0  0  0
    7.2426    7.8658   29.4486 O   0  0  0  0  0  0  0  0  0  0  0  0
    7.2182    6.0476   31.1022 C   0  0  0  0  0  0  0  0  0  0  0  0
    6.1856    6.4505   32.1516 C   0  0  2  0  0  0  0  0  0  0  0  0
    2.7457    4.3206   35.3395 N   0  0  0  0  0  0  0  0  0  0  0  0
    2.6537    5.4897   34.6850 C   0  0  2  0  0  0  0  0  0  0  0  0
    1.5270    6.2205   34.8526 N   0  0  0  0  0  0  0  0  0  0  0  0
    3.6527    5.9179   33.8760 N   0  0  0  0  0  0  0  0  0  0  0  0
    4.7593    5.1614   33.7248 C   0  0  2  0  0  0  0  0  0  0  0  0
    4.8700    3.9601   34.3910 C   0  0  1  0  0  0  0  0  0  0  0  0
    3.8341    3.5414   35.2042 C   0  0  0  0  0  0  0  0  0  0  0  0
    3.9121    2.4520   35.8120 O   0  0  0  0  0  0  0  0  0  0  0  0
    6.0615    3.4151   34.0754 N   0  0  0  0  0  0  0  0  0  0  0  0
    6.6744    4.2576   33.2251 C   0  0  0  0  0  0  0  0  0  0  0  0
    5.8803    5.3158   33.0292 N   0  0  1  0  0  0  0  0  0  0  0  0
    1.9871    5.3865   27.3804 O   0  0  0  0  0  0  0  0  0  0  0  0
    2.2736    3.6707   29.2293 O   0  5  0  0  0  0  0  0  0  0  0  0
    0.6195    5.5633   29.4907 O   0  0  0  0  0  0  0  0  0  0  0  0
  1  3  1  1  0  0  0
  1 21  1  0  0  0  0
  1 22  1  0  0  0  0
  1 23  2  0  0  0  0
  2  3  1  0  0  0  0
  4  2  1  6  0  0  0
  4  5  1  0  0  0  0
  4  6  1  0  0  0  0
  6  7  1  1  0  0  0
  6  8  1  0  0  0  0
  8  9  1  0  0  0  0
  9  5  1  6  0  0  0
  9 20  1  0  0  0  0
 10 11  1  0  0  0  0
 10 16  1  0  0  0  0
 11 12  1  6  0  0  0
 11 13  1  0  0  0  0
 14 13  1  1  0  0  0
 14 15  1  0  0  0  0
 14 20  1  0  0  0  0
 15 16  1  6  0  0  0
 15 18  1  0  0  0  0
 16 17  2  0  0  0  0
 18 19  1  0  0  0  0
 20 19  1  6  0  0  0
M  CHG  1  22  -1
M  END
>  <CHROM.1>
-64.82950637,60.35816296,175.56787398,-39.87539278,4.09343834,5.31084320
31.72464123,1.75662850,-0.28038252,-1.27183281

>  <Name>
ligand

>  <RI>
0

>  <Rbt.Current_Directory>
/home/itssahil/PROJECTS/Mol_Feturizer/Test_systems_manuscript/rnas/3slm

>  <Rbt.Executable>
rbdock ($Id: //depot/dev/client3/rdock/2013.1/src/exe/rbdock.cxx#4 $)

>  <Rbt.Library>
libRbt.so (2013.1, Build901 2013/11/27)

>  <Rbt.Parameter_File>
/export/apps/rDock/src/rDock_2013.1_src/data/scripts/dock_solv.prm

>  <Rbt.Receptor>
prm/blind_docking_40.prm

>  <SCORE>
-17.7079

>  <SCORE.INTER>
-12.7776

>  <SCORE.INTER.CONST>
1

>  <SCORE.INTER.POLAR>
0

>  <SCORE.INTER.ROT>
4

>  <SCORE.INTER.SOLV>
12.1484

>  <SCORE.INTER.VDW>
-18.8345

>  <SCORE.INTER.norm>
-0.555549

>  <SCORE.INTRA>
-4.93028

>  <SCORE.INTRA.DIHEDRAL>
-7.24848

>  <SCORE.INTRA.DIHEDRAL.0>
8.62657

>  <SCORE.INTRA.POLAR>
0

>  <SCORE.INTRA.POLAR.0>
0

>  <SCORE.INTRA.REPUL>
0

>  <SCORE.INTRA.REPUL.0>
0

>  <SCORE.INTRA.SOLV>
-0.625589

>  <SCORE.INTRA.SOLV.lig_0>
-66.3641

>  <SCORE.INTRA.VDW>
-0.993242

>  <SCORE.INTRA.VDW.0>
0.452231

>  <SCORE.INTRA.norm>
-0.21436

>  <SCORE.RESTR>
0

>  <SCORE.RESTR.CAVITY>
0

>  <SCORE.RESTR.norm>
0

>  <SCORE.SYSTEM>
0

>  <SCORE.SYSTEM.CONST>
0

>  <SCORE.SYSTEM.DIHEDRAL>
0

>  <SCORE.SYSTEM.SOLV>
0

>  <SCORE.SYSTEM.norm>
0

>  <SCORE.heavy>
23

>  <SCORE.norm>
-0.769909

>  <RMSD>
18.269

$$$$
ligand
 OpenBabel02271912143D
libRbt.so/2013.1/901 2013/11/27
 23 25  0  0  0  0  0  0  0  0999 V2000
    2.0833   -1.0227   27.4997 P   0  0  1  0  0  0  0  0  0  0  0  0
    1.1138    0.9572   28.9123 C   0  0  0  0  0  0  0  0  0  0  0  0
    2.1877    0.0535   28.6910 O   0  0  0  0  0  0  0  0  0  0  0  0
    1.4998    1.8385   30.0789 C   0  0  1  0  0  0  0  0  0  0  0  0
    2.6955    2.5745   29.8232 O   0  0  0  0  0  0  0  0  0  0  0  0
    0.3848    2.8373   30.3394 C   0  0  1  0  0  0  0  0  0  0  0  0
    0.1111    2.8444   31.7512 O   0  0  0  0  0  0  0  0  0  0  0  0
    0.9236    4.1764   29.8520 C   0  0  0  0  0  0  0  0  0  0  0  0
    2.4376    3.9847   29.8241 C   0  0  2  0  0  0  0  0  0  0  0  0
    5.7672    7.2599   27.6518 N   0  0  0  0  0  0  0  0  0  0  0  0
    5.5120    7.0855   28.9587 C   0  0  2  0  0  0  0  0  0  0  0  0
    6.2042    7.8399   29.8437 N   0  0  0  0  0  0  0  0  0  0  0  0
    4.5980    6.1768   29.3768 N   0  0  0  0  0  0  0  0  0  0  0  0
    3.9309    5.4352   28.4687 C   0  0  2  0  0  0  0  0  0  0  0  0
    4.1798    5.6035   27.1238 C   0  0  1  0  0  0  0  0  0  0  0  0
    5.1224    6.5311   26.7228 C   0  0  0  0  0  0  0  0  0  0  0  0
    5.3675    6.6944   25.5080 O   0  0  0  0  0  0  0  0  0  0  0  0
    3.3839    4.7562   26.4419 N   0  0  0  0  0  0  0  0  0  0  0  0
    2.6613    4.0711   27.3456 C   0  0  0  0  0  0  0  0  0  0  0  0
    2.9941    4.4989   28.5683 N   0  0  1  0  0  0  0  0  0  0  0  0
    0.8006   -1.7900   27.7094 O   0  0  0  0  0  0  0  0  0  0  0  0
    2.1082   -0.1805   26.2450 O   0  5  0  0  0  0  0  0  0  0  0  0
    3.3206   -1.8560   27.6974 O   0  0  0  0  0  0  0  0  0  0  0  0
  1  3  1  1  0  0  0
  1 21  1  0  0  0  0
  1 22  1  0  0  0  0
  1 23  2  0  0  0  0
  2  3  1  0  0  0  0
  4  2  1  6  0  0  0
  4  5  1  0  0  0  0
  4  6  1  0  0  0  0
  6  7  1  1  0  0  0
  6  8  1  0  0  0  0
  8  9  1  0  0  0  0
  9  5  1  6  0  0  0
  9 20  1  0  0  0  0
 10 11  1  0  0  0  0
 10 16  1  0  0  0  0
 11 12  1  1  0  0  0
 11 13  1  0  0  0  0
 14 13  1  6  0  0  0
 14 15  1  0  0  0  0
 14 20  1  0  0  0  0
 15 16  1  1  0  0  0
 15 18  1  0  0  0  0
 16 17  2  0  0  0  0
 18 19  1  0  0  0  0
 20 19  1  1  0  0  0
M  CHG  1  22  -1
M  END
>  <CHROM.1>
-54.43006669,59.77272247,-179.73551689,-121.25960191,2.92018642,3.11374550
28.40314613,-2.29719544,0.88144384,0.57292436

>  <Name>
ligand

>  <RI>
0

>  <Rbt.Current_Directory>
/home/itssahil/PROJECTS/Mol_Feturizer/Test_systems_manuscript/rnas/3slm

>  <Rbt.Executable>
rbdock ($Id: //depot/dev/client3/rdock/2013.1/src/exe/rbdock.cxx#4 $)

>  <Rbt.Library>
libRbt.so (2013.1, Build901 2013/11/27)

>  <Rbt.Parameter_File>
/export/apps/rDock/src/rDock_2013.1_src/data/scripts/dock_solv.prm

>  <Rbt.Receptor>
prm/blind_docking_100.prm

>  <SCORE>
-17.3443

>  <SCORE.INTER>
-11.3498

>  <SCORE.INTER.CONST>
1

>  <SCORE.INTER.POLAR>
0

>  <SCORE.INTER.ROT>
4

>  <SCORE.INTER.SOLV>
11.0279

>  <SCORE.INTER.VDW>
-17.5092

>  <SCORE.INTER.norm>
-0.49347

>  <SCORE.INTRA>
-5.99452

>  <SCORE.INTRA.DIHEDRAL>
-7.35728

>  <SCORE.INTRA.DIHEDRAL.0>
8.62657

>  <SCORE.INTRA.POLAR>
0

>  <SCORE.INTRA.POLAR.0>
0

>  <SCORE.INTRA.REPUL>
0

>  <SCORE.INTRA.REPUL.0>
0

>  <SCORE.INTRA.SOLV>
-0.717425

>  <SCORE.INTRA.SOLV.lig_0>
-66.3641

>  <SCORE.INTRA.VDW>
-1.95717

>  <SCORE.INTRA.VDW.0>
0.452231

>  <SCORE.INTRA.norm>
-0.260631

>  <SCORE.RESTR>
0

>  <SCORE.RESTR.CAVITY>
0

>  <SCORE.RESTR.norm>
0

>  <SCORE.SYSTEM>
0

>  <SCORE.SYSTEM.CONST>
0

>  <SCORE.SYSTEM.DIHEDRAL>
0

>  <SCORE.SYSTEM.SOLV>
0

>  <SCORE.SYSTEM.norm>
0

>  <SCORE.heavy>
23

>  <SCORE.norm>
-0.754101

>  <RMSD>
18.464

$$$$
ligand
 OpenBabel02271912143D
libRbt.so/2013.1/901 2013/11/27
 23 25  0  0  0  0  0  0  0  0999 V2000
    0.8899    6.6281   35.7570 P   0  0  1  0  0  0  0  0  0  0  0  0
    2.0877    6.4293   33.4373 C   0  0  0  0  0  0  0  0  0  0  0  0
    1.1216    5.9060   34.3381 O   0  0  0  0  0  0  0  0  0  0  0  0
    2.1067    5.5279   32.2234 C   0  0  1  0  0  0  0  0  0  0  0  0
    2.8073    6.1168   31.1283 O   0  0  0  0  0  0  0  0  0  0  0  0
    2.8072    4.2274   32.5792 C   0  0  1  0  0  0  0  0  0  0  0  0
    1.9992    3.1383   32.1003 O   0  0  0  0  0  0  0  0  0  0  0  0
    4.1572    4.2933   31.8761 C   0  0  0  0  0  0  0  0  0  0  0  0
    3.9603    5.3386   30.7814 C   0  0  2  0  0  0  0  0  0  0  0  0
    6.6834    8.6846   27.9670 N   0  0  0  0  0  0  0  0  0  0  0  0
    5.6336    7.9410   27.5811 C   0  0  2  0  0  0  0  0  0  0  0  0
    5.2047    8.0686   26.3039 N   0  0  0  0  0  0  0  0  0  0  0  0
    5.0189    7.0983   28.4458 N   0  0  0  0  0  0  0  0  0  0  0  0
    5.4668    7.0008   29.7145 C   0  0  2  0  0  0  0  0  0  0  0  0
    6.5441    7.7554   30.1256 C   0  0  1  0  0  0  0  0  0  0  0  0
    7.1492    8.6135   29.2271 C   0  0  0  0  0  0  0  0  0  0  0  0
    8.1236    9.3115   29.5820 O   0  0  0  0  0  0  0  0  0  0  0  0
    6.7884    7.4659   31.4190 N   0  0  0  0  0  0  0  0  0  0  0  0
    5.8767    6.5556   31.8044 C   0  0  0  0  0  0  0  0  0  0  0  0
    5.0892    6.2746   30.7606 N   0  0  1  0  0  0  0  0  0  0  0  0
    0.9118    8.1159   35.5037 O   0  0  0  0  0  0  0  0  0  0  0  0
   -0.4449    6.0945   36.2235 O   0  5  0  0  0  0  0  0  0  0  0  0
    2.0578    6.1404   36.5709 O   0  0  0  0  0  0  0  0  0  0  0  0
  1  3  1  6  0  0  0
  1 21  1  0  0  0  0
  1 22  1  0  0  0  0
  1 23  2  0  0  0  0
  2  3  1  0  0  0  0
  4  2  1  1  0  0  0
  4  5  1  0  0  0  0
  4  6  1  0  0  0  0
  6  7  1  6  0  0  0
  6  8  1  0  0  0  0
  8  9  1  0  0  0  0
  9  5  1  1  0  0  0
  9 20  1  0  0  0  0
 10 11  1  0  0  0  0
 10 16  1  0  0  0  0
 11 12  1  1  0  0  0
 11 13  1  0  0  0  0
 14 13  1  6  0  0  0
 14 15  1  0  0  0  0
 14 20  1  0  0  0  0
 15 16  1  1  0  0  0
 15 18  1  0  0  0  0
 16 17  2  0  0  0  0
 18 19  1  0  0  0  0
 20 19  1  1  0  0  0
M  CHG  1  22  -1
M  END
>  <CHROM.1>
41.55944305,166.53915210,178.40373722,-87.26278987,3.72596575,6.61643625
31.88908779,-2.67815435,-0.80645849,-2.25965920

>  <Name>
ligand

>  <RI>
0

>  <Rbt.Current_Directory>
/home/itssahil/PROJECTS/Mol_Feturizer/Test_systems_manuscript/rnas/3slm

>  <Rbt.Executable>
rbdock ($Id: //depot/dev/client3/rdock/2013.1/src/exe/rbdock.cxx#4 $)

>  <Rbt.Library>
libRbt.so (2013.1, Build901 2013/11/27)

>  <Rbt.Parameter_File>
/export/apps/rDock/src/rDock_2013.1_src/data/scripts/dock_solv.prm

>  <Rbt.Receptor>
prm/blind_docking_80.prm

>  <SCORE>
-14.5611

>  <SCORE.INTER>
-10.0634

>  <SCORE.INTER.CONST>
1

>  <SCORE.INTER.POLAR>
0

>  <SCORE.INTER.ROT>
4

>  <SCORE.INTER.SOLV>
12.1407

>  <SCORE.INTER.VDW>
-17.0225

>  <SCORE.INTER.norm>
-0.43754

>  <SCORE.INTRA>
-4.49772

>  <SCORE.INTRA.DIHEDRAL>
-6.3545

>  <SCORE.INTRA.DIHEDRAL.0>
8.62657

>  <SCORE.INTRA.POLAR>
0

>  <SCORE.INTRA.POLAR.0>
0

>  <SCORE.INTRA.REPUL>
0

>  <SCORE.INTRA.REPUL.0>
0

>  <SCORE.INTRA.SOLV>
-0.574491

>  <SCORE.INTRA.SOLV.lig_0>
-66.3641

>  <SCORE.INTRA.VDW>
-1.03322

>  <SCORE.INTRA.VDW.0>
0.452231

>  <SCORE.INTRA.norm>
-0.195553

>  <SCORE.RESTR>
0

>  <SCORE.RESTR.CAVITY>
0

>  <SCORE.RESTR.norm>
0

>  <SCORE.SYSTEM>
0

>  <SCORE.SYSTEM.CONST>
0

>  <SCORE.SYSTEM.DIHEDRAL>
0

>  <SCORE.SYSTEM.SOLV>
0

>  <SCORE.SYSTEM.norm>
0

>  <SCORE.heavy>
23

>  <SCORE.norm>
-0.633093

>  <RMSD>
18.532

$$$$
ligand
 OpenBabel02271912143D
libRbt.so/2013.1/901 2013/11/27
 23 25  0  0  0  0  0  0  0  0999 V2000
    4.2818    5.7740   29.5021 P   0  0  1  0  0  0  0  0  0  0  0  0
    4.6358    5.1887   32.0294 C   0  0  0  0  0  0  0  0  0  0  0  0
    5.2183    5.5905   30.7973 O   0  0  0  0  0  0  0  0  0  0  0  0
    5.7618    5.0081   33.0224 C   0  0  1  0  0  0  0  0  0  0  0  0
    5.2843    4.9113   34.3638 O   0  0  0  0  0  0  0  0  0  0  0  0
    6.5094    3.7252   32.7004 C   0  0  1  0  0  0  0  0  0  0  0  0
    7.9184    4.0128   32.7135 O   0  0  0  0  0  0  0  0  0  0  0  0
    6.1134    2.7440   33.7965 C   0  0  0  0  0  0  0  0  0  0  0  0
    5.5986    3.6310   34.9270 C   0  0  2  0  0  0  0  0  0  0  0  0
    0.5540    2.9884   34.1077 N   0  0  0  0  0  0  0  0  0  0  0  0
    1.4493    3.6004   33.3154 C   0  0  2  0  0  0  0  0  0  0  0  0
    1.0084    4.1150   32.1440 N   0  0  0  0  0  0  0  0  0  0  0  0
    2.7529    3.6904   33.6737 N   0  0  0  0  0  0  0  0  0  0  0  0
    3.1610    3.1597   34.8448 C   0  0  2  0  0  0  0  0  0  0  0  0
    2.2545    2.5302   35.6701 C   0  0  1  0  0  0  0  0  0  0  0  0
    0.9319    2.4444   35.2787 C   0  0  0  0  0  0  0  0  0  0  0  0
    0.0952    1.8719   36.0099 O   0  0  0  0  0  0  0  0  0  0  0  0
    2.9129    2.1024   36.7654 N   0  0  0  0  0  0  0  0  0  0  0  0
    4.2029    2.4529   36.6194 C   0  0  0  0  0  0  0  0  0  0  0  0
    4.3380    3.1015   35.4576 N   0  0  1  0  0  0  0  0  0  0  0  0
    3.7344    4.4105   29.1567 O   0  0  0  0  0  0  0  0  0  0  0  0
    3.2368    6.7713   29.9465 O   0  5  0  0  0  0  0  0  0  0  0  0
    5.2399    6.3141   28.4750 O   0  0  0  0  0  0  0  0  0  0  0  0
  1  3  1  1  0  0  0
  1 21  1  0  0  0  0
  1 22  1  0  0  0  0
  1 23  2  0  0  0  0
  2  3  1  0  0  0  0
  4  2  1  6  0  0  0
  4  5  1  0  0  0  0
  4  6  1  0  0  0  0
  6  7  1  1  0  0  0
  6  8  1  0  0  0  0
  8  9  1  0  0  0  0
  9  5  1  6  0  0  0
  9 20  1  0  0  0  0
 10 11  1  0  0  0  0
 10 16  1  0  0  0  0
 11 12  1  6  0  0  0
 11 13  1  0  0  0  0
 14 13  1  1  0  0  0
 14 15  1  0  0  0  0
 14 20  1  0  0  0  0
 15 16  1  6  0  0  0
 15 18  1  0  0  0  0
 16 17  2  0  0  0  0
 18 19  1  0  0  0  0
 20 19  1  6  0  0  0
M  CHG  1  22  -1
M  END
>  <CHROM.1>
-65.18620883,166.30534400,176.08016258,42.85606757,3.86219052,4.07934113
32.96203261,1.18817661,-0.09706598,-1.11145756

>  <Name>
ligand

>  <RI>
0

>  <Rbt.Current_Directory>
/home/itssahil/PROJECTS/Mol_Feturizer/Test_systems_manuscript/rnas/3slm

>  <Rbt.Executable>
rbdock ($Id: //depot/dev/client3/rdock/2013.1/src/exe/rbdock.cxx#4 $)

>  <Rbt.Library>
libRbt.so (2013.1, Build901 2013/11/27)

>  <Rbt.Parameter_File>
/export/apps/rDock/src/rDock_2013.1_src/data/scripts/dock_solv.prm

>  <Rbt.Receptor>
prm/blind_docking_100.prm

>  <SCORE>
-16.0651

>  <SCORE.INTER>
-10.9943

>  <SCORE.INTER.CONST>
1

>  <SCORE.INTER.POLAR>
0

>  <SCORE.INTER.ROT>
4

>  <SCORE.INTER.SOLV>
14.7957

>  <SCORE.INTER.VDW>
-18.5281

>  <SCORE.INTER.norm>
-0.478012

>  <SCORE.INTRA>
-5.0708

>  <SCORE.INTRA.DIHEDRAL>
-6.71411

>  <SCORE.INTRA.DIHEDRAL.0>
8.62657

>  <SCORE.INTRA.POLAR>
0

>  <SCORE.INTRA.POLAR.0>
0

>  <SCORE.INTRA.REPUL>
0

>  <SCORE.INTRA.REPUL.0>
0

>  <SCORE.INTRA.SOLV>
1.53919

>  <SCORE.INTRA.SOLV.lig_0>
-66.3641

>  <SCORE.INTRA.VDW>
-2.48334

>  <SCORE.INTRA.VDW.0>
0.452231

>  <SCORE.INTRA.norm>
-0.22047

>  <SCORE.RESTR>
0

>  <SCORE.RESTR.CAVITY>
0

>  <SCORE.RESTR.norm>
0

>  <SCORE.SYSTEM>
0

>  <SCORE.SYSTEM.CONST>
0

>  <SCORE.SYSTEM.DIHEDRAL>
0

>  <SCORE.SYSTEM.SOLV>
0

>  <SCORE.SYSTEM.norm>
0

>  <SCORE.heavy>
23

>  <SCORE.norm>
-0.698482

>  <RMSD>
18.598

$$$$
ligand
 OpenBabel02271912143D
libRbt.so/2013.1/901 2013/11/27
 23 25  0  0  0  0  0  0  0  0999 V2000
    0.5858    4.9341   30.7258 P   0  0  1  0  0  0  0  0  0  0  0  0
    2.1552    3.9354   28.8834 C   0  0  0  0  0  0  0  0  0  0  0  0
    2.0442    4.6139   30.1268 O   0  0  0  0  0  0  0  0  0  0  0  0
    3.6165    3.9436   28.4946 C   0  0  1  0  0  0  0  0  0  0  0  0
    3.8724    3.1288   27.3512 O   0  0  0  0  0  0  0  0  0  0  0  0
    4.0345    5.3648   28.1568 C   0  0  1  0  0  0  0  0  0  0  0  0
    5.2724    5.6403   28.8348 O   0  0  0  0  0  0  0  0  0  0  0  0
    4.1922    5.3873   26.6416 C   0  0  0  0  0  0  0  0  0  0  0  0
    4.3607    3.9193   26.2593 C   0  0  2  0  0  0  0  0  0  0  0  0
    0.9002    0.6434   24.3034 N   0  0  0  0  0  0  0  0  0  0  0  0
    1.5154    0.5822   25.4956 C   0  0  2  0  0  0  0  0  0  0  0  0
    1.2042   -0.4492   26.3148 N   0  0  0  0  0  0  0  0  0  0  0  0
    2.4108    1.5280   25.8691 N   0  0  0  0  0  0  0  0  0  0  0  0
    2.6925    2.5475   25.0320 C   0  0  2  0  0  0  0  0  0  0  0  0
    2.0713    2.6237   23.8042 C   0  0  1  0  0  0  0  0  0  0  0  0
    1.1559    1.6511   23.4495 C   0  0  0  0  0  0  0  0  0  0  0  0
    0.5768    1.7056   22.3431 O   0  0  0  0  0  0  0  0  0  0  0  0
    2.5317    3.7200   23.1698 N   0  0  0  0  0  0  0  0  0  0  0  0
    3.4151    4.3158   23.9903 C   0  0  0  0  0  0  0  0  0  0  0  0
    3.5113    3.5905   25.1098 N   0  0  1  0  0  0  0  0  0  0  0  0
   -0.0414    5.9731   29.8284 O   0  0  0  0  0  0  0  0  0  0  0  0
   -0.1148    3.5950   30.7140 O   0  5  0  0  0  0  0  0  0  0  0  0
    0.8999    5.4439   32.1064 O   0  0  0  0  0  0  0  0  0  0  0  0
  1  3  1  6  0  0  0
  1 21  1  0  0  0  0
  1 22  1  0  0  0  0
  1 23  2  0  0  0  0
  2  3  1  0  0  0  0
  4  2  1  6  0  0  0
  4  5  1  0  0  0  0
  4  6  1  0  0  0  0
  6  7  1  1  0  0  0
  6  8  1  0  0  0  0
  8  9  1  0  0  0  0
  9  5  1  1  0  0  0
  9 20  1  0  0  0  0
 10 11  1  0  0  0  0
 10 16  1  0  0  0  0
 11 12  1  1  0  0  0
 11 13  1  0  0  0  0
 14 13  1  6  0  0  0
 14 15  1  0  0  0  0
 14 20  1  0  0  0  0
 15 16  1  1  0  0  0
 15 18  1  0  0  0  0
 16 17  2  0  0  0  0
 18 19  1  0  0  0  0
 20 19  1  1  0  0  0
M  CHG  1  22  -1
M  END
>  <CHROM.1>
-68.67242254,171.93001216,172.53754390,-14.67414825,2.18099797,3.54144850
27.16557803,1.65440877,0.58414935,1.08272053

>  <Name>
ligand

>  <RI>
0

>  <Rbt.Current_Directory>
/home/itssahil/PROJECTS/Mol_Feturizer/Test_systems_manuscript/rnas/3slm

>  <Rbt.Executable>
rbdock ($Id: //depot/dev/client3/rdock/2013.1/src/exe/rbdock.cxx#4 $)

>  <Rbt.Library>
libRbt.so (2013.1, Build901 2013/11/27)

>  <Rbt.Parameter_File>
/export/apps/rDock/src/rDock_2013.1_src/data/scripts/dock_solv.prm

>  <Rbt.Receptor>
prm/blind_docking_100.prm

>  <SCORE>
-15.3185

>  <SCORE.INTER>
-10.5184

>  <SCORE.INTER.CONST>
1

>  <SCORE.INTER.POLAR>
0

>  <SCORE.INTER.ROT>
4

>  <SCORE.INTER.SOLV>
8.34175

>  <SCORE.INTER.VDW>
-16.0595

>  <SCORE.INTER.norm>
-0.457321

>  <SCORE.INTRA>
-4.80008

>  <SCORE.INTRA.DIHEDRAL>
-6.77313

>  <SCORE.INTRA.DIHEDRAL.0>
8.62657

>  <SCORE.INTRA.POLAR>
0

>  <SCORE.INTRA.POLAR.0>
0

>  <SCORE.INTRA.REPUL>
0

>  <SCORE.INTRA.REPUL.0>
0

>  <SCORE.INTRA.SOLV>
-0.408046

>  <SCORE.INTRA.SOLV.lig_0>
-66.3641

>  <SCORE.INTRA.VDW>
-1.20949

>  <SCORE.INTRA.VDW.0>
0.452231

>  <SCORE.INTRA.norm>
-0.208699

>  <SCORE.RESTR>
0

>  <SCORE.RESTR.CAVITY>
0

>  <SCORE.RESTR.norm>
0

>  <SCORE.SYSTEM>
0

>  <SCORE.SYSTEM.CONST>
0

>  <SCORE.SYSTEM.DIHEDRAL>
0

>  <SCORE.SYSTEM.SOLV>
0

>  <SCORE.SYSTEM.norm>
0

>  <SCORE.heavy>
23

>  <SCORE.norm>
-0.66602

>  <RMSD>
18.654

$$$$
ligand
 OpenBabel02271912143D
libRbt.so/2013.1/901 2013/11/27
 23 25  0  0  0  0  0  0  0  0999 V2000
   -0.1240    4.9488   30.6223 P   0  0  1  0  0  0  0  0  0  0  0  0
    1.8709    4.0961   32.0882 C   0  0  0  0  0  0  0  0  0  0  0  0
    0.5451    4.6052   32.0445 O   0  0  0  0  0  0  0  0  0  0  0  0
    2.0154    3.3261   33.3816 C   0  0  1  0  0  0  0  0  0  0  0  0
    3.1965    2.5252   33.4005 O   0  0  0  0  0  0  0  0  0  0  0  0
    2.0990    4.3069   34.5390 C   0  0  1  0  0  0  0  0  0  0  0  0
    1.2014    3.8602   35.5699 O   0  0  0  0  0  0  0  0  0  0  0  0
    3.5540    4.2726   34.9898 C   0  0  0  0  0  0  0  0  0  0  0  0
    4.0868    2.9521   34.4400 C   0  0  2  0  0  0  0  0  0  0  0  0
    6.8338    5.8212   31.1606 N   0  0  0  0  0  0  0  0  0  0  0  0
    5.5408    5.9587   31.4970 C   0  0  2  0  0  0  0  0  0  0  0  0
    4.8452    6.9722   30.9309 N   0  0  0  0  0  0  0  0  0  0  0  0
    4.9557    5.1156   32.3816 N   0  0  0  0  0  0  0  0  0  0  0  0
    5.6796    4.1202   32.9337 C   0  0  2  0  0  0  0  0  0  0  0  0
    7.0070    3.9644   32.5975 C   0  0  1  0  0  0  0  0  0  0  0  0
    7.5831    4.8420   31.6988 C   0  0  0  0  0  0  0  0  0  0  0  0
    8.7872    4.7217   31.3857 O   0  0  0  0  0  0  0  0  0  0  0  0
    7.4885    2.9040   33.2758 N   0  0  0  0  0  0  0  0  0  0  0  0
    6.4824    2.4164   34.0230 C   0  0  0  0  0  0  0  0  0  0  0  0
    5.3901    3.1550   33.7989 N   0  0  1  0  0  0  0  0  0  0  0  0
    0.7875    5.9344   29.9325 O   0  0  0  0  0  0  0  0  0  0  0  0
   -0.2263    3.6069   29.9344 O   0  5  0  0  0  0  0  0  0  0  0  0
   -1.4536    5.5337   31.0150 O   0  0  0  0  0  0  0  0  0  0  0  0
  1  3  1  1  0  0  0
  1 21  1  0  0  0  0
  1 22  1  0  0  0  0
  1 23  2  0  0  0  0
  2  3  1  0  0  0  0
  4  2  1  6  0  0  0
  4  5  1  0  0  0  0
  4  6  1  0  0  0  0
  6  7  1  1  0  0  0
  6  8  1  0  0  0  0
  8  9  1  0  0  0  0
  9  5  1  6  0  0  0
  9 20  1  0  0  0  0
 10 11  1  0  0  0  0
 10 16  1  0  0  0  0
 11 12  1  1  0  0  0
 11 13  1  0  0  0  0
 14 13  1  6  0  0  0
 14 15  1  0  0  0  0
 14 20  1  0  0  0  0
 15 16  1  1  0  0  0
 15 18  1  0  0  0  0
 16 17  2  0  0  0  0
 18 19  1  0  0  0  0
 20 19  1  1  0  0  0
M  CHG  1  22  -1
M  END
>  <CHROM.1>
-56.53470592,166.95334220,-155.78707757,69.03246713,3.48555018,4.38789480
32.37199042,-2.94700217,0.02797935,2.11419761

>  <Name>
ligand

>  <RI>
0

>  <Rbt.Current_Directory>
/home/itssahil/PROJECTS/Mol_Feturizer/Test_systems_manuscript/rnas/3slm

>  <Rbt.Executable>
rbdock ($Id: //depot/dev/client3/rdock/2013.1/src/exe/rbdock.cxx#4 $)

>  <Rbt.Library>
libRbt.so (2013.1, Build901 2013/11/27)

>  <Rbt.Parameter_File>
/export/apps/rDock/src/rDock_2013.1_src/data/scripts/dock_solv.prm

>  <Rbt.Receptor>
prm/blind_docking_60.prm

>  <SCORE>
-11.7288

>  <SCORE.INTER>
-7.34572

>  <SCORE.INTER.CONST>
1

>  <SCORE.INTER.POLAR>
0

>  <SCORE.INTER.ROT>
4

>  <SCORE.INTER.SOLV>
17.0743

>  <SCORE.INTER.VDW>
-16.8553

>  <SCORE.INTER.norm>
-0.319379

>  <SCORE.INTRA>
-4.38461

>  <SCORE.INTRA.DIHEDRAL>
-4.25925

>  <SCORE.INTRA.DIHEDRAL.0>
8.62657

>  <SCORE.INTRA.POLAR>
0

>  <SCORE.INTRA.POLAR.0>
0

>  <SCORE.INTRA.REPUL>
0

>  <SCORE.INTRA.REPUL.0>
0

>  <SCORE.INTRA.SOLV>
0.00338421

>  <SCORE.INTRA.SOLV.lig_0>
-66.3641

>  <SCORE.INTRA.VDW>
-2.25667

>  <SCORE.INTRA.VDW.0>
0.452231

>  <SCORE.INTRA.norm>
-0.190635

>  <SCORE.RESTR>
0.00148879

>  <SCORE.RESTR.CAVITY>
0.00148879

>  <SCORE.RESTR.norm>
6.473e-05

>  <SCORE.SYSTEM>
0

>  <SCORE.SYSTEM.CONST>
0

>  <SCORE.SYSTEM.DIHEDRAL>
0

>  <SCORE.SYSTEM.SOLV>
0

>  <SCORE.SYSTEM.norm>
0

>  <SCORE.heavy>
23

>  <SCORE.norm>
-0.50995

>  <RMSD>
18.705

$$$$
ligand
 OpenBabel02271912143D
libRbt.so/2013.1/901 2013/11/27
 23 25  0  0  0  0  0  0  0  0999 V2000
    2.8325    1.4519   27.5391 P   0  0  1  0  0  0  0  0  0  0  0  0
    1.5743    1.7541   29.8153 C   0  0  0  0  0  0  0  0  0  0  0  0
    2.0837    2.3604   28.6356 O   0  0  0  0  0  0  0  0  0  0  0  0
    0.9884    2.8548   30.6706 C   0  0  1  0  0  0  0  0  0  0  0  0
    1.8691    3.9720   30.7854 O   0  0  0  0  0  0  0  0  0  0  0  0
   -0.3038    3.3433   30.0381 C   0  0  1  0  0  0  0  0  0  0  0  0
   -1.3060    3.4164   31.0668 O   0  0  0  0  0  0  0  0  0  0  0  0
    0.0258    4.7135   29.4590 C   0  0  0  0  0  0  0  0  0  0  0  0
    1.2822    5.1465   30.2098 C   0  0  2  0  0  0  0  0  0  0  0  0
    6.1145    6.8274   29.6135 N   0  0  0  0  0  0  0  0  0  0  0  0
    5.5191    6.4042   30.7405 C   0  0  2  0  0  0  0  0  0  0  0  0
    6.2530    6.3954   31.8776 N   0  0  0  0  0  0  0  0  0  0  0  0
    4.2289    5.9906   30.7362 N   0  0  0  0  0  0  0  0  0  0  0  0
    3.5277    6.0046   29.5838 C   0  0  2  0  0  0  0  0  0  0  0  0
    4.1235    6.4379   28.4191 C   0  0  1  0  0  0  0  0  0  0  0  0
    5.4431    6.8473   28.4478 C   0  0  0  0  0  0  0  0  0  0  0  0
    6.0037    7.2377   27.4011 O   0  0  0  0  0  0  0  0  0  0  0  0
    3.2124    6.3594   27.4291 N   0  0  0  0  0  0  0  0  0  0  0  0
    2.0770    5.8803   27.9671 C   0  0  0  0  0  0  0  0  0  0  0  0
    2.2777    5.6796   29.2741 N   0  0  1  0  0  0  0  0  0  0  0  0
    3.9359    0.7135   28.2570 O   0  0  0  0  0  0  0  0  0  0  0  0
    1.7385    0.5625   26.9946 O   0  5  0  0  0  0  0  0  0  0  0  0
    3.3350    2.4710   26.5525 O   0  0  0  0  0  0  0  0  0  0  0  0
  1  3  1  1  0  0  0
  1 21  1  0  0  0  0
  1 22  1  0  0  0  0
  1 23  2  0  0  0  0
  2  3  1  0  0  0  0
  4  2  1  6  0  0  0
  4  5  1  0  0  0  0
  4  6  1  0  0  0  0
  6  7  1  1  0  0  0
  6  8  1  0  0  0  0
  8  9  1  0  0  0  0
  9  5  1  6  0  0  0
  9 20  1  0  0  0  0
 10 11  1  0  0  0  0
 10 16  1  0  0  0  0
 11 12  1  6  0  0  0
 11 13  1  0  0  0  0
 14 13  1  1  0  0  0
 14 15  1  0  0  0  0
 14 20  1  0  0  0  0
 15 16  1  6  0  0  0
 15 18  1  0  0  0  0
 16 17  2  0  0  0  0
 18 19  1  0  0  0  0
 20 19  1  6  0  0  0
M  CHG  1  22  -1
M  END
>  <CHROM.1>
-54.35188031,-47.22845360,177.52587978,-55.99399038,2.86974368,4.20993889
29.08138149,-2.38029572,0.50883846,0.60131591

>  <Name>
ligand

>  <RI>
0

>  <Rbt.Current_Directory>
/home/itssahil/PROJECTS/Mol_Feturizer/Test_systems_manuscript/rnas/3slm

>  <Rbt.Executable>
rbdock ($Id: //depot/dev/client3/rdock/2013.1/src/exe/rbdock.cxx#4 $)

>  <Rbt.Library>
libRbt.so (2013.1, Build901 2013/11/27)

>  <Rbt.Parameter_File>
/export/apps/rDock/src/rDock_2013.1_src/data/scripts/dock_solv.prm

>  <Rbt.Receptor>
prm/blind_docking_80.prm

>  <SCORE>
-17.9449

>  <SCORE.INTER>
-12.7104

>  <SCORE.INTER.CONST>
1

>  <SCORE.INTER.POLAR>
0

>  <SCORE.INTER.ROT>
4

>  <SCORE.INTER.SOLV>
11.6171

>  <SCORE.INTER.VDW>
-18.6127

>  <SCORE.INTER.norm>
-0.552628

>  <SCORE.INTRA>
-5.23446

>  <SCORE.INTRA.DIHEDRAL>
-6.75278

>  <SCORE.INTRA.DIHEDRAL.0>
8.62657

>  <SCORE.INTRA.POLAR>
0

>  <SCORE.INTRA.POLAR.0>
0

>  <SCORE.INTRA.REPUL>
0

>  <SCORE.INTRA.REPUL.0>
0

>  <SCORE.INTRA.SOLV>
-0.329288

>  <SCORE.INTRA.SOLV.lig_0>
-66.3641

>  <SCORE.INTRA.VDW>
-1.69343

>  <SCORE.INTRA.VDW.0>
0.452231

>  <SCORE.INTRA.norm>
-0.227585

>  <SCORE.RESTR>
0

>  <SCORE.RESTR.CAVITY>
0

>  <SCORE.RESTR.norm>
0

>  <SCORE.SYSTEM>
0

>  <SCORE.SYSTEM.CONST>
0

>  <SCORE.SYSTEM.DIHEDRAL>
0

>  <SCORE.SYSTEM.SOLV>
0

>  <SCORE.SYSTEM.norm>
0

>  <SCORE.heavy>
23

>  <SCORE.norm>
-0.780213

>  <RMSD>
18.796

$$$$
ligand
 OpenBabel02271912143D
libRbt.so/2013.1/901 2013/11/27
 23 25  0  0  0  0  0  0  0  0999 V2000
    4.3860    7.3820   27.9167 P   0  0  1  0  0  0  0  0  0  0  0  0
    4.7339    6.4375   30.3338 C   0  0  0  0  0  0  0  0  0  0  0  0
    4.2851    7.5101   29.5172 O   0  0  0  0  0  0  0  0  0  0  0  0
    3.7088    5.3309   30.2276 C   0  0  1  0  0  0  0  0  0  0  0  0
    4.1556    4.1242   30.8448 O   0  0  0  0  0  0  0  0  0  0  0  0
    2.4315    5.7661   30.9259 C   0  0  1  0  0  0  0  0  0  0  0  0
    1.3244    5.4767   30.0549 O   0  0  0  0  0  0  0  0  0  0  0  0
    2.3791    4.9505   32.2116 C   0  0  0  0  0  0  0  0  0  0  0  0
    3.3084    3.7692   31.9456 C   0  0  2  0  0  0  0  0  0  0  0  0
    3.6257    3.0082   37.0301 N   0  0  0  0  0  0  0  0  0  0  0  0
    2.5217    3.2007   36.2899 C   0  0  2  0  0  0  0  0  0  0  0  0
    1.3262    3.1897   36.9240 N   0  0  0  0  0  0  0  0  0  0  0  0
    2.6027    3.3900   34.9507 N   0  0  0  0  0  0  0  0  0  0  0  0
    3.8098    3.3875   34.3484 C   0  0  2  0  0  0  0  0  0  0  0  0
    4.9523    3.1933   35.0940 C   0  0  1  0  0  0  0  0  0  0  0  0
    4.8429    2.9945   36.4572 C   0  0  0  0  0  0  0  0  0  0  0  0
    5.8666    2.8101   37.1504 O   0  0  0  0  0  0  0  0  0  0  0  0
    6.0097    3.2439   34.2600 N   0  0  0  0  0  0  0  0  0  0  0  0
    5.5324    3.4579   33.0211 C   0  0  0  0  0  0  0  0  0  0  0  0
    4.2002    3.5535   33.0897 N   0  0  1  0  0  0  0  0  0  0  0  0
    3.4216    6.2986   27.4991 O   0  0  0  0  0  0  0  0  0  0  0  0
    4.0273    8.7627   27.4175 O   0  5  0  0  0  0  0  0  0  0  0  0
    5.8299    7.0149   27.7047 O   0  0  0  0  0  0  0  0  0  0  0  0
  1  3  1  1  0  0  0
  1 21  1  0  0  0  0
  1 22  1  0  0  0  0
  1 23  2  0  0  0  0
  2  3  1  0  0  0  0
  4  2  1  1  0  0  0
  4  5  1  0  0  0  0
  4  6  1  0  0  0  0
  6  7  1  6  0  0  0
  6  8  1  0  0  0  0
  8  9  1  0  0  0  0
  9  5  1  6  0  0  0
  9 20  1  0  0  0  0
 10 11  1  0  0  0  0
 10 16  1  0  0  0  0
 11 12  1  6  0  0  0
 11 13  1  0  0  0  0
 14 13  1  1  0  0  0
 14 15  1  0  0  0  0
 14 20  1  0  0  0  0
 15 16  1  6  0  0  0
 15 18  1  0  0  0  0
 16 17  2  0  0  0  0
 18 19  1  0  0  0  0
 20 19  1  6  0  0  0
M  CHG  1  22  -1
M  END
>  <CHROM.1>
67.04202390,171.05036349,-73.78437113,170.25391716,3.91028620,4.93388366
32.01394004,-1.54836773,-0.03203578,2.05530438

>  <Name>
ligand

>  <RI>
0

>  <Rbt.Current_Directory>
/home/itssahil/PROJECTS/Mol_Feturizer/Test_systems_manuscript/rnas/3slm

>  <Rbt.Executable>
rbdock ($Id: //depot/dev/client3/rdock/2013.1/src/exe/rbdock.cxx#4 $)

>  <Rbt.Library>
libRbt.so (2013.1, Build901 2013/11/27)

>  <Rbt.Parameter_File>
/export/apps/rDock/src/rDock_2013.1_src/data/scripts/dock_solv.prm

>  <Rbt.Receptor>
prm/blind_docking_80.prm

>  <SCORE>
-15.4962

>  <SCORE.INTER>
-11.3275

>  <SCORE.INTER.CONST>
1

>  <SCORE.INTER.POLAR>
0

>  <SCORE.INTER.ROT>
4

>  <SCORE.INTER.SOLV>
14.4377

>  <SCORE.INTER.VDW>
-18.6309

>  <SCORE.INTER.norm>
-0.492501

>  <SCORE.INTRA>
-4.16866

>  <SCORE.INTRA.DIHEDRAL>
-6.18268

>  <SCORE.INTRA.DIHEDRAL.0>
8.62657

>  <SCORE.INTRA.POLAR>
0

>  <SCORE.INTRA.POLAR.0>
0

>  <SCORE.INTRA.REPUL>
0

>  <SCORE.INTRA.REPUL.0>
0

>  <SCORE.INTRA.SOLV>
0.591694

>  <SCORE.INTRA.SOLV.lig_0>
-66.3641

>  <SCORE.INTRA.VDW>
-1.37317

>  <SCORE.INTRA.VDW.0>
0.452231

>  <SCORE.INTRA.norm>
-0.181246

>  <SCORE.RESTR>
0

>  <SCORE.RESTR.CAVITY>
0

>  <SCORE.RESTR.norm>
0

>  <SCORE.SYSTEM>
0

>  <SCORE.SYSTEM.CONST>
0

>  <SCORE.SYSTEM.DIHEDRAL>
0

>  <SCORE.SYSTEM.SOLV>
0

>  <SCORE.SYSTEM.norm>
0

>  <SCORE.heavy>
23

>  <SCORE.norm>
-0.673748

>  <RMSD>
18.861

$$$$
ligand
 OpenBabel02271912143D
libRbt.so/2013.1/901 2013/11/27
 23 25  0  0  0  0  0  0  0  0999 V2000
    4.5662    7.3791   27.6370 P   0  0  1  0  0  0  0  0  0  0  0  0
    4.0516    5.2467   29.0664 C   0  0  0  0  0  0  0  0  0  0  0  0
    3.5529    6.2751   28.2224 O   0  0  0  0  0  0  0  0  0  0  0  0
    2.9191    4.2749   29.3100 C   0  0  1  0  0  0  0  0  0  0  0  0
    3.3134    3.1905   30.1500 O   0  0  0  0  0  0  0  0  0  0  0  0
    1.7758    5.0035   29.9959 C   0  0  1  0  0  0  0  0  0  0  0  0
    0.5555    4.6626   29.3155 O   0  0  0  0  0  0  0  0  0  0  0  0
    1.7889    4.5056   31.4357 C   0  0  0  0  0  0  0  0  0  0  0  0
    2.5642    3.1924   31.3723 C   0  0  2  0  0  0  0  0  0  0  0  0
    3.3193    2.9341   36.4610 N   0  0  0  0  0  0  0  0  0  0  0  0
    2.1519    3.0005   35.8004 C   0  0  2  0  0  0  0  0  0  0  0  0
    1.0119    2.9903   36.5298 N   0  0  0  0  0  0  0  0  0  0  0  0
    2.1174    3.0656   34.4475 N   0  0  0  0  0  0  0  0  0  0  0  0
    3.2721    3.0659   33.7500 C   0  0  2  0  0  0  0  0  0  0  0  0
    4.4785    3.0003   34.4130 C   0  0  1  0  0  0  0  0  0  0  0  0
    4.4871    2.9266   35.7929 C   0  0  0  0  0  0  0  0  0  0  0  0
    5.5705    2.8599   36.4128 O   0  0  0  0  0  0  0  0  0  0  0  0
    5.4631    3.0240   33.4930 N   0  0  0  0  0  0  0  0  0  0  0  0
    4.8793    3.0954   32.2837 C   0  0  0  0  0  0  0  0  0  0  0  0
    3.5532    3.1308   32.4535 N   0  0  1  0  0  0  0  0  0  0  0  0
    5.5410    6.6529   26.7423 O   0  0  0  0  0  0  0  0  0  0  0  0
    3.6649    8.3544   26.9153 O   0  5  0  0  0  0  0  0  0  0  0  0
    5.1977    7.9415   28.8817 O   0  0  0  0  0  0  0  0  0  0  0  0
  1  3  1  1  0  0  0
  1 21  1  0  0  0  0
  1 22  1  0  0  0  0
  1 23  2  0  0  0  0
  2  3  1  0  0  0  0
  4  2  1  1  0  0  0
  4  5  1  0  0  0  0
  4  6  1  0  0  0  0
  6  7  1  6  0  0  0
  6  8  1  0  0  0  0
  8  9  1  0  0  0  0
  9  5  1  6  0  0  0
  9 20  1  0  0  0  0
 10 11  1  0  0  0  0
 10 16  1  0  0  0  0
 11 12  1  6  0  0  0
 11 13  1  0  0  0  0
 14 13  1  1  0  0  0
 14 15  1  0  0  0  0
 14 20  1  0  0  0  0
 15 16  1  6  0  0  0
 15 18  1  0  0  0  0
 16 17  2  0  0  0  0
 18 19  1  0  0  0  0
 20 19  1  6  0  0  0
M  CHG  1  22  -1
M  END
>  <CHROM.1>
63.87444499,179.84415271,-172.93008237,-177.50064268,3.54009076,4.58607956
31.41453475,-1.48762877,0.23357672,2.03764524

>  <Name>
ligand

>  <RI>
0

>  <Rbt.Current_Directory>
/home/itssahil/PROJECTS/Mol_Feturizer/Test_systems_manuscript/rnas/3slm

>  <Rbt.Executable>
rbdock ($Id: //depot/dev/client3/rdock/2013.1/src/exe/rbdock.cxx#4 $)

>  <Rbt.Library>
libRbt.so (2013.1, Build901 2013/11/27)

>  <Rbt.Parameter_File>
/export/apps/rDock/src/rDock_2013.1_src/data/scripts/dock_solv.prm

>  <Rbt.Receptor>
prm/blind_docking_40.prm

>  <SCORE>
-16.2224

>  <SCORE.INTER>
-11.1512

>  <SCORE.INTER.CONST>
1

>  <SCORE.INTER.POLAR>
0

>  <SCORE.INTER.ROT>
4

>  <SCORE.INTER.SOLV>
12.7824

>  <SCORE.INTER.VDW>
-17.9616

>  <SCORE.INTER.norm>
-0.484836

>  <SCORE.INTRA>
-5.07118

>  <SCORE.INTRA.DIHEDRAL>
-7.14474

>  <SCORE.INTRA.DIHEDRAL.0>
8.62657

>  <SCORE.INTRA.POLAR>
0

>  <SCORE.INTRA.POLAR.0>
0

>  <SCORE.INTRA.REPUL>
0

>  <SCORE.INTRA.REPUL.0>
0

>  <SCORE.INTRA.SOLV>
-0.493058

>  <SCORE.INTRA.SOLV.lig_0>
-66.3641

>  <SCORE.INTRA.VDW>
-1.25228

>  <SCORE.INTRA.VDW.0>
0.452231

>  <SCORE.INTRA.norm>
-0.220486

>  <SCORE.RESTR>
0

>  <SCORE.RESTR.CAVITY>
0

>  <SCORE.RESTR.norm>
0

>  <SCORE.SYSTEM>
0

>  <SCORE.SYSTEM.CONST>
0

>  <SCORE.SYSTEM.DIHEDRAL>
0

>  <SCORE.SYSTEM.SOLV>
0

>  <SCORE.SYSTEM.norm>
0

>  <SCORE.heavy>
23

>  <SCORE.norm>
-0.705322

>  <RMSD>
19.027

$$$$
ligand
 OpenBabel02271912143D
libRbt.so/2013.1/901 2013/11/27
 23 25  0  0  0  0  0  0  0  0999 V2000
    5.9651    8.3906   27.2127 P   0  0  1  0  0  0  0  0  0  0  0  0
    4.8294    6.3311   28.3633 C   0  0  0  0  0  0  0  0  0  0  0  0
    5.6425    6.8171   27.3044 O   0  0  0  0  0  0  0  0  0  0  0  0
    4.5128    4.8839   28.0605 C   0  0  1  0  0  0  0  0  0  0  0  0
    3.6819    4.2954   29.0606 O   0  0  0  0  0  0  0  0  0  0  0  0
    3.7751    4.8018   26.7347 C   0  0  1  0  0  0  0  0  0  0  0  0
    4.3842    3.7640   25.9471 O   0  0  0  0  0  0  0  0  0  0  0  0
    2.3320    4.4751   27.0978 C   0  0  0  0  0  0  0  0  0  0  0  0
    2.4209    3.8963   28.5074 C   0  0  2  0  0  0  0  0  0  0  0  0
    0.9118    4.8122   33.3463 N   0  0  0  0  0  0  0  0  0  0  0  0
    2.0075    4.1554   32.9320 C   0  0  2  0  0  0  0  0  0  0  0  0
    2.8469    3.6688   33.8755 N   0  0  0  0  0  0  0  0  0  0  0  0
    2.2680    3.9941   31.6121 N   0  0  0  0  0  0  0  0  0  0  0  0
    1.4146    4.4984   30.6972 C   0  0  2  0  0  0  0  0  0  0  0  0
    0.2847    5.1733   31.1060 C   0  0  1  0  0  0  0  0  0  0  0  0
    0.0452    5.3315   32.4578 C   0  0  0  0  0  0  0  0  0  0  0  0
   -0.9705    5.9459   32.8492 O   0  0  0  0  0  0  0  0  0  0  0  0
   -0.3912    5.5616   30.0067 N   0  0  0  0  0  0  0  0  0  0  0  0
    0.3087    5.1426   28.9377 C   0  0  0  0  0  0  0  0  0  0  0  0
    1.3942    4.4912   29.3692 N   0  0  1  0  0  0  0  0  0  0  0  0
    4.6415    9.1151   27.2477 O   0  0  0  0  0  0  0  0  0  0  0  0
    6.8505    8.6512   28.4095 O   0  5  0  0  0  0  0  0  0  0  0  0
    6.6779    8.5057   25.8924 O   0  0  0  0  0  0  0  0  0  0  0  0
  1  3  1  1  0  0  0
  1 21  1  0  0  0  0
  1 22  1  0  0  0  0
  1 23  2  0  0  0  0
  2  3  1  0  0  0  0
  4  2  1  1  0  0  0
  4  5  1  0  0  0  0
  4  6  1  0  0  0  0
  6  7  1  6  0  0  0
  6  8  1  0  0  0  0
  8  9  1  0  0  0  0
  9  5  1  1  0  0  0
  9 20  1  0  0  0  0
 10 11  1  0  0  0  0
 10 16  1  0  0  0  0
 11 12  1  6  0  0  0
 11 13  1  0  0  0  0
 14 13  1  1  0  0  0
 14 15  1  0  0  0  0
 14 20  1  0  0  0  0
 15 16  1  6  0  0  0
 15 18  1  0  0  0  0
 16 17  2  0  0  0  0
 18 19  1  0  0  0  0
 20 19  1  6  0  0  0
M  CHG  1  22  -1
M  END
>  <CHROM.1>
-53.20744021,-179.35758369,170.64572282,-44.31619408,3.13485255,5.73009365
29.23219776,-0.34930694,0.80209892,0.98344285

>  <Name>
ligand

>  <RI>
0

>  <Rbt.Current_Directory>
/home/itssahil/PROJECTS/Mol_Feturizer/Test_systems_manuscript/rnas/3slm

>  <Rbt.Executable>
rbdock ($Id: //depot/dev/client3/rdock/2013.1/src/exe/rbdock.cxx#4 $)

>  <Rbt.Library>
libRbt.so (2013.1, Build901 2013/11/27)

>  <Rbt.Parameter_File>
/export/apps/rDock/src/rDock_2013.1_src/data/scripts/dock_solv.prm

>  <Rbt.Receptor>
prm/blind_docking_40.prm

>  <SCORE>
-16.6826

>  <SCORE.INTER>
-12.2327

>  <SCORE.INTER.CONST>
1

>  <SCORE.INTER.POLAR>
0

>  <SCORE.INTER.ROT>
4

>  <SCORE.INTER.SOLV>
14.3713

>  <SCORE.INTER.VDW>
-19.2123

>  <SCORE.INTER.norm>
-0.531858

>  <SCORE.INTRA>
-4.4499

>  <SCORE.INTRA.DIHEDRAL>
-6.87241

>  <SCORE.INTRA.DIHEDRAL.0>
8.62657

>  <SCORE.INTRA.POLAR>
0

>  <SCORE.INTRA.POLAR.0>
0

>  <SCORE.INTRA.REPUL>
0

>  <SCORE.INTRA.REPUL.0>
0

>  <SCORE.INTRA.SOLV>
-0.522041

>  <SCORE.INTRA.SOLV.lig_0>
-66.3641

>  <SCORE.INTRA.VDW>
-0.752674

>  <SCORE.INTRA.VDW.0>
0.452231

>  <SCORE.INTRA.norm>
-0.193474

>  <SCORE.RESTR>
0

>  <SCORE.RESTR.CAVITY>
0

>  <SCORE.RESTR.norm>
0

>  <SCORE.SYSTEM>
0

>  <SCORE.SYSTEM.CONST>
0

>  <SCORE.SYSTEM.DIHEDRAL>
0

>  <SCORE.SYSTEM.SOLV>
0

>  <SCORE.SYSTEM.norm>
0

>  <SCORE.heavy>
23

>  <SCORE.norm>
-0.725332

>  <RMSD>
19.029

$$$$
ligand
 OpenBabel02271912143D
libRbt.so/2013.1/901 2013/11/27
 23 25  0  0  0  0  0  0  0  0999 V2000
    3.9190    3.3103   25.7659 P   0  0  1  0  0  0  0  0  0  0  0  0
    4.8128    5.7036   26.3392 C   0  0  0  0  0  0  0  0  0  0  0  0
    3.9687    4.6191   26.7001 O   0  0  0  0  0  0  0  0  0  0  0  0
    4.8534    6.6536   27.5149 C   0  0  1  0  0  0  0  0  0  0  0  0
    3.5487    7.0802   27.9057 O   0  0  0  0  0  0  0  0  0  0  0  0
    5.4888    5.9504   28.7024 C   0  0  1  0  0  0  0  0  0  0  0  0
    6.4713    6.8327   29.2718 O   0  0  0  0  0  0  0  0  0  0  0  0
    4.3410    5.6714   29.6647 C   0  0  0  0  0  0  0  0  0  0  0  0
    3.2478    6.6477   29.2390 C   0  0  2  0  0  0  0  0  0  0  0  0
   -0.5809    4.4323   31.8781 N   0  0  0  0  0  0  0  0  0  0  0  0
    0.5486    4.9765   32.3594 C   0  0  2  0  0  0  0  0  0  0  0  0
    0.7323    4.9684   33.7002 N   0  0  0  0  0  0  0  0  0  0  0  0
    1.4690    5.5243   31.5295 N   0  0  0  0  0  0  0  0  0  0  0  0
    1.2514    5.5230   30.1982 C   0  0  2  0  0  0  0  0  0  0  0  0
    0.0982    4.9667   29.6883 C   0  0  1  0  0  0  0  0  0  0  0  0
   -0.8289    4.4213   30.5558 C   0  0  0  0  0  0  0  0  0  0  0  0
   -1.8841    3.9176   30.1139 O   0  0  0  0  0  0  0  0  0  0  0  0
    0.1331    5.0883   28.3465 N   0  0  0  0  0  0  0  0  0  0  0  0
    1.2809    5.7138   28.0310 C   0  0  0  0  0  0  0  0  0  0  0  0
    1.9537    5.9621   29.1599 N   0  0  1  0  0  0  0  0  0  0  0  0
    5.3082    2.7202   25.7589 O   0  0  0  0  0  0  0  0  0  0  0  0
    2.8734    2.4361   26.4192 O   0  5  0  0  0  0  0  0  0  0  0  0
    3.4978    3.8702   24.4342 O   0  0  0  0  0  0  0  0  0  0  0  0
  1  3  1  1  0  0  0
  1 21  1  0  0  0  0
  1 22  1  0  0  0  0
  1 23  2  0  0  0  0
  2  3  1  0  0  0  0
  4  2  1  6  0  0  0
  4  5  1  0  0  0  0
  4  6  1  0  0  0  0
  6  7  1  1  0  0  0
  6  8  1  0  0  0  0
  8  9  1  0  0  0  0
  9  5  1  6  0  0  0
  9 20  1  0  0  0  0
 10 11  1  0  0  0  0
 10 16  1  0  0  0  0
 11 12  1  1  0  0  0
 11 13  1  0  0  0  0
 14 13  1  6  0  0  0
 14 15  1  0  0  0  0
 14 20  1  0  0  0  0
 15 16  1  1  0  0  0
 15 18  1  0  0  0  0
 16 17  2  0  0  0  0
 18 19  1  0  0  0  0
 20 19  1  1  0  0  0
M  CHG  1  22  -1
M  END
>  <CHROM.1>
61.81287432,-55.84163673,-169.37789264,-173.04621364,2.60870738,4.96120694
28.58290656,0.74081817,-0.43913051,-2.10204890

>  <Name>
ligand

>  <RI>
0

>  <Rbt.Current_Directory>
/home/itssahil/PROJECTS/Mol_Feturizer/Test_systems_manuscript/rnas/3slm

>  <Rbt.Executable>
rbdock ($Id: //depot/dev/client3/rdock/2013.1/src/exe/rbdock.cxx#4 $)

>  <Rbt.Library>
libRbt.so (2013.1, Build901 2013/11/27)

>  <Rbt.Parameter_File>
/export/apps/rDock/src/rDock_2013.1_src/data/scripts/dock_solv.prm

>  <Rbt.Receptor>
prm/blind_docking_40.prm

>  <SCORE>
-21.6429

>  <SCORE.INTER>
-15.8589

>  <SCORE.INTER.CONST>
1

>  <SCORE.INTER.POLAR>
0

>  <SCORE.INTER.ROT>
4

>  <SCORE.INTER.SOLV>
10.9537

>  <SCORE.INTER.VDW>
-20.4905

>  <SCORE.INTER.norm>
-0.689518

>  <SCORE.INTRA>
-5.78404

>  <SCORE.INTRA.DIHEDRAL>
-6.79237

>  <SCORE.INTRA.DIHEDRAL.0>
8.62657

>  <SCORE.INTRA.POLAR>
0

>  <SCORE.INTRA.POLAR.0>
0

>  <SCORE.INTRA.REPUL>
0

>  <SCORE.INTRA.REPUL.0>
0

>  <SCORE.INTRA.SOLV>
-0.347034

>  <SCORE.INTRA.SOLV.lig_0>
-66.3641

>  <SCORE.INTRA.VDW>
-2.21434

>  <SCORE.INTRA.VDW.0>
0.452231

>  <SCORE.INTRA.norm>
-0.25148

>  <SCORE.RESTR>
0

>  <SCORE.RESTR.CAVITY>
0

>  <SCORE.RESTR.norm>
0

>  <SCORE.SYSTEM>
0

>  <SCORE.SYSTEM.CONST>
0

>  <SCORE.SYSTEM.DIHEDRAL>
0

>  <SCORE.SYSTEM.SOLV>
0

>  <SCORE.SYSTEM.norm>
0

>  <SCORE.heavy>
23

>  <SCORE.norm>
-0.940998

>  <RMSD>
19.040

$$$$
ligand
 OpenBabel02271912143D
libRbt.so/2013.1/901 2013/11/27
 23 25  0  0  0  0  0  0  0  0999 V2000
    3.7243    3.2293   25.4807 P   0  0  1  0  0  0  0  0  0  0  0  0
    4.8012    5.5425   26.0678 C   0  0  0  0  0  0  0  0  0  0  0  0
    3.9704    4.4661   26.4798 O   0  0  0  0  0  0  0  0  0  0  0  0
    4.8738    6.5214   27.2180 C   0  0  1  0  0  0  0  0  0  0  0  0
    3.5841    7.0004   27.5976 O   0  0  0  0  0  0  0  0  0  0  0  0
    5.4872    5.8294   28.4236 C   0  0  1  0  0  0  0  0  0  0  0  0
    6.4985    6.6940   28.9694 O   0  0  0  0  0  0  0  0  0  0  0  0
    4.3319    5.6134   29.3931 C   0  0  0  0  0  0  0  0  0  0  0  0
    3.2706    6.6132   28.9419 C   0  0  2  0  0  0  0  0  0  0  0  0
   -0.5846    4.5107   31.6344 N   0  0  0  0  0  0  0  0  0  0  0  0
    0.5685    5.0185   32.0996 C   0  0  2  0  0  0  0  0  0  0  0  0
    0.7721    5.0013   33.4374 N   0  0  0  0  0  0  0  0  0  0  0  0
    1.4927    5.5396   31.2569 N   0  0  0  0  0  0  0  0  0  0  0  0
    1.2550    5.5484   29.9290 C   0  0  2  0  0  0  0  0  0  0  0  0
    0.0776    5.0294   29.4356 C   0  0  1  0  0  0  0  0  0  0  0  0
   -0.8528    4.5107   30.3161 C   0  0  0  0  0  0  0  0  0  0  0  0
   -1.9296    4.0411   29.8892 O   0  0  0  0  0  0  0  0  0  0  0  0
    0.0958    5.1532   28.0937 N   0  0  0  0  0  0  0  0  0  0  0  0
    1.2576    5.7437   27.7620 C   0  0  0  0  0  0  0  0  0  0  0  0
    1.9548    5.9682   28.8811 N   0  0  1  0  0  0  0  0  0  0  0  0
    3.2972    3.8111   24.1551 O   0  0  0  0  0  0  0  0  0  0  0  0
    5.0566    2.5164   25.4487 O   0  5  0  0  0  0  0  0  0  0  0  0
    2.6368    2.4547   26.1748 O   0  0  0  0  0  0  0  0  0  0  0  0
  1  3  1  1  0  0  0
  1 21  1  0  0  0  0
  1 22  1  0  0  0  0
  1 23  2  0  0  0  0
  2  3  1  0  0  0  0
  4  2  1  6  0  0  0
  4  5  1  0  0  0  0
  4  6  1  0  0  0  0
  6  7  1  1  0  0  0
  6  8  1  0  0  0  0
  8  9  1  0  0  0  0
  9  5  1  6  0  0  0
  9 20  1  0  0  0  0
 10 11  1  0  0  0  0
 10 16  1  0  0  0  0
 11 12  1  1  0  0  0
 11 13  1  0  0  0  0
 14 13  1  6  0  0  0
 14 15  1  0  0  0  0
 14 20  1  0  0  0  0
 15 16  1  1  0  0  0
 15 18  1  0  0  0  0
 16 17  2  0  0  0  0
 18 19  1  0  0  0  0
 20 19  1  1  0  0  0
M  CHG  1  22  -1
M  END
>  <CHROM.1>
-50.91167347,-58.40293084,-178.39267479,-174.89230931,2.55960990,4.92757755
28.31275267,0.77517329,-0.41382857,-2.08875685

>  <Name>
ligand

>  <RI>
0

>  <Rbt.Current_Directory>
/home/itssahil/PROJECTS/Mol_Feturizer/Test_systems_manuscript/rnas/3slm

>  <Rbt.Executable>
rbdock ($Id: //depot/dev/client3/rdock/2013.1/src/exe/rbdock.cxx#4 $)

>  <Rbt.Library>
libRbt.so (2013.1, Build901 2013/11/27)

>  <Rbt.Parameter_File>
/export/apps/rDock/src/rDock_2013.1_src/data/scripts/dock_solv.prm

>  <Rbt.Receptor>
prm/blind_docking_60.prm

>  <SCORE>
-20.7775

>  <SCORE.INTER>
-14.7936

>  <SCORE.INTER.CONST>
1

>  <SCORE.INTER.POLAR>
0

>  <SCORE.INTER.ROT>
4

>  <SCORE.INTER.SOLV>
13.2455

>  <SCORE.INTER.VDW>
-20.5442

>  <SCORE.INTER.norm>
-0.643201

>  <SCORE.INTRA>
-5.98388

>  <SCORE.INTRA.DIHEDRAL>
-7.24133

>  <SCORE.INTRA.DIHEDRAL.0>
8.62657

>  <SCORE.INTRA.POLAR>
0

>  <SCORE.INTRA.POLAR.0>
0

>  <SCORE.INTRA.REPUL>
0

>  <SCORE.INTRA.REPUL.0>
0

>  <SCORE.INTRA.SOLV>
-0.316176

>  <SCORE.INTRA.SOLV.lig_0>
-66.3641

>  <SCORE.INTRA.VDW>
-2.20512

>  <SCORE.INTRA.VDW.0>
0.452231

>  <SCORE.INTRA.norm>
-0.260169

>  <SCORE.RESTR>
0

>  <SCORE.RESTR.CAVITY>
0

>  <SCORE.RESTR.norm>
0

>  <SCORE.SYSTEM>
0

>  <SCORE.SYSTEM.CONST>
0

>  <SCORE.SYSTEM.DIHEDRAL>
0

>  <SCORE.SYSTEM.SOLV>
0

>  <SCORE.SYSTEM.norm>
0

>  <SCORE.heavy>
23

>  <SCORE.norm>
-0.903369

>  <RMSD>
19.065

$$$$
ligand
 OpenBabel02271912143D
libRbt.so/2013.1/901 2013/11/27
 23 25  0  0  0  0  0  0  0  0999 V2000
    2.9690    3.5789   22.5402 P   0  0  1  0  0  0  0  0  0  0  0  0
    3.3437    2.7097   24.9814 C   0  0  0  0  0  0  0  0  0  0  0  0
    3.6523    2.5803   23.6005 O   0  0  0  0  0  0  0  0  0  0  0  0
    4.1360    1.6551   25.7208 C   0  0  1  0  0  0  0  0  0  0  0  0
    3.8622    1.6616   27.1214 O   0  0  0  0  0  0  0  0  0  0  0  0
    3.7668    0.2839   25.1803 C   0  0  1  0  0  0  0  0  0  0  0  0
    4.9833   -0.4424   24.9339 O   0  0  0  0  0  0  0  0  0  0  0  0
    2.9223   -0.3632   26.2708 C   0  0  0  0  0  0  0  0  0  0  0  0
    3.2722    0.4213   27.5325 C   0  0  2  0  0  0  0  0  0  0  0  0
    1.2580    3.1900   31.3808 N   0  0  0  0  0  0  0  0  0  0  0  0
    2.5444    3.1124   31.0028 C   0  0  2  0  0  0  0  0  0  0  0  0
    3.4500    3.8473   31.6895 N   0  0  0  0  0  0  0  0  0  0  0  0
    2.9208    2.3313   29.9617 N   0  0  0  0  0  0  0  0  0  0  0  0
    1.9917    1.6174   29.2932 C   0  0  2  0  0  0  0  0  0  0  0  0
    0.6677    1.6844   29.6699 C   0  0  1  0  0  0  0  0  0  0  0  0
    0.3078    2.4945   30.7300 C   0  0  0  0  0  0  0  0  0  0  0  0
   -0.8886    2.5743   31.0832 O   0  0  0  0  0  0  0  0  0  0  0  0
   -0.0406    0.8794   28.8535 N   0  0  0  0  0  0  0  0  0  0  0  0
    0.8251    0.3299   27.9835 C   0  0  0  0  0  0  0  0  0  0  0  0
    2.0535    0.7764   28.2670 N   0  0  1  0  0  0  0  0  0  0  0  0
    3.4132    4.9758   22.9000 O   0  0  0  0  0  0  0  0  0  0  0  0
    3.4728    3.0895   21.2020 O   0  5  0  0  0  0  0  0  0  0  0  0
    1.4996    3.3406   22.7609 O   0  0  0  0  0  0  0  0  0  0  0  0
  1  3  1  1  0  0  0
  1 21  1  0  0  0  0
  1 22  1  0  0  0  0
  1 23  2  0  0  0  0
  2  3  1  0  0  0  0
  4  2  1  6  0  0  0
  4  5  1  0  0  0  0
  4  6  1  0  0  0  0
  6  7  1  1  0  0  0
  6  8  1  0  0  0  0
  8  9  1  0  0  0  0
  9  5  1  6  0  0  0
  9 20  1  0  0  0  0
 10 11  1  0  0  0  0
 10 16  1  0  0  0  0
 11 12  1  6  0  0  0
 11 13  1  0  0  0  0
 14 13  1  1  0  0  0
 14 15  1  0  0  0  0
 14 20  1  0  0  0  0
 15 16  1  6  0  0  0
 15 18  1  0  0  0  0
 16 17  2  0  0  0  0
 18 19  1  0  0  0  0
 20 19  1  6  0  0  0
M  CHG  1  22  -1
M  END
>  <CHROM.1>
61.62475439,-177.80000776,-179.53252476,-53.42891277,2.51758272,2.12935630
26.76505620,1.03912110,1.03792550,-1.01853646

>  <Name>
ligand

>  <RI>
0

>  <Rbt.Current_Directory>
/home/itssahil/PROJECTS/Mol_Feturizer/Test_systems_manuscript/rnas/3slm

>  <Rbt.Executable>
rbdock ($Id: //depot/dev/client3/rdock/2013.1/src/exe/rbdock.cxx#4 $)

>  <Rbt.Library>
libRbt.so (2013.1, Build901 2013/11/27)

>  <Rbt.Parameter_File>
/export/apps/rDock/src/rDock_2013.1_src/data/scripts/dock_solv.prm

>  <Rbt.Receptor>
prm/blind_docking_100.prm

>  <SCORE>
-15.6977

>  <SCORE.INTER>
-11.2906

>  <SCORE.INTER.CONST>
1

>  <SCORE.INTER.POLAR>
0

>  <SCORE.INTER.ROT>
4

>  <SCORE.INTER.SOLV>
11.4629

>  <SCORE.INTER.VDW>
-17.6147

>  <SCORE.INTER.norm>
-0.490894

>  <SCORE.INTRA>
-4.40718

>  <SCORE.INTRA.DIHEDRAL>
-7.38156

>  <SCORE.INTRA.DIHEDRAL.0>
8.62657

>  <SCORE.INTRA.POLAR>
0

>  <SCORE.INTRA.POLAR.0>
0

>  <SCORE.INTRA.REPUL>
0

>  <SCORE.INTRA.REPUL.0>
0

>  <SCORE.INTRA.SOLV>
-0.360063

>  <SCORE.INTRA.SOLV.lig_0>
-66.3641

>  <SCORE.INTRA.VDW>
-0.536369

>  <SCORE.INTRA.VDW.0>
0.452231

>  <SCORE.INTRA.norm>
-0.191617

>  <SCORE.RESTR>
0

>  <SCORE.RESTR.CAVITY>
0

>  <SCORE.RESTR.norm>
0

>  <SCORE.SYSTEM>
0

>  <SCORE.SYSTEM.CONST>
0

>  <SCORE.SYSTEM.DIHEDRAL>
0

>  <SCORE.SYSTEM.SOLV>
0

>  <SCORE.SYSTEM.norm>
0

>  <SCORE.heavy>
23

>  <SCORE.norm>
-0.682511

>  <RMSD>
19.099

$$$$
ligand
 OpenBabel02271912143D
libRbt.so/2013.1/901 2013/11/27
 23 25  0  0  0  0  0  0  0  0999 V2000
    3.4804    3.4277   25.3112 P   0  0  1  0  0  0  0  0  0  0  0  0
    4.7935    5.5701   26.0471 C   0  0  0  0  0  0  0  0  0  0  0  0
    3.8056    4.5994   26.3646 O   0  0  0  0  0  0  0  0  0  0  0  0
    4.8778    6.5260   27.2157 C   0  0  1  0  0  0  0  0  0  0  0  0
    3.5935    7.0104   27.6068 O   0  0  0  0  0  0  0  0  0  0  0  0
    5.4862    5.8050   28.4067 C   0  0  1  0  0  0  0  0  0  0  0  0
    6.5069    6.6488   28.9671 O   0  0  0  0  0  0  0  0  0  0  0  0
    4.3304    5.5819   29.3740 C   0  0  0  0  0  0  0  0  0  0  0  0
    3.2783    6.6007   28.9440 C   0  0  2  0  0  0  0  0  0  0  0  0
   -0.6054    4.5109   31.6052 N   0  0  0  0  0  0  0  0  0  0  0  0
    0.5517    5.0019   32.0784 C   0  0  2  0  0  0  0  0  0  0  0  0
    0.7517    4.9687   33.4165 N   0  0  0  0  0  0  0  0  0  0  0  0
    1.4834    5.5219   31.2434 N   0  0  0  0  0  0  0  0  0  0  0  0
    1.2493    5.5469   29.9151 C   0  0  2  0  0  0  0  0  0  0  0  0
    0.0678    5.0452   29.4134 C   0  0  1  0  0  0  0  0  0  0  0  0
   -0.8701    4.5273   30.2862 C   0  0  0  0  0  0  0  0  0  0  0  0
   -1.9508    4.0734   29.8519 O   0  0  0  0  0  0  0  0  0  0  0  0
    0.0908    5.1827   28.0729 N   0  0  0  0  0  0  0  0  0  0  0  0
    1.2595    5.7644   27.7503 C   0  0  0  0  0  0  0  0  0  0  0  0
    1.9561    5.9701   28.8733 N   0  0  1  0  0  0  0  0  0  0  0  0
    2.2504    2.7116   25.8135 O   0  0  0  0  0  0  0  0  0  0  0  0
    3.2859    4.1583   24.0025 O   0  5  0  0  0  0  0  0  0  0  0  0
    4.7266    2.5856   25.3580 O   0  0  0  0  0  0  0  0  0  0  0  0
  1  3  1  1  0  0  0
  1 21  1  0  0  0  0
  1 22  1  0  0  0  0
  1 23  2  0  0  0  0
  2  3  1  0  0  0  0
  4  2  1  6  0  0  0
  4  5  1  0  0  0  0
  4  6  1  0  0  0  0
  6  7  1  1  0  0  0
  6  8  1  0  0  0  0
  8  9  1  0  0  0  0
  9  5  1  6  0  0  0
  9 20  1  0  0  0  0
 10 11  1  0  0  0  0
 10 16  1  0  0  0  0
 11 12  1  1  0  0  0
 11 13  1  0  0  0  0
 14 13  1  6  0  0  0
 14 15  1  0  0  0  0
 14 20  1  0  0  0  0
 15 16  1  1  0  0  0
 15 18  1  0  0  0  0
 16 17  2  0  0  0  0
 18 19  1  0  0  0  0
 20 19  1  1  0  0  0
M  CHG  1  22  -1
M  END
>  <CHROM.1>
-170.51808748,-50.12253926,-179.84497138,-174.32930385,2.49138529,4.98251429
28.25244735,0.81418901,-0.39741976,-2.01756094

>  <Name>
ligand

>  <RI>
0

>  <Rbt.Current_Directory>
/home/itssahil/PROJECTS/Mol_Feturizer/Test_systems_manuscript/rnas/3slm

>  <Rbt.Executable>
rbdock ($Id: //depot/dev/client3/rdock/2013.1/src/exe/rbdock.cxx#4 $)

>  <Rbt.Library>
libRbt.so (2013.1, Build901 2013/11/27)

>  <Rbt.Parameter_File>
/export/apps/rDock/src/rDock_2013.1_src/data/scripts/dock_solv.prm

>  <Rbt.Receptor>
prm/blind_docking_60.prm

>  <SCORE>
-20.3206

>  <SCORE.INTER>
-14.816

>  <SCORE.INTER.CONST>
1

>  <SCORE.INTER.POLAR>
0

>  <SCORE.INTER.ROT>
4

>  <SCORE.INTER.SOLV>
13.658

>  <SCORE.INTER.VDW>
-20.6967

>  <SCORE.INTER.norm>
-0.644173

>  <SCORE.INTRA>
-5.50459

>  <SCORE.INTRA.DIHEDRAL>
-6.9027

>  <SCORE.INTRA.DIHEDRAL.0>
8.62657

>  <SCORE.INTRA.POLAR>
0

>  <SCORE.INTRA.POLAR.0>
0

>  <SCORE.INTRA.REPUL>
0

>  <SCORE.INTRA.REPUL.0>
0

>  <SCORE.INTRA.SOLV>
0.322373

>  <SCORE.INTRA.SOLV.lig_0>
-66.3641

>  <SCORE.INTRA.VDW>
-2.21443

>  <SCORE.INTRA.VDW.0>
0.452231

>  <SCORE.INTRA.norm>
-0.23933

>  <SCORE.RESTR>
0

>  <SCORE.RESTR.CAVITY>
0

>  <SCORE.RESTR.norm>
0

>  <SCORE.SYSTEM>
0

>  <SCORE.SYSTEM.CONST>
0

>  <SCORE.SYSTEM.DIHEDRAL>
0

>  <SCORE.SYSTEM.SOLV>
0

>  <SCORE.SYSTEM.norm>
0

>  <SCORE.heavy>
23

>  <SCORE.norm>
-0.883503

>  <RMSD>
19.125

$$$$
ligand
 OpenBabel02271912143D
libRbt.so/2013.1/901 2013/11/27
 23 25  0  0  0  0  0  0  0  0999 V2000
    4.0526    3.8999   26.1911 P   0  0  1  0  0  0  0  0  0  0  0  0
    3.3014    3.0688   28.5575 C   0  0  0  0  0  0  0  0  0  0  0  0
    2.9176    3.5210   27.2664 O   0  0  0  0  0  0  0  0  0  0  0  0
    2.0345    2.8524   29.3542 C   0  0  1  0  0  0  0  0  0  0  0  0
    2.2858    2.1897   30.5929 O   0  0  0  0  0  0  0  0  0  0  0  0
    1.4054    4.1998   29.6660 C   0  0  1  0  0  0  0  0  0  0  0  0
    0.0031    4.1212   29.3571 O   0  0  0  0  0  0  0  0  0  0  0  0
    1.6544    4.4247   31.1521 C   0  0  0  0  0  0  0  0  0  0  0  0
    1.9363    3.0288   31.7015 C   0  0  2  0  0  0  0  0  0  0  0  0
    3.6462    2.9334   36.5594 N   0  0  0  0  0  0  0  0  0  0  0  0
    2.3739    2.9126   36.1298 C   0  0  2  0  0  0  0  0  0  0  0  0
    1.3938    2.8487   37.0609 N   0  0  0  0  0  0  0  0  0  0  0  0
    2.0825    2.9447   34.8070 N   0  0  0  0  0  0  0  0  0  0  0  0
    3.0836    3.0003   33.9045 C   0  0  2  0  0  0  0  0  0  0  0  0
    4.3945    3.0244   34.3291 C   0  0  1  0  0  0  0  0  0  0  0  0
    4.6662    2.9827   35.6834 C   0  0  0  0  0  0  0  0  0  0  0  0
    5.8485    2.9971   36.0888 O   0  0  0  0  0  0  0  0  0  0  0  0
    5.1858    3.0878   33.2400 N   0  0  0  0  0  0  0  0  0  0  0  0
    4.3825    3.0956   32.1616 C   0  0  0  0  0  0  0  0  0  0  0  0
    3.1121    3.0530   32.5777 N   0  0  1  0  0  0  0  0  0  0  0  0
    5.0650    2.7805   26.2050 O   0  0  0  0  0  0  0  0  0  0  0  0
    3.2924    4.0371   24.8921 O   0  5  0  0  0  0  0  0  0  0  0  0
    4.5896    5.2017   26.7218 O   0  0  0  0  0  0  0  0  0  0  0  0
  1  3  1  1  0  0  0
  1 21  1  0  0  0  0
  1 22  1  0  0  0  0
  1 23  2  0  0  0  0
  2  3  1  0  0  0  0
  4  2  1  1  0  0  0
  4  5  1  0  0  0  0
  4  6  1  0  0  0  0
  6  7  1  1  0  0  0
  6  8  1  0  0  0  0
  8  9  1  0  0  0  0
  9  5  1  6  0  0  0
  9 20  1  0  0  0  0
 10 11  1  0  0  0  0
 10 16  1  0  0  0  0
 11 12  1  6  0  0  0
 11 13  1  0  0  0  0
 14 13  1  1  0  0  0
 14 15  1  0  0  0  0
 14 20  1  0  0  0  0
 15 16  1  6  0  0  0
 15 18  1  0  0  0  0
 16 17  2  0  0  0  0
 18 19  1  0  0  0  0
 20 19  1  6  0  0  0
M  CHG  1  22  -1
M  END
>  <CHROM.1>
46.86625402,170.36628979,177.56221941,-139.35839577,3.21033457,3.36100441
31.03380867,-1.56204613,-0.05654098,1.66863192

>  <Name>
ligand

>  <RI>
0

>  <Rbt.Current_Directory>
/home/itssahil/PROJECTS/Mol_Feturizer/Test_systems_manuscript/rnas/3slm

>  <Rbt.Executable>
rbdock ($Id: //depot/dev/client3/rdock/2013.1/src/exe/rbdock.cxx#4 $)

>  <Rbt.Library>
libRbt.so (2013.1, Build901 2013/11/27)

>  <Rbt.Parameter_File>
/export/apps/rDock/src/rDock_2013.1_src/data/scripts/dock_solv.prm

>  <Rbt.Receptor>
prm/blind_docking_40.prm

>  <SCORE>
-17.4769

>  <SCORE.INTER>
-12.0442

>  <SCORE.INTER.CONST>
1

>  <SCORE.INTER.POLAR>
0

>  <SCORE.INTER.ROT>
4

>  <SCORE.INTER.SOLV>
8.75445

>  <SCORE.INTER.VDW>
-17.2143

>  <SCORE.INTER.norm>
-0.523659

>  <SCORE.INTRA>
-5.43272

>  <SCORE.INTRA.DIHEDRAL>
-6.76594

>  <SCORE.INTRA.DIHEDRAL.0>
8.62657

>  <SCORE.INTRA.POLAR>
0

>  <SCORE.INTRA.POLAR.0>
0

>  <SCORE.INTRA.REPUL>
0

>  <SCORE.INTRA.REPUL.0>
0

>  <SCORE.INTRA.SOLV>
-0.508596

>  <SCORE.INTRA.SOLV.lig_0>
-66.3641

>  <SCORE.INTRA.VDW>
-1.79545

>  <SCORE.INTRA.VDW.0>
0.452231

>  <SCORE.INTRA.norm>
-0.236205

>  <SCORE.RESTR>
0

>  <SCORE.RESTR.CAVITY>
0

>  <SCORE.RESTR.norm>
0

>  <SCORE.SYSTEM>
0

>  <SCORE.SYSTEM.CONST>
0

>  <SCORE.SYSTEM.DIHEDRAL>
0

>  <SCORE.SYSTEM.SOLV>
0

>  <SCORE.SYSTEM.norm>
0

>  <SCORE.heavy>
23

>  <SCORE.norm>
-0.759864

>  <RMSD>
19.204

$$$$
ligand
 OpenBabel02271912143D
libRbt.so/2013.1/901 2013/11/27
 23 25  0  0  0  0  0  0  0  0999 V2000
    1.3831    3.0250   35.1361 P   0  0  1  0  0  0  0  0  0  0  0  0
    1.0026    4.1523   32.8038 C   0  0  0  0  0  0  0  0  0  0  0  0
    0.5691    3.1936   33.7586 O   0  0  0  0  0  0  0  0  0  0  0  0
    0.0962    4.0304   31.5996 C   0  0  1  0  0  0  0  0  0  0  0  0
    0.3396    5.0569   30.6383 O   0  0  0  0  0  0  0  0  0  0  0  0
    0.3420    2.6919   30.9240 C   0  0  1  0  0  0  0  0  0  0  0  0
   -0.9337    2.0825   30.6607 O   0  0  0  0  0  0  0  0  0  0  0  0
    1.0964    3.0218   29.6421 C   0  0  0  0  0  0  0  0  0  0  0  0
    0.7976    4.4988   29.3997 C   0  0  2  0  0  0  0  0  0  0  0  0
    4.5148    5.1985   25.9033 N   0  0  0  0  0  0  0  0  0  0  0  0
    3.4743    4.3514   25.8460 C   0  0  2  0  0  0  0  0  0  0  0  0
    3.3500    3.5772   24.7429 N   0  0  0  0  0  0  0  0  0  0  0  0
    2.5736    4.2818   26.8558 N   0  0  0  0  0  0  0  0  0  0  0  0
    2.7223    5.0732   27.9381 C   0  0  2  0  0  0  0  0  0  0  0  0
    3.7858    5.9465   28.0131 C   0  0  1  0  0  0  0  0  0  0  0  0
    4.6866    6.0045   26.9667 C   0  0  0  0  0  0  0  0  0  0  0  0
    5.6542    6.7944   27.0125 O   0  0  0  0  0  0  0  0  0  0  0  0
    3.7045    6.6046   29.1864 N   0  0  0  0  0  0  0  0  0  0  0  0
    2.6090    6.1541   29.8230 C   0  0  0  0  0  0  0  0  0  0  0  0
    2.0292    5.2198   29.0616 N   0  0  1  0  0  0  0  0  0  0  0  0
    2.7529    2.5021   34.7780 O   0  0  0  0  0  0  0  0  0  0  0  0
    1.3819    4.4139   35.7321 O   0  5  0  0  0  0  0  0  0  0  0  0
    0.5430    2.0358   35.8978 O   0  0  0  0  0  0  0  0  0  0  0  0
  1  3  1  6  0  0  0
  1 21  1  0  0  0  0
  1 22  1  0  0  0  0
  1 23  2  0  0  0  0
  2  3  1  0  0  0  0
  4  2  1  1  0  0  0
  4  5  1  0  0  0  0
  4  6  1  0  0  0  0
  6  7  1  6  0  0  0
  6  8  1  0  0  0  0
  8  9  1  0  0  0  0
  9  5  1  1  0  0  0
  9 20  1  0  0  0  0
 10 11  1  0  0  0  0
 10 16  1  0  0  0  0
 11 12  1  6  0  0  0
 11 13  1  0  0  0  0
 14 13  1  1  0  0  0
 14 15  1  0  0  0  0
 14 20  1  0  0  0  0
 15 16  1  6  0  0  0
 15 18  1  0  0  0  0
 16 17  2  0  0  0  0
 18 19  1  0  0  0  0
 20 19  1  6  0  0  0
M  CHG  1  22  -1
M  END
>  <CHROM.1>
-65.42462633,173.00382271,177.12615909,-174.95599736,2.02052083,4.22388554
30.52149103,-1.99568107,-0.65763997,-1.56290786

>  <Name>
ligand

>  <RI>
0

>  <Rbt.Current_Directory>
/home/itssahil/PROJECTS/Mol_Feturizer/Test_systems_manuscript/rnas/3slm

>  <Rbt.Executable>
rbdock ($Id: //depot/dev/client3/rdock/2013.1/src/exe/rbdock.cxx#4 $)

>  <Rbt.Library>
libRbt.so (2013.1, Build901 2013/11/27)

>  <Rbt.Parameter_File>
/export/apps/rDock/src/rDock_2013.1_src/data/scripts/dock_solv.prm

>  <Rbt.Receptor>
prm/blind_docking_100.prm

>  <SCORE>
-16.6712

>  <SCORE.INTER>
-11.3939

>  <SCORE.INTER.CONST>
1

>  <SCORE.INTER.POLAR>
0

>  <SCORE.INTER.ROT>
4

>  <SCORE.INTER.SOLV>
11.3951

>  <SCORE.INTER.VDW>
-17.661

>  <SCORE.INTER.norm>
-0.495388

>  <SCORE.INTRA>
-5.27726

>  <SCORE.INTRA.DIHEDRAL>
-7.15903

>  <SCORE.INTRA.DIHEDRAL.0>
8.62657

>  <SCORE.INTRA.POLAR>
0

>  <SCORE.INTRA.POLAR.0>
0

>  <SCORE.INTRA.REPUL>
0

>  <SCORE.INTRA.REPUL.0>
0

>  <SCORE.INTRA.SOLV>
-0.51059

>  <SCORE.INTRA.SOLV.lig_0>
-66.3641

>  <SCORE.INTRA.VDW>
-1.44245

>  <SCORE.INTRA.VDW.0>
0.452231

>  <SCORE.INTRA.norm>
-0.229446

>  <SCORE.RESTR>
0

>  <SCORE.RESTR.CAVITY>
0

>  <SCORE.RESTR.norm>
0

>  <SCORE.SYSTEM>
0

>  <SCORE.SYSTEM.CONST>
0

>  <SCORE.SYSTEM.DIHEDRAL>
0

>  <SCORE.SYSTEM.SOLV>
0

>  <SCORE.SYSTEM.norm>
0

>  <SCORE.heavy>
23

>  <SCORE.norm>
-0.724835

>  <RMSD>
19.337

$$$$
ligand
 OpenBabel02271912143D
libRbt.so/2013.1/901 2013/11/27
 23 25  0  0  0  0  0  0  0  0999 V2000
    5.7095    3.5021   33.4777 P   0  0  1  0  0  0  0  0  0  0  0  0
    4.2000    4.4561   35.3924 C   0  0  0  0  0  0  0  0  0  0  0  0
    4.2803    3.9443   34.0694 O   0  0  0  0  0  0  0  0  0  0  0  0
    2.7716    4.8980   35.6186 C   0  0  1  0  0  0  0  0  0  0  0  0
    2.3498    5.8641   34.6565 O   0  0  0  0  0  0  0  0  0  0  0  0
    1.8529    3.6934   35.5027 C   0  0  1  0  0  0  0  0  0  0  0  0
    0.9515    3.7086   36.6232 O   0  0  0  0  0  0  0  0  0  0  0  0
    1.1239    3.8707   34.1767 C   0  0  0  0  0  0  0  0  0  0  0  0
    1.2667    5.3580   33.8652 C   0  0  2  0  0  0  0  0  0  0  0  0
   -0.1368    4.9174   28.9288 N   0  0  0  0  0  0  0  0  0  0  0  0
   -0.8414    4.5828   30.0220 C   0  0  2  0  0  0  0  0  0  0  0  0
   -2.0821    4.0728   29.8423 N   0  0  0  0  0  0  0  0  0  0  0  0
   -0.3298    4.7594   31.2641 N   0  0  0  0  0  0  0  0  0  0  0  0
    0.9073    5.2776   31.4086 C   0  0  2  0  0  0  0  0  0  0  0  0
    1.6440    5.6243   30.2967 C   0  0  1  0  0  0  0  0  0  0  0  0
    1.0971    5.4419   29.0408 C   0  0  0  0  0  0  0  0  0  0  0  0
    1.7464    5.7560   28.0200 O   0  0  0  0  0  0  0  0  0  0  0  0
    2.8319    6.1043   30.7151 N   0  0  0  0  0  0  0  0  0  0  0  0
    2.8293    6.0630   32.0592 C   0  0  0  0  0  0  0  0  0  0  0  0
    1.6628    5.5507   32.4663 N   0  0  1  0  0  0  0  0  0  0  0  0
    6.5005    4.7661   33.2438 O   0  0  0  0  0  0  0  0  0  0  0  0
    6.2812    2.5971   34.5446 O   0  5  0  0  0  0  0  0  0  0  0  0
    5.3347    2.7850   32.2090 O   0  0  0  0  0  0  0  0  0  0  0  0
  1  3  1  1  0  0  0
  1 21  1  0  0  0  0
  1 22  1  0  0  0  0
  1 23  2  0  0  0  0
  2  3  1  0  0  0  0
  4  2  1  6  0  0  0
  4  5  1  0  0  0  0
  4  6  1  0  0  0  0
  6  7  1  1  0  0  0
  6  8  1  0  0  0  0
  8  9  1  0  0  0  0
  9  5  1  1  0  0  0
  9 20  1  0  0  0  0
 10 11  1  0  0  0  0
 10 16  1  0  0  0  0
 11 12  1  1  0  0  0
 11 13  1  0  0  0  0
 14 13  1  6  0  0  0
 14 15  1  0  0  0  0
 14 20  1  0  0  0  0
 15 16  1  1  0  0  0
 15 18  1  0  0  0  0
 16 17  2  0  0  0  0
 18 19  1  0  0  0  0
 20 19  1  1  0  0  0
M  CHG  1  22  -1
M  END
>  <CHROM.1>
-70.96789948,-57.19617684,174.92805580,-176.28339571,2.53483217,4.57890959
32.61610733,-0.80821394,0.12866968,-1.41917890

>  <Name>
ligand

>  <RI>
0

>  <Rbt.Current_Directory>
/home/itssahil/PROJECTS/Mol_Feturizer/Test_systems_manuscript/rnas/3slm

>  <Rbt.Executable>
rbdock ($Id: //depot/dev/client3/rdock/2013.1/src/exe/rbdock.cxx#4 $)

>  <Rbt.Library>
libRbt.so (2013.1, Build901 2013/11/27)

>  <Rbt.Parameter_File>
/export/apps/rDock/src/rDock_2013.1_src/data/scripts/dock_solv.prm

>  <Rbt.Receptor>
prm/blind_docking_40.prm

>  <SCORE>
-11.479

>  <SCORE.INTER>
-5.63759

>  <SCORE.INTER.CONST>
1

>  <SCORE.INTER.POLAR>
0

>  <SCORE.INTER.ROT>
4

>  <SCORE.INTER.SOLV>
21.7439

>  <SCORE.INTER.VDW>
-17.273

>  <SCORE.INTER.norm>
-0.245113

>  <SCORE.INTRA>
-5.84138

>  <SCORE.INTRA.DIHEDRAL>
-7.08687

>  <SCORE.INTRA.DIHEDRAL.0>
8.62657

>  <SCORE.INTRA.POLAR>
0

>  <SCORE.INTRA.POLAR.0>
0

>  <SCORE.INTRA.REPUL>
0

>  <SCORE.INTRA.REPUL.0>
0

>  <SCORE.INTRA.SOLV>
-0.302204

>  <SCORE.INTRA.SOLV.lig_0>
-66.3641

>  <SCORE.INTRA.VDW>
-2.14684

>  <SCORE.INTRA.VDW.0>
0.452231

>  <SCORE.INTRA.norm>
-0.253973

>  <SCORE.RESTR>
0

>  <SCORE.RESTR.CAVITY>
0

>  <SCORE.RESTR.norm>
0

>  <SCORE.SYSTEM>
0

>  <SCORE.SYSTEM.CONST>
0

>  <SCORE.SYSTEM.DIHEDRAL>
0

>  <SCORE.SYSTEM.SOLV>
0

>  <SCORE.SYSTEM.norm>
0

>  <SCORE.heavy>
23

>  <SCORE.norm>
-0.499086

>  <RMSD>
19.436

$$$$
ligand
 OpenBabel02271912143D
libRbt.so/2013.1/901 2013/11/27
 23 25  0  0  0  0  0  0  0  0999 V2000
    0.4137    3.5183   31.4343 P   0  0  1  0  0  0  0  0  0  0  0  0
    1.0894    5.1847   33.3375 C   0  0  0  0  0  0  0  0  0  0  0  0
    0.4407    3.9730   32.9773 O   0  0  0  0  0  0  0  0  0  0  0  0
    0.9753    5.3280   34.8385 C   0  0  1  0  0  0  0  0  0  0  0  0
    1.6374    4.2700   35.5307 O   0  0  0  0  0  0  0  0  0  0  0  0
    1.6179    6.6373   35.2645 C   0  0  1  0  0  0  0  0  0  0  0  0
    0.7165    7.3066   36.1632 O   0  0  0  0  0  0  0  0  0  0  0  0
    2.9209    6.2412   35.9475 C   0  0  0  0  0  0  0  0  0  0  0  0
    2.7166    4.7769   36.3267 C   0  0  2  0  0  0  0  0  0  0  0  0
    5.9875    3.4728   32.5674 N   0  0  0  0  0  0  0  0  0  0  0  0
    4.9226    4.2876   32.4914 C   0  0  2  0  0  0  0  0  0  0  0  0
    4.6512    4.8627   31.2968 N   0  0  0  0  0  0  0  0  0  0  0  0
    4.1516    4.5327   33.5783 N   0  0  0  0  0  0  0  0  0  0  0  0
    4.4544    3.9495   34.7564 C   0  0  2  0  0  0  0  0  0  0  0  0
    5.5427    3.1092   34.8505 C   0  0  1  0  0  0  0  0  0  0  0  0
    6.3183    2.8813   33.7296 C   0  0  0  0  0  0  0  0  0  0  0  0
    7.3133    2.1277   33.7956 O   0  0  0  0  0  0  0  0  0  0  0  0
    5.6155    2.6597   36.1189 N   0  0  0  0  0  0  0  0  0  0  0  0
    4.5976    3.2154   36.7996 C   0  0  0  0  0  0  0  0  0  0  0  0
    3.8960    3.9856   35.9610 N   0  0  1  0  0  0  0  0  0  0  0  0
   -0.4315    2.2703   31.3568 O   0  0  0  0  0  0  0  0  0  0  0  0
   -0.1689    4.7119   30.7131 O   0  5  0  0  0  0  0  0  0  0  0  0
    1.8687    3.2777   31.1350 O   0  0  0  0  0  0  0  0  0  0  0  0
  1  3  1  1  0  0  0
  1 21  1  0  0  0  0
  1 22  1  0  0  0  0
  1 23  2  0  0  0  0
  2  3  1  0  0  0  0
  4  2  1  6  0  0  0
  4  5  1  0  0  0  0
  4  6  1  0  0  0  0
  6  7  1  1  0  0  0
  6  8  1  0  0  0  0
  8  9  1  0  0  0  0
  9  5  1  6  0  0  0
  9 20  1  0  0  0  0
 10 11  1  0  0  0  0
 10 16  1  0  0  0  0
 11 12  1  1  0  0  0
 11 13  1  0  0  0  0
 14 13  1  6  0  0  0
 14 15  1  0  0  0  0
 14 20  1  0  0  0  0
 15 16  1  1  0  0  0
 15 18  1  0  0  0  0
 16 17  2  0  0  0  0
 18 19  1  0  0  0  0
 20 19  1  1  0  0  0
M  CHG  1  22  -1
M  END
>  <CHROM.1>
-175.50821337,62.41753538,-178.86209747,62.93125337,2.85418382,4.16563493
33.76435852,-2.79335197,-0.34127238,1.13379793

>  <Name>
ligand

>  <RI>
0

>  <Rbt.Current_Directory>
/home/itssahil/PROJECTS/Mol_Feturizer/Test_systems_manuscript/rnas/3slm

>  <Rbt.Executable>
rbdock ($Id: //depot/dev/client3/rdock/2013.1/src/exe/rbdock.cxx#4 $)

>  <Rbt.Library>
libRbt.so (2013.1, Build901 2013/11/27)

>  <Rbt.Parameter_File>
/export/apps/rDock/src/rDock_2013.1_src/data/scripts/dock_solv.prm

>  <Rbt.Receptor>
prm/blind_docking_40.prm

>  <SCORE>
-18.0797

>  <SCORE.INTER>
-13.089

>  <SCORE.INTER.CONST>
1

>  <SCORE.INTER.POLAR>
0

>  <SCORE.INTER.ROT>
4

>  <SCORE.INTER.SOLV>
10.2557

>  <SCORE.INTER.VDW>
-18.4113

>  <SCORE.INTER.norm>
-0.569088

>  <SCORE.INTRA>
-4.99071

>  <SCORE.INTRA.DIHEDRAL>
-7.34991

>  <SCORE.INTRA.DIHEDRAL.0>
8.62657

>  <SCORE.INTRA.POLAR>
0

>  <SCORE.INTRA.POLAR.0>
0

>  <SCORE.INTRA.REPUL>
0

>  <SCORE.INTRA.REPUL.0>
0

>  <SCORE.INTRA.SOLV>
3.19232

>  <SCORE.INTRA.SOLV.lig_0>
-66.3641

>  <SCORE.INTRA.VDW>
-2.91192

>  <SCORE.INTRA.VDW.0>
0.452231

>  <SCORE.INTRA.norm>
-0.216987

>  <SCORE.RESTR>
0

>  <SCORE.RESTR.CAVITY>
0

>  <SCORE.RESTR.norm>
0

>  <SCORE.SYSTEM>
0

>  <SCORE.SYSTEM.CONST>
0

>  <SCORE.SYSTEM.DIHEDRAL>
0

>  <SCORE.SYSTEM.SOLV>
0

>  <SCORE.SYSTEM.norm>
0

>  <SCORE.heavy>
23

>  <SCORE.norm>
-0.786076

>  <RMSD>
19.616

$$$$
ligand
 OpenBabel02271912143D
libRbt.so/2013.1/901 2013/11/27
 23 25  0  0  0  0  0  0  0  0999 V2000
    4.1989    6.0465   29.2354 P   0  0  1  0  0  0  0  0  0  0  0  0
    4.6846    6.0154   31.8080 C   0  0  0  0  0  0  0  0  0  0  0  0
    4.0599    5.3881   30.6967 O   0  0  0  0  0  0  0  0  0  0  0  0
    4.4502    5.1334   33.0137 C   0  0  1  0  0  0  0  0  0  0  0  0
    3.0611    4.9110   33.2544 O   0  0  0  0  0  0  0  0  0  0  0  0
    5.1042    3.7824   32.7777 C   0  0  1  0  0  0  0  0  0  0  0  0
    5.8551    3.4370   33.9545 O   0  0  0  0  0  0  0  0  0  0  0  0
    3.9523    2.8172   32.5275 C   0  0  0  0  0  0  0  0  0  0  0  0
    2.7360    3.5209   33.1234 C   0  0  2  0  0  0  0  0  0  0  0  0
   -1.8121    5.5355   31.7861 N   0  0  0  0  0  0  0  0  0  0  0  0
   -1.0165    5.8945   32.8069 C   0  0  2  0  0  0  0  0  0  0  0  0
   -1.4241    6.9150   33.5968 N   0  0  0  0  0  0  0  0  0  0  0  0
    0.1601    5.2613   33.0316 N   0  0  0  0  0  0  0  0  0  0  0  0
    0.5407    4.2529   32.2204 C   0  0  2  0  0  0  0  0  0  0  0  0
   -0.2653    3.8712   31.1698 C   0  0  1  0  0  0  0  0  0  0  0  0
   -1.4570    4.5377   30.9565 C   0  0  0  0  0  0  0  0  0  0  0  0
   -2.1991    4.2111   30.0052 O   0  0  0  0  0  0  0  0  0  0  0  0
    0.3370    2.8490   30.5305 N   0  0  0  0  0  0  0  0  0  0  0  0
    1.4964    2.6063   31.1671 C   0  0  0  0  0  0  0  0  0  0  0  0
    1.6029    3.4559   32.1946 N   0  0  1  0  0  0  0  0  0  0  0  0
    3.7572    7.4848   29.3557 O   0  0  0  0  0  0  0  0  0  0  0  0
    5.6604    5.8695   28.8937 O   0  5  0  0  0  0  0  0  0  0  0  0
    3.2730    5.2018   28.4026 O   0  0  0  0  0  0  0  0  0  0  0  0
  1  3  1  1  0  0  0
  1 21  1  0  0  0  0
  1 22  1  0  0  0  0
  1 23  2  0  0  0  0
  2  3  1  0  0  0  0
  4  2  1  6  0  0  0
  4  5  1  0  0  0  0
  4  6  1  0  0  0  0
  6  7  1  1  0  0  0
  6  8  1  0  0  0  0
  8  9  1  0  0  0  0
  9  5  1  6  0  0  0
  9 20  1  0  0  0  0
 10 11  1  0  0  0  0
 10 16  1  0  0  0  0
 11 12  1  6  0  0  0
 11 13  1  0  0  0  0
 14 13  1  1  0  0  0
 14 15  1  0  0  0  0
 14 20  1  0  0  0  0
 15 16  1  6  0  0  0
 15 18  1  0  0  0  0
 16 17  2  0  0  0  0
 18 19  1  0  0  0  0
 20 19  1  6  0  0  0
M  CHG  1  22  -1
M  END
>  <CHROM.1>
-53.25298812,-57.37317774,-176.72318821,-44.17169219,2.24105361,4.84378371
31.41741716,0.16076211,0.00744283,-1.11136149

>  <Name>
ligand

>  <RI>
0

>  <Rbt.Current_Directory>
/home/itssahil/PROJECTS/Mol_Feturizer/Test_systems_manuscript/rnas/3slm

>  <Rbt.Executable>
rbdock ($Id: //depot/dev/client3/rdock/2013.1/src/exe/rbdock.cxx#4 $)

>  <Rbt.Library>
libRbt.so (2013.1, Build901 2013/11/27)

>  <Rbt.Parameter_File>
/export/apps/rDock/src/rDock_2013.1_src/data/scripts/dock_solv.prm

>  <Rbt.Receptor>
prm/blind_docking_100.prm

>  <SCORE>
-14.8356

>  <SCORE.INTER>
-9.51954

>  <SCORE.INTER.CONST>
1

>  <SCORE.INTER.POLAR>
0

>  <SCORE.INTER.ROT>
4

>  <SCORE.INTER.SOLV>
15.4892

>  <SCORE.INTER.VDW>
-17.7761

>  <SCORE.INTER.norm>
-0.413893

>  <SCORE.INTRA>
-5.31611

>  <SCORE.INTRA.DIHEDRAL>
-7.21974

>  <SCORE.INTRA.DIHEDRAL.0>
8.62657

>  <SCORE.INTRA.POLAR>
0

>  <SCORE.INTRA.POLAR.0>
0

>  <SCORE.INTRA.REPUL>
0

>  <SCORE.INTRA.REPUL.0>
0

>  <SCORE.INTRA.SOLV>
-0.283563

>  <SCORE.INTRA.SOLV.lig_0>
-66.3641

>  <SCORE.INTRA.VDW>
-1.56445

>  <SCORE.INTRA.VDW.0>
0.452231

>  <SCORE.INTRA.norm>
-0.231135

>  <SCORE.RESTR>
0

>  <SCORE.RESTR.CAVITY>
0

>  <SCORE.RESTR.norm>
0

>  <SCORE.SYSTEM>
0

>  <SCORE.SYSTEM.CONST>
0

>  <SCORE.SYSTEM.DIHEDRAL>
0

>  <SCORE.SYSTEM.SOLV>
0

>  <SCORE.SYSTEM.norm>
0

>  <SCORE.heavy>
23

>  <SCORE.norm>
-0.645028

>  <RMSD>
19.670

$$$$
ligand
 OpenBabel02271912143D
libRbt.so/2013.1/901 2013/11/27
 23 25  0  0  0  0  0  0  0  0999 V2000
    1.5253    6.0190   34.0894 P   0  0  1  0  0  0  0  0  0  0  0  0
   -0.6298    5.9897   32.6028 C   0  0  0  0  0  0  0  0  0  0  0  0
    0.7507    5.6753   32.7219 O   0  0  0  0  0  0  0  0  0  0  0  0
   -1.0838    5.5167   31.2403 C   0  0  1  0  0  0  0  0  0  0  0  0
   -0.2796    6.0530   30.1903 O   0  0  0  0  0  0  0  0  0  0  0  0
   -0.9808    4.0020   31.1786 C   0  0  1  0  0  0  0  0  0  0  0  0
   -2.2079    3.4921   30.6287 O   0  0  0  0  0  0  0  0  0  0  0  0
    0.2143    3.7174   30.2776 C   0  0  0  0  0  0  0  0  0  0  0  0
    0.4038    5.0083   29.4854 C   0  0  2  0  0  0  0  0  0  0  0  0
    4.7785    5.0569   26.7667 N   0  0  0  0  0  0  0  0  0  0  0  0
    3.5883    4.5473   26.4095 C   0  0  2  0  0  0  0  0  0  0  0  0
    3.4867    3.9771   25.1864 N   0  0  0  0  0  0  0  0  0  0  0  0
    2.5223    4.6112   27.2434 N   0  0  0  0  0  0  0  0  0  0  0  0
    2.6555    5.1936   28.4529 C   0  0  2  0  0  0  0  0  0  0  0  0
    3.8706    5.7195   28.8353 C   0  0  1  0  0  0  0  0  0  0  0  0
    4.9408    5.6490   27.9638 C   0  0  0  0  0  0  0  0  0  0  0  0
    6.0496    6.1257   28.2890 O   0  0  0  0  0  0  0  0  0  0  0  0
    3.7344    6.2281   30.0759 N   0  0  0  0  0  0  0  0  0  0  0  0
    2.4591    6.0284   30.4526 C   0  0  0  0  0  0  0  0  0  0  0  0
    1.8192    5.3918   29.4656 N   0  0  1  0  0  0  0  0  0  0  0  0
    1.3664    7.5012   34.3260 O   0  0  0  0  0  0  0  0  0  0  0  0
    0.8477    5.1467   35.1209 O   0  5  0  0  0  0  0  0  0  0  0  0
    2.9397    5.6085   33.7805 O   0  0  0  0  0  0  0  0  0  0  0  0
  1  3  1  6  0  0  0
  1 21  1  0  0  0  0
  1 22  1  0  0  0  0
  1 23  2  0  0  0  0
  2  3  1  0  0  0  0
  4  2  1  1  0  0  0
  4  5  1  0  0  0  0
  4  6  1  0  0  0  0
  6  7  1  6  0  0  0
  6  8  1  0  0  0  0
  8  9  1  0  0  0  0
  9  5  1  1  0  0  0
  9 20  1  0  0  0  0
 10 11  1  0  0  0  0
 10 16  1  0  0  0  0
 11 12  1  6  0  0  0
 11 13  1  0  0  0  0
 14 13  1  1  0  0  0
 14 15  1  0  0  0  0
 14 20  1  0  0  0  0
 15 16  1  6  0  0  0
 15 18  1  0  0  0  0
 16 17  2  0  0  0  0
 18 19  1  0  0  0  0
 20 19  1  6  0  0  0
M  CHG  1  22  -1
M  END
>  <CHROM.1>
-57.27214155,-54.40454318,-178.30701170,-142.76116023,1.79470541,5.36547735
30.53004678,-2.11162478,-0.30238440,-1.84585025

>  <Name>
ligand

>  <RI>
0

>  <Rbt.Current_Directory>
/home/itssahil/PROJECTS/Mol_Feturizer/Test_systems_manuscript/rnas/3slm

>  <Rbt.Executable>
rbdock ($Id: //depot/dev/client3/rdock/2013.1/src/exe/rbdock.cxx#4 $)

>  <Rbt.Library>
libRbt.so (2013.1, Build901 2013/11/27)

>  <Rbt.Parameter_File>
/export/apps/rDock/src/rDock_2013.1_src/data/scripts/dock_solv.prm

>  <Rbt.Receptor>
prm/blind_docking_80.prm

>  <SCORE>
-17.7456

>  <SCORE.INTER>
-11.5669

>  <SCORE.INTER.CONST>
1

>  <SCORE.INTER.POLAR>
0

>  <SCORE.INTER.ROT>
4

>  <SCORE.INTER.SOLV>
12.9256

>  <SCORE.INTER.VDW>
-18.2865

>  <SCORE.INTER.norm>
-0.502909

>  <SCORE.INTRA>
-6.17865

>  <SCORE.INTRA.DIHEDRAL>
-7.22474

>  <SCORE.INTRA.DIHEDRAL.0>
8.62657

>  <SCORE.INTRA.POLAR>
0

>  <SCORE.INTRA.POLAR.0>
0

>  <SCORE.INTRA.REPUL>
0

>  <SCORE.INTRA.REPUL.0>
0

>  <SCORE.INTRA.SOLV>
0.155286

>  <SCORE.INTRA.SOLV.lig_0>
-66.3641

>  <SCORE.INTRA.VDW>
-2.64392

>  <SCORE.INTRA.VDW.0>
0.452231

>  <SCORE.INTRA.norm>
-0.268637

>  <SCORE.RESTR>
0

>  <SCORE.RESTR.CAVITY>
0

>  <SCORE.RESTR.norm>
0

>  <SCORE.SYSTEM>
0

>  <SCORE.SYSTEM.CONST>
0

>  <SCORE.SYSTEM.DIHEDRAL>
0

>  <SCORE.SYSTEM.SOLV>
0

>  <SCORE.SYSTEM.norm>
0

>  <SCORE.heavy>
23

>  <SCORE.norm>
-0.771546

>  <RMSD>
19.761

$$$$
ligand
 OpenBabel02271912143D
libRbt.so/2013.1/901 2013/11/27
 23 25  0  0  0  0  0  0  0  0999 V2000
    3.6266    4.2774   35.4589 P   0  0  1  0  0  0  0  0  0  0  0  0
    1.4203    5.3537   34.5483 C   0  0  0  0  0  0  0  0  0  0  0  0
    2.8278    5.2087   34.4183 O   0  0  0  0  0  0  0  0  0  0  0  0
    0.9537    6.2488   33.4224 C   0  0  1  0  0  0  0  0  0  0  0  0
    1.3409    5.7484   32.1431 O   0  0  0  0  0  0  0  0  0  0  0  0
   -0.5630    6.3344   33.4495 C   0  0  1  0  0  0  0  0  0  0  0  0
   -0.9353    7.7183   33.3295 O   0  0  0  0  0  0  0  0  0  0  0  0
   -1.0330    5.5079   32.2591 C   0  0  0  0  0  0  0  0  0  0  0  0
    0.1903    5.4292   31.3497 C   0  0  2  0  0  0  0  0  0  0  0  0
    2.4931    2.3880   27.8884 N   0  0  0  0  0  0  0  0  0  0  0  0
    2.5478    3.7268   27.9793 C   0  0  2  0  0  0  0  0  0  0  0  0
    3.3000    4.3914   27.0715 N   0  0  0  0  0  0  0  0  0  0  0  0
    1.8793    4.3887   28.9544 N   0  0  0  0  0  0  0  0  0  0  0  0
    1.1447    3.6954   29.8485 C   0  0  2  0  0  0  0  0  0  0  0  0
    1.0767    2.3213   29.7677 C   0  0  1  0  0  0  0  0  0  0  0  0
    1.7738    1.6686   28.7689 C   0  0  0  0  0  0  0  0  0  0  0  0
    1.7304    0.4224   28.6823 O   0  0  0  0  0  0  0  0  0  0  0  0
    0.2803    1.8828   30.7626 N   0  0  0  0  0  0  0  0  0  0  0  0
   -0.1313    2.9621   31.4510 C   0  0  0  0  0  0  0  0  0  0  0  0
    0.3903    4.0539   30.8812 N   0  0  1  0  0  0  0  0  0  0  0  0
    3.4973    4.9222   36.8174 O   0  0  0  0  0  0  0  0  0  0  0  0
    2.9473    2.9325   35.3397 O   0  5  0  0  0  0  0  0  0  0  0  0
    5.0292    4.3006   34.9143 O   0  0  0  0  0  0  0  0  0  0  0  0
  1  3  1  6  0  0  0
  1 21  1  0  0  0  0
  1 22  1  0  0  0  0
  1 23  2  0  0  0  0
  2  3  1  0  0  0  0
  4  2  1  1  0  0  0
  4  5  1  0  0  0  0
  4  6  1  0  0  0  0
  6  7  1  6  0  0  0
  6  8  1  0  0  0  0
  8  9  1  0  0  0  0
  9  5  1  1  0  0  0
  9 20  1  0  0  0  0
 10 11  1  0  0  0  0
 10 16  1  0  0  0  0
 11 12  1  1  0  0  0
 11 13  1  0  0  0  0
 14 13  1  6  0  0  0
 14 15  1  0  0  0  0
 14 20  1  0  0  0  0
 15 16  1  1  0  0  0
 15 18  1  0  0  0  0
 16 17  2  0  0  0  0
 18 19  1  0  0  0  0
 20 19  1  1  0  0  0
M  CHG  1  22  -1
M  END
>  <CHROM.1>
-64.80395336,55.69090940,-178.63344107,-80.79963150,1.71146856,4.20851454
32.03856243,-1.40884005,0.66758956,-2.01001449

>  <Name>
ligand

>  <RI>
0

>  <Rbt.Current_Directory>
/home/itssahil/PROJECTS/Mol_Feturizer/Test_systems_manuscript/rnas/3slm

>  <Rbt.Executable>
rbdock ($Id: //depot/dev/client3/rdock/2013.1/src/exe/rbdock.cxx#4 $)

>  <Rbt.Library>
libRbt.so (2013.1, Build901 2013/11/27)

>  <Rbt.Parameter_File>
/export/apps/rDock/src/rDock_2013.1_src/data/scripts/dock_solv.prm

>  <Rbt.Receptor>
prm/blind_docking_40.prm

>  <SCORE>
-12.7251

>  <SCORE.INTER>
-7.68822

>  <SCORE.INTER.CONST>
1

>  <SCORE.INTER.POLAR>
0

>  <SCORE.INTER.ROT>
4

>  <SCORE.INTER.SOLV>
10.8043

>  <SCORE.INTER.VDW>
-14.9936

>  <SCORE.INTER.norm>
-0.33427

>  <SCORE.INTRA>
-5.03686

>  <SCORE.INTRA.DIHEDRAL>
-7.37311

>  <SCORE.INTRA.DIHEDRAL.0>
8.62657

>  <SCORE.INTRA.POLAR>
0

>  <SCORE.INTRA.POLAR.0>
0

>  <SCORE.INTRA.REPUL>
0

>  <SCORE.INTRA.REPUL.0>
0

>  <SCORE.INTRA.SOLV>
-0.599119

>  <SCORE.INTRA.SOLV.lig_0>
-66.3641

>  <SCORE.INTRA.VDW>
-1.05075

>  <SCORE.INTRA.VDW.0>
0.452231

>  <SCORE.INTRA.norm>
-0.218994

>  <SCORE.RESTR>
0

>  <SCORE.RESTR.CAVITY>
0

>  <SCORE.RESTR.norm>
0

>  <SCORE.SYSTEM>
0

>  <SCORE.SYSTEM.CONST>
0

>  <SCORE.SYSTEM.DIHEDRAL>
0

>  <SCORE.SYSTEM.SOLV>
0

>  <SCORE.SYSTEM.norm>
0

>  <SCORE.heavy>
23

>  <SCORE.norm>
-0.553264

>  <RMSD>
19.795

$$$$
ligand
 OpenBabel02271912143D
libRbt.so/2013.1/901 2013/11/27
 23 25  0  0  0  0  0  0  0  0999 V2000
    4.0310    5.9248   27.8026 P   0  0  1  0  0  0  0  0  0  0  0  0
    3.3536    3.3958   27.7851 C   0  0  0  0  0  0  0  0  0  0  0  0
    3.9899    4.4633   28.4738 O   0  0  0  0  0  0  0  0  0  0  0  0
    3.4031    2.1840   28.6882 C   0  0  1  0  0  0  0  0  0  0  0  0
    2.7898    2.4315   29.9529 O   0  0  0  0  0  0  0  0  0  0  0  0
    2.6580    1.0376   28.0255 C   0  0  1  0  0  0  0  0  0  0  0  0
    3.4786   -0.1401   28.1138 O   0  0  0  0  0  0  0  0  0  0  0  0
    1.3610    0.8942   28.8118 C   0  0  0  0  0  0  0  0  0  0  0  0
    1.6505    1.5823   30.1431 C   0  0  2  0  0  0  0  0  0  0  0  0
    0.1999    5.6989   32.8783 N   0  0  0  0  0  0  0  0  0  0  0  0
    1.4167    5.1339   32.8165 C   0  0  2  0  0  0  0  0  0  0  0  0
    2.4115    5.6954   33.5422 N   0  0  0  0  0  0  0  0  0  0  0  0
    1.6421    4.0432   32.0449 N   0  0  0  0  0  0  0  0  0  0  0  0
    0.6302    3.5128   31.3276 C   0  0  2  0  0  0  0  0  0  0  0  0
   -0.6248    4.0796   31.3817 C   0  0  1  0  0  0  0  0  0  0  0  0
   -0.8276    5.1964   32.1700 C   0  0  0  0  0  0  0  0  0  0  0  0
   -1.9568    5.7293   32.2277 O   0  0  0  0  0  0  0  0  0  0  0  0
   -1.4431    3.3603   30.5884 N   0  0  0  0  0  0  0  0  0  0  0  0
   -0.7091    2.3719   30.0475 C   0  0  0  0  0  0  0  0  0  0  0  0
    0.5417    2.4689   30.5111 N   0  0  1  0  0  0  0  0  0  0  0  0
    4.8372    5.8045   26.5323 O   0  0  0  0  0  0  0  0  0  0  0  0
    2.5749    6.2677   27.5870 O   0  5  0  0  0  0  0  0  0  0  0  0
    4.7011    6.7568   28.8624 O   0  0  0  0  0  0  0  0  0  0  0  0
  1  3  1  1  0  0  0
  1 21  1  0  0  0  0
  1 22  1  0  0  0  0
  1 23  2  0  0  0  0
  2  3  1  0  0  0  0
  4  2  1  6  0  0  0
  4  5  1  0  0  0  0
  4  6  1  0  0  0  0
  6  7  1  1  0  0  0
  6  8  1  0  0  0  0
  8  9  1  0  0  0  0
  9  5  1  6  0  0  0
  9 20  1  0  0  0  0
 10 11  1  0  0  0  0
 10 16  1  0  0  0  0
 11 12  1  6  0  0  0
 11 13  1  0  0  0  0
 14 13  1  1  0  0  0
 14 15  1  0  0  0  0
 14 20  1  0  0  0  0
 15 16  1  6  0  0  0
 15 18  1  0  0  0  0
 16 17  2  0  0  0  0
 18 19  1  0  0  0  0
 20 19  1  6  0  0  0
M  CHG  1  22  -1
M  END
>  <CHROM.1>
-63.43032334,57.17329944,-176.74760563,-40.40523578,1.95074993,3.96526777
29.81850190,-0.25388273,0.75466693,0.31978283

>  <Name>
ligand

>  <RI>
0

>  <Rbt.Current_Directory>
/home/itssahil/PROJECTS/Mol_Feturizer/Test_systems_manuscript/rnas/3slm

>  <Rbt.Executable>
rbdock ($Id: //depot/dev/client3/rdock/2013.1/src/exe/rbdock.cxx#4 $)

>  <Rbt.Library>
libRbt.so (2013.1, Build901 2013/11/27)

>  <Rbt.Parameter_File>
/export/apps/rDock/src/rDock_2013.1_src/data/scripts/dock_solv.prm

>  <Rbt.Receptor>
prm/blind_docking_40.prm

>  <SCORE>
-19.3162

>  <SCORE.INTER>
-14.3767

>  <SCORE.INTER.CONST>
1

>  <SCORE.INTER.POLAR>
0

>  <SCORE.INTER.ROT>
4

>  <SCORE.INTER.SOLV>
10.7179

>  <SCORE.INTER.VDW>
-19.4238

>  <SCORE.INTER.norm>
-0.625076

>  <SCORE.INTRA>
-4.94297

>  <SCORE.INTRA.DIHEDRAL>
-7.28247

>  <SCORE.INTRA.DIHEDRAL.0>
8.62657

>  <SCORE.INTRA.POLAR>
0

>  <SCORE.INTRA.POLAR.0>
0

>  <SCORE.INTRA.REPUL>
0

>  <SCORE.INTRA.REPUL.0>
0

>  <SCORE.INTRA.SOLV>
-0.571614

>  <SCORE.INTRA.SOLV.lig_0>
-66.3641

>  <SCORE.INTRA.VDW>
-1.01592

>  <SCORE.INTRA.VDW.0>
0.452231

>  <SCORE.INTRA.norm>
-0.214912

>  <SCORE.RESTR>
0.00353752

>  <SCORE.RESTR.CAVITY>
0.00353752

>  <SCORE.RESTR.norm>
0.000153805

>  <SCORE.SYSTEM>
0

>  <SCORE.SYSTEM.CONST>
0

>  <SCORE.SYSTEM.DIHEDRAL>
0

>  <SCORE.SYSTEM.SOLV>
0

>  <SCORE.SYSTEM.norm>
0

>  <SCORE.heavy>
23

>  <SCORE.norm>
-0.839833

>  <RMSD>
19.853

$$$$
ligand
 OpenBabel02271912143D
libRbt.so/2013.1/901 2013/11/27
 23 25  0  0  0  0  0  0  0  0999 V2000
    2.1351    2.5388   36.8571 P   0  0  1  0  0  0  0  0  0  0  0  0
    3.2782    3.5308   34.7207 C   0  0  0  0  0  0  0  0  0  0  0  0
    3.0100    2.3843   35.5159 O   0  0  0  0  0  0  0  0  0  0  0  0
    4.1359    3.0827   33.5588 C   0  0  1  0  0  0  0  0  0  0  0  0
    3.4251    2.2260   32.6657 O   0  0  0  0  0  0  0  0  0  0  0  0
    4.5881    4.3022   32.7734 C   0  0  1  0  0  0  0  0  0  0  0  0
    6.0004    4.1802   32.5312 O   0  0  0  0  0  0  0  0  0  0  0  0
    3.7792    4.2710   31.4827 C   0  0  0  0  0  0  0  0  0  0  0  0
    3.3119    2.8225   31.3670 C   0  0  2  0  0  0  0  0  0  0  0  0
   -1.3100    5.0162   31.9653 N   0  0  0  0  0  0  0  0  0  0  0  0
   -0.1423    5.3839   32.5174 C   0  0  2  0  0  0  0  0  0  0  0  0
   -0.1406    6.4667   33.3293 N   0  0  0  0  0  0  0  0  0  0  0  0
    0.9980    4.6982   32.2617 N   0  0  0  0  0  0  0  0  0  0  0  0
    0.9631    3.6279   31.4414 C   0  0  2  0  0  0  0  0  0  0  0  0
   -0.2275    3.2364   30.8685 C   0  0  1  0  0  0  0  0  0  0  0  0
   -1.3755    3.9568   31.1386 C   0  0  0  0  0  0  0  0  0  0  0  0
   -2.4642    3.6220   30.6238 O   0  0  0  0  0  0  0  0  0  0  0  0
    0.0113    2.1490   30.1091 N   0  0  0  0  0  0  0  0  0  0  0  0
    1.3246    1.8757   30.2032 C   0  0  0  0  0  0  0  0  0  0  0  0
    1.8876    2.7718   31.0210 N   0  0  1  0  0  0  0  0  0  0  0  0
    2.8218    3.5733   37.7152 O   0  0  0  0  0  0  0  0  0  0  0  0
    0.7700    2.9507   36.3560 O   0  5  0  0  0  0  0  0  0  0  0  0
    2.1758    1.1521   37.4402 O   0  0  0  0  0  0  0  0  0  0  0  0
  1  3  1  6  0  0  0
  1 21  1  0  0  0  0
  1 22  1  0  0  0  0
  1 23  2  0  0  0  0
  2  3  1  0  0  0  0
  4  2  1  1  0  0  0
  4  5  1  0  0  0  0
  4  6  1  0  0  0  0
  6  7  1  6  0  0  0
  6  8  1  0  0  0  0
  8  9  1  0  0  0  0
  9  5  1  1  0  0  0
  9 20  1  0  0  0  0
 10 11  1  0  0  0  0
 10 16  1  0  0  0  0
 11 12  1  6  0  0  0
 11 13  1  0  0  0  0
 14 13  1  1  0  0  0
 14 15  1  0  0  0  0
 14 20  1  0  0  0  0
 15 16  1  6  0  0  0
 15 18  1  0  0  0  0
 16 17  2  0  0  0  0
 18 19  1  0  0  0  0
 20 19  1  6  0  0  0
M  CHG  1  22  -1
M  END
>  <CHROM.1>
-56.09230781,67.37605568,178.79976770,80.93521188,1.76502767,3.39567847,33.29529493
1.04184311,-0.11528442,1.69520560

>  <Name>
ligand

>  <RI>
0

>  <Rbt.Current_Directory>
/home/itssahil/PROJECTS/Mol_Feturizer/Test_systems_manuscript/rnas/3slm

>  <Rbt.Executable>
rbdock ($Id: //depot/dev/client3/rdock/2013.1/src/exe/rbdock.cxx#4 $)

>  <Rbt.Library>
libRbt.so (2013.1, Build901 2013/11/27)

>  <Rbt.Parameter_File>
/export/apps/rDock/src/rDock_2013.1_src/data/scripts/dock_solv.prm

>  <Rbt.Receptor>
prm/blind_docking_60.prm

>  <SCORE>
-16.9803

>  <SCORE.INTER>
-11.2074

>  <SCORE.INTER.CONST>
1

>  <SCORE.INTER.POLAR>
0

>  <SCORE.INTER.ROT>
4

>  <SCORE.INTER.SOLV>
11.6969

>  <SCORE.INTER.VDW>
-17.6372

>  <SCORE.INTER.norm>
-0.487278

>  <SCORE.INTRA>
-5.77294

>  <SCORE.INTRA.DIHEDRAL>
-7.1394

>  <SCORE.INTRA.DIHEDRAL.0>
8.62657

>  <SCORE.INTRA.POLAR>
0

>  <SCORE.INTRA.POLAR.0>
0

>  <SCORE.INTRA.REPUL>
0

>  <SCORE.INTRA.REPUL.0>
0

>  <SCORE.INTRA.SOLV>
-0.711875

>  <SCORE.INTRA.SOLV.lig_0>
-66.3641

>  <SCORE.INTRA.VDW>
-1.8473

>  <SCORE.INTRA.VDW.0>
0.452231

>  <SCORE.INTRA.norm>
-0.250997

>  <SCORE.RESTR>
0

>  <SCORE.RESTR.CAVITY>
0

>  <SCORE.RESTR.norm>
0

>  <SCORE.SYSTEM>
0

>  <SCORE.SYSTEM.CONST>
0

>  <SCORE.SYSTEM.DIHEDRAL>
0

>  <SCORE.SYSTEM.SOLV>
0

>  <SCORE.SYSTEM.norm>
0

>  <SCORE.heavy>
23

>  <SCORE.norm>
-0.738276

>  <RMSD>
19.958

$$$$
ligand
 OpenBabel02271912143D
libRbt.so/2013.1/901 2013/11/27
 23 25  0  0  0  0  0  0  0  0999 V2000
    2.1309    2.7470   36.9298 P   0  0  1  0  0  0  0  0  0  0  0  0
    3.2511    3.6483   34.7417 C   0  0  0  0  0  0  0  0  0  0  0  0
    2.9624    2.5303   35.5697 O   0  0  0  0  0  0  0  0  0  0  0  0
    4.1157    3.1546   33.6035 C   0  0  1  0  0  0  0  0  0  0  0  0
    3.4068    2.2718   32.7346 O   0  0  0  0  0  0  0  0  0  0  0  0
    4.5825    4.3432   32.7802 C   0  0  1  0  0  0  0  0  0  0  0  0
    5.9959    4.2040   32.5545 O   0  0  0  0  0  0  0  0  0  0  0  0
    3.7843    4.2722   31.4845 C   0  0  0  0  0  0  0  0  0  0  0  0
    3.3084    2.8235   31.4151 C   0  0  2  0  0  0  0  0  0  0  0  0
   -1.3137    5.0353   31.9409 N   0  0  0  0  0  0  0  0  0  0  0  0
   -0.1496    5.4098   32.4961 C   0  0  2  0  0  0  0  0  0  0  0  0
   -0.1521    6.5058   33.2900 N   0  0  0  0  0  0  0  0  0  0  0  0
    0.9913    4.7180   32.2606 N   0  0  0  0  0  0  0  0  0  0  0  0
    0.9608    3.6343   31.4578 C   0  0  2  0  0  0  0  0  0  0  0  0
   -0.2261    3.2357   30.8820 C   0  0  1  0  0  0  0  0  0  0  0  0
   -1.3748    3.9625   31.1312 C   0  0  0  0  0  0  0  0  0  0  0  0
   -2.4601    3.6214   30.6134 O   0  0  0  0  0  0  0  0  0  0  0  0
    0.0165    2.1355   30.1424 N   0  0  0  0  0  0  0  0  0  0  0  0
    1.3285    1.8614   30.2513 C   0  0  0  0  0  0  0  0  0  0  0  0
    1.8868    2.7698   31.0587 N   0  0  1  0  0  0  0  0  0  0  0  0
    2.8991    3.7444   37.7624 O   0  0  0  0  0  0  0  0  0  0  0  0
    0.7814    3.2369   36.4576 O   0  5  0  0  0  0  0  0  0  0  0  0
    2.1023    1.3647   37.5238 O   0  0  0  0  0  0  0  0  0  0  0  0
  1  3  1  6  0  0  0
  1 21  1  0  0  0  0
  1 22  1  0  0  0  0
  1 23  2  0  0  0  0
  2  3  1  0  0  0  0
  4  2  1  1  0  0  0
  4  5  1  0  0  0  0
  4  6  1  0  0  0  0
  6  7  1  6  0  0  0
  6  8  1  0  0  0  0
  8  9  1  0  0  0  0
  9  5  1  1  0  0  0
  9 20  1  0  0  0  0
 10 11  1  0  0  0  0
 10 16  1  0  0  0  0
 11 12  1  6  0  0  0
 11 13  1  0  0  0  0
 14 13  1  1  0  0  0
 14 15  1  0  0  0  0
 14 20  1  0  0  0  0
 15 16  1  6  0  0  0
 15 18  1  0  0  0  0
 16 17  2  0  0  0  0
 18 19  1  0  0  0  0
 20 19  1  6  0  0  0
M  CHG  1  22  -1
M  END
>  <CHROM.1>
-57.64028714,67.04680536,176.11529139,79.85177407,1.75936045,3.46889426,33.32596692
1.04844480,-0.12135101,1.65390394

>  <Name>
ligand

>  <RI>
0

>  <Rbt.Current_Directory>
/home/itssahil/PROJECTS/Mol_Feturizer/Test_systems_manuscript/rnas/3slm

>  <Rbt.Executable>
rbdock ($Id: //depot/dev/client3/rdock/2013.1/src/exe/rbdock.cxx#4 $)

>  <Rbt.Library>
libRbt.so (2013.1, Build901 2013/11/27)

>  <Rbt.Parameter_File>
/export/apps/rDock/src/rDock_2013.1_src/data/scripts/dock_solv.prm

>  <Rbt.Receptor>
prm/blind_docking_60.prm

>  <SCORE>
-16.9701

>  <SCORE.INTER>
-11.1665

>  <SCORE.INTER.CONST>
1

>  <SCORE.INTER.POLAR>
0

>  <SCORE.INTER.ROT>
4

>  <SCORE.INTER.SOLV>
10.4283

>  <SCORE.INTER.VDW>
-17.1871

>  <SCORE.INTER.norm>
-0.485501

>  <SCORE.INTRA>
-5.80356

>  <SCORE.INTRA.DIHEDRAL>
-7.1094

>  <SCORE.INTRA.DIHEDRAL.0>
8.62657

>  <SCORE.INTRA.POLAR>
0

>  <SCORE.INTRA.POLAR.0>
0

>  <SCORE.INTRA.REPUL>
0

>  <SCORE.INTRA.REPUL.0>
0

>  <SCORE.INTRA.SOLV>
-0.686573

>  <SCORE.INTRA.SOLV.lig_0>
-66.3641

>  <SCORE.INTRA.VDW>
-1.90557

>  <SCORE.INTRA.VDW.0>
0.452231

>  <SCORE.INTRA.norm>
-0.252329

>  <SCORE.RESTR>
0

>  <SCORE.RESTR.CAVITY>
0

>  <SCORE.RESTR.norm>
0

>  <SCORE.SYSTEM>
0

>  <SCORE.SYSTEM.CONST>
0

>  <SCORE.SYSTEM.DIHEDRAL>
0

>  <SCORE.SYSTEM.SOLV>
0

>  <SCORE.SYSTEM.norm>
0

>  <SCORE.heavy>
23

>  <SCORE.norm>
-0.737829

>  <RMSD>
19.976

$$$$
ligand
 OpenBabel02271912143D
libRbt.so/2013.1/901 2013/11/27
 23 25  0  0  0  0  0  0  0  0999 V2000
    2.5062    4.5161   27.1770 P   0  0  1  0  0  0  0  0  0  0  0  0
    0.7302    5.5852   28.7764 C   0  0  0  0  0  0  0  0  0  0  0  0
    1.0655    5.1746   27.4581 O   0  0  0  0  0  0  0  0  0  0  0  0
   -0.0590    4.4622   29.4110 C   0  0  1  0  0  0  0  0  0  0  0  0
    0.7770    3.3753   29.8066 O   0  0  0  0  0  0  0  0  0  0  0  0
   -0.7609    4.9859   30.6526 C   0  0  1  0  0  0  0  0  0  0  0  0
   -2.1296    4.5466   30.6118 O   0  0  0  0  0  0  0  0  0  0  0  0
    0.0004    4.3848   31.8275 C   0  0  0  0  0  0  0  0  0  0  0  0
    0.7347    3.1888   31.2274 C   0  0  2  0  0  0  0  0  0  0  0  0
    3.9236    3.1692   35.2724 N   0  0  0  0  0  0  0  0  0  0  0  0
    2.5813    3.2146   35.2776 C   0  0  2  0  0  0  0  0  0  0  0  0
    1.9551    3.2504   36.4768 N   0  0  0  0  0  0  0  0  0  0  0  0
    1.8779    3.2147   34.1196 N   0  0  0  0  0  0  0  0  0  0  0  0
    2.5328    3.1705   32.9411 C   0  0  2  0  0  0  0  0  0  0  0  0
    3.9100    3.1255   32.9187 C   0  0  1  0  0  0  0  0  0  0  0  0
    4.6047    3.1184   34.1133 C   0  0  0  0  0  0  0  0  0  0  0  0
    5.8537    3.0715   34.1147 O   0  0  0  0  0  0  0  0  0  0  0  0
    4.3065    3.0956   31.6309 N   0  0  0  0  0  0  0  0  0  0  0  0
    3.1978    3.1141   30.8702 C   0  0  0  0  0  0  0  0  0  0  0  0
    2.1311    3.1702   31.6751 N   0  0  1  0  0  0  0  0  0  0  0  0
    2.6282    3.3171   28.0857 O   0  0  0  0  0  0  0  0  0  0  0  0
    2.4723    4.1810   25.7037 O   0  5  0  0  0  0  0  0  0  0  0  0
    3.4537    5.6321   27.5251 O   0  0  0  0  0  0  0  0  0  0  0  0
  1  3  1  1  0  0  0
  1 21  1  0  0  0  0
  1 22  1  0  0  0  0
  1 23  2  0  0  0  0
  2  3  1  0  0  0  0
  4  2  1  1  0  0  0
  4  5  1  0  0  0  0
  4  6  1  0  0  0  0
  6  7  1  6  0  0  0
  6  8  1  0  0  0  0
  8  9  1  0  0  0  0
  9  5  1  6  0  0  0
  9 20  1  0  0  0  0
 10 11  1  0  0  0  0
 10 16  1  0  0  0  0
 11 12  1  1  0  0  0
 11 13  1  0  0  0  0
 14 13  1  6  0  0  0
 14 15  1  0  0  0  0
 14 20  1  0  0  0  0
 15 16  1  1  0  0  0
 15 18  1  0  0  0  0
 16 17  2  0  0  0  0
 18 19  1  0  0  0  0
 20 19  1  1  0  0  0
M  CHG  1  22  -1
M  END
>  <CHROM.1>
56.98410240,76.04776810,-96.22888919,171.90122298,2.09781271,3.89452785,30.86115094
-1.81359228,-0.16306692,1.74304049

>  <Name>
ligand

>  <RI>
0

>  <Rbt.Current_Directory>
/home/itssahil/PROJECTS/Mol_Feturizer/Test_systems_manuscript/rnas/3slm

>  <Rbt.Executable>
rbdock ($Id: //depot/dev/client3/rdock/2013.1/src/exe/rbdock.cxx#4 $)

>  <Rbt.Library>
libRbt.so (2013.1, Build901 2013/11/27)

>  <Rbt.Parameter_File>
/export/apps/rDock/src/rDock_2013.1_src/data/scripts/dock_solv.prm

>  <Rbt.Receptor>
prm/blind_docking_40.prm

>  <SCORE>
-15.967

>  <SCORE.INTER>
-13.2944

>  <SCORE.INTER.CONST>
1

>  <SCORE.INTER.POLAR>
0

>  <SCORE.INTER.ROT>
4

>  <SCORE.INTER.SOLV>
10.383

>  <SCORE.INTER.VDW>
-18.5906

>  <SCORE.INTER.norm>
-0.578019

>  <SCORE.INTRA>
-2.67258

>  <SCORE.INTRA.DIHEDRAL>
-1.80747

>  <SCORE.INTRA.DIHEDRAL.0>
8.62657

>  <SCORE.INTRA.POLAR>
0

>  <SCORE.INTRA.POLAR.0>
0

>  <SCORE.INTRA.REPUL>
0

>  <SCORE.INTRA.REPUL.0>
0

>  <SCORE.INTRA.SOLV>
0.245495

>  <SCORE.INTRA.SOLV.lig_0>
-66.3641

>  <SCORE.INTRA.VDW>
-1.89159

>  <SCORE.INTRA.VDW.0>
0.452231

>  <SCORE.INTRA.norm>
-0.116199

>  <SCORE.RESTR>
0

>  <SCORE.RESTR.CAVITY>
0

>  <SCORE.RESTR.norm>
0

>  <SCORE.SYSTEM>
0

>  <SCORE.SYSTEM.CONST>
0

>  <SCORE.SYSTEM.DIHEDRAL>
0

>  <SCORE.SYSTEM.SOLV>
0

>  <SCORE.SYSTEM.norm>
0

>  <SCORE.heavy>
23

>  <SCORE.norm>
-0.694218

>  <RMSD>
20.034

$$$$
ligand
 OpenBabel02271912143D
libRbt.so/2013.1/901 2013/11/27
 23 25  0  0  0  0  0  0  0  0999 V2000
   -0.2765    6.8523   34.2233 P   0  0  1  0  0  0  0  0  0  0  0  0
    0.0153    4.9622   32.4351 C   0  0  0  0  0  0  0  0  0  0  0  0
   -0.6524    6.1548   32.8231 O   0  0  0  0  0  0  0  0  0  0  0  0
   -0.6139    4.4938   31.1423 C   0  0  1  0  0  0  0  0  0  0  0  0
   -0.1914    5.2755   30.0255 O   0  0  0  0  0  0  0  0  0  0  0  0
   -0.2069    3.0531   30.8831 C   0  0  1  0  0  0  0  0  0  0  0  0
   -1.3869    2.3113   30.5291 O   0  0  0  0  0  0  0  0  0  0  0  0
    0.7952    3.1191   29.7374 C   0  0  0  0  0  0  0  0  0  0  0  0
    0.5279    4.4712   29.0816 C   0  0  2  0  0  0  0  0  0  0  0  0
    4.4922    5.1066   25.8547 N   0  0  0  0  0  0  0  0  0  0  0  0
    3.4470    4.2730   25.7268 C   0  0  2  0  0  0  0  0  0  0  0  0
    3.3906    3.4958   24.6203 N   0  0  0  0  0  0  0  0  0  0  0  0
    2.4763    4.2197   26.6705 N   0  0  0  0  0  0  0  0  0  0  0  0
    2.5587    5.0137   27.7579 C   0  0  2  0  0  0  0  0  0  0  0  0
    3.6259    5.8732   27.9051 C   0  0  1  0  0  0  0  0  0  0  0  0
    4.5991    5.9148   26.9249 C   0  0  0  0  0  0  0  0  0  0  0  0
    5.5717    6.6921   27.0364 O   0  0  0  0  0  0  0  0  0  0  0  0
    3.4707    6.5374   29.0675 N   0  0  0  0  0  0  0  0  0  0  0  0
    2.3269    6.1041   29.6265 C   0  0  0  0  0  0  0  0  0  0  0  0
    1.7899    5.1744   28.8290 N   0  0  1  0  0  0  0  0  0  0  0  0
   -1.0872    8.1221   34.3154 O   0  0  0  0  0  0  0  0  0  0  0  0
   -0.6324    5.8088   35.2571 O   0  5  0  0  0  0  0  0  0  0  0  0
    1.2026    7.0929   34.0863 O   0  0  0  0  0  0  0  0  0  0  0  0
  1  3  1  6  0  0  0
  1 21  1  0  0  0  0
  1 22  1  0  0  0  0
  1 23  2  0  0  0  0
  2  3  1  0  0  0  0
  4  2  1  1  0  0  0
  4  5  1  0  0  0  0
  4  6  1  0  0  0  0
  6  7  1  6  0  0  0
  6  8  1  0  0  0  0
  8  9  1  0  0  0  0
  9  5  1  1  0  0  0
  9 20  1  0  0  0  0
 10 11  1  0  0  0  0
 10 16  1  0  0  0  0
 11 12  1  6  0  0  0
 11 13  1  0  0  0  0
 14 13  1  1  0  0  0
 14 15  1  0  0  0  0
 14 20  1  0  0  0  0
 15 16  1  6  0  0  0
 15 18  1  0  0  0  0
 16 17  2  0  0  0  0
 18 19  1  0  0  0  0
 20 19  1  6  0  0  0
M  CHG  1  22  -1
M  END
>  <CHROM.1>
176.93072176,75.66313131,175.90953864,-158.54636004,1.35763568,5.33687720
30.13672136,-2.27543696,-0.69994815,-2.24599056

>  <Name>
ligand

>  <RI>
0

>  <Rbt.Current_Directory>
/home/itssahil/PROJECTS/Mol_Feturizer/Test_systems_manuscript/rnas/3slm

>  <Rbt.Executable>
rbdock ($Id: //depot/dev/client3/rdock/2013.1/src/exe/rbdock.cxx#4 $)

>  <Rbt.Library>
libRbt.so (2013.1, Build901 2013/11/27)

>  <Rbt.Parameter_File>
/export/apps/rDock/src/rDock_2013.1_src/data/scripts/dock_solv.prm

>  <Rbt.Receptor>
prm/blind_docking_40.prm

>  <SCORE>
-16.7999

>  <SCORE.INTER>
-11.8607

>  <SCORE.INTER.CONST>
1

>  <SCORE.INTER.POLAR>
0

>  <SCORE.INTER.ROT>
4

>  <SCORE.INTER.SOLV>
12.7152

>  <SCORE.INTER.VDW>
-18.4122

>  <SCORE.INTER.norm>
-0.515681

>  <SCORE.INTRA>
-4.9392

>  <SCORE.INTRA.DIHEDRAL>
-6.43933

>  <SCORE.INTRA.DIHEDRAL.0>
8.62657

>  <SCORE.INTRA.POLAR>
0

>  <SCORE.INTRA.POLAR.0>
0

>  <SCORE.INTRA.REPUL>
0

>  <SCORE.INTRA.REPUL.0>
0

>  <SCORE.INTRA.SOLV>
-0.102976

>  <SCORE.INTRA.SOLV.lig_0>
-66.3641

>  <SCORE.INTRA.VDW>
-1.66805

>  <SCORE.INTRA.VDW.0>
0.452231

>  <SCORE.INTRA.norm>
-0.214748

>  <SCORE.RESTR>
0

>  <SCORE.RESTR.CAVITY>
0

>  <SCORE.RESTR.norm>
0

>  <SCORE.SYSTEM>
0

>  <SCORE.SYSTEM.CONST>
0

>  <SCORE.SYSTEM.DIHEDRAL>
0

>  <SCORE.SYSTEM.SOLV>
0

>  <SCORE.SYSTEM.norm>
0

>  <SCORE.heavy>
23

>  <SCORE.norm>
-0.730429

>  <RMSD>
20.093

$$$$
ligand
 OpenBabel02271912143D
libRbt.so/2013.1/901 2013/11/27
 23 25  0  0  0  0  0  0  0  0999 V2000
    5.5646    3.4707   33.2644 P   0  0  1  0  0  0  0  0  0  0  0  0
    3.1949    3.1127   32.2102 C   0  0  0  0  0  0  0  0  0  0  0  0
    4.5966    2.9021   32.1121 O   0  0  0  0  0  0  0  0  0  0  0  0
    2.5576    2.4765   30.9955 C   0  0  1  0  0  0  0  0  0  0  0  0
    1.1350    2.4278   31.0990 O   0  0  0  0  0  0  0  0  0  0  0  0
    2.9073    3.2938   29.7633 C   0  0  1  0  0  0  0  0  0  0  0  0
    3.3435    2.3885   28.7346 O   0  0  0  0  0  0  0  0  0  0  0  0
    1.6216    4.0178   29.3838 C   0  0  0  0  0  0  0  0  0  0  0  0
    0.5205    3.2123   30.0683 C   0  0  2  0  0  0  0  0  0  0  0  0
   -0.1924    6.4824   33.9837 N   0  0  0  0  0  0  0  0  0  0  0  0
    0.9116    5.7785   33.6845 C   0  0  2  0  0  0  0  0  0  0  0  0
    1.9933    5.9302   34.4835 N   0  0  0  0  0  0  0  0  0  0  0  0
    0.9433    4.9513   32.6119 N   0  0  0  0  0  0  0  0  0  0  0  0
   -0.1499    4.8291   31.8311 C   0  0  2  0  0  0  0  0  0  0  0  0
   -1.2913    5.5430   32.1257 C   0  0  1  0  0  0  0  0  0  0  0  0
   -1.2962    6.3861   33.2206 C   0  0  0  0  0  0  0  0  0  0  0  0
   -2.3192    7.0473   33.5011 O   0  0  0  0  0  0  0  0  0  0  0  0
   -2.2261    5.2357   31.2049 N   0  0  0  0  0  0  0  0  0  0  0  0
   -1.6737    4.3548   30.3522 C   0  0  0  0  0  0  0  0  0  0  0  0
   -0.4201    4.1088   30.7483 N   0  0  1  0  0  0  0  0  0  0  0  0
    5.0034    2.9999   34.5841 O   0  0  0  0  0  0  0  0  0  0  0  0
    6.9183    2.8931   32.9207 O   0  5  0  0  0  0  0  0  0  0  0  0
    5.4717    4.9599   33.0695 O   0  0  0  0  0  0  0  0  0  0  0  0
  1  3  1  6  0  0  0
  1 21  1  0  0  0  0
  1 22  1  0  0  0  0
  1 23  2  0  0  0  0
  2  3  1  0  0  0  0
  4  2  1  1  0  0  0
  4  5  1  0  0  0  0
  4  6  1  0  0  0  0
  6  7  1  6  0  0  0
  6  8  1  0  0  0  0
  8  9  1  0  0  0  0
  9  5  1  1  0  0  0
  9 20  1  0  0  0  0
 10 11  1  0  0  0  0
 10 16  1  0  0  0  0
 11 12  1  6  0  0  0
 11 13  1  0  0  0  0
 14 13  1  1  0  0  0
 14 15  1  0  0  0  0
 14 20  1  0  0  0  0
 15 16  1  6  0  0  0
 15 18  1  0  0  0  0
 16 17  2  0  0  0  0
 18 19  1  0  0  0  0
 20 19  1  6  0  0  0
M  CHG  1  22  -1
M  END
>  <CHROM.1>
50.94188107,170.08071455,179.83064268,46.81123783,1.95067570,4.20801560,32.08073463
-0.11309092,-0.33284126,1.02055092

>  <Name>
ligand

>  <RI>
0

>  <Rbt.Current_Directory>
/home/itssahil/PROJECTS/Mol_Feturizer/Test_systems_manuscript/rnas/3slm

>  <Rbt.Executable>
rbdock ($Id: //depot/dev/client3/rdock/2013.1/src/exe/rbdock.cxx#4 $)

>  <Rbt.Library>
libRbt.so (2013.1, Build901 2013/11/27)

>  <Rbt.Parameter_File>
/export/apps/rDock/src/rDock_2013.1_src/data/scripts/dock_solv.prm

>  <Rbt.Receptor>
prm/blind_docking_40.prm

>  <SCORE>
-18.759

>  <SCORE.INTER>
-13.6058

>  <SCORE.INTER.CONST>
1

>  <SCORE.INTER.POLAR>
0

>  <SCORE.INTER.ROT>
4

>  <SCORE.INTER.SOLV>
13.7399

>  <SCORE.INTER.VDW>
-19.9171

>  <SCORE.INTER.norm>
-0.591556

>  <SCORE.INTRA>
-5.15318

>  <SCORE.INTRA.DIHEDRAL>
-7.00065

>  <SCORE.INTRA.DIHEDRAL.0>
8.62657

>  <SCORE.INTRA.POLAR>
0

>  <SCORE.INTRA.POLAR.0>
0

>  <SCORE.INTRA.REPUL>
0

>  <SCORE.INTRA.REPUL.0>
0

>  <SCORE.INTRA.SOLV>
1.73564

>  <SCORE.INTRA.SOLV.lig_0>
-66.3641

>  <SCORE.INTRA.VDW>
-2.52068

>  <SCORE.INTRA.VDW.0>
0.452231

>  <SCORE.INTRA.norm>
-0.224051

>  <SCORE.RESTR>
0

>  <SCORE.RESTR.CAVITY>
0

>  <SCORE.RESTR.norm>
0

>  <SCORE.SYSTEM>
0

>  <SCORE.SYSTEM.CONST>
0

>  <SCORE.SYSTEM.DIHEDRAL>
0

>  <SCORE.SYSTEM.SOLV>
0

>  <SCORE.SYSTEM.norm>
0

>  <SCORE.heavy>
23

>  <SCORE.norm>
-0.815607

>  <RMSD>
20.125

$$$$
ligand
 OpenBabel02271912143D
libRbt.so/2013.1/901 2013/11/27
 23 25  0  0  0  0  0  0  0  0999 V2000
    3.4043    3.6124   27.5781 P   0  0  1  0  0  0  0  0  0  0  0  0
    1.5390    4.4036   29.2364 C   0  0  0  0  0  0  0  0  0  0  0  0
    2.2193    3.3163   28.6252 O   0  0  0  0  0  0  0  0  0  0  0  0
    0.4100    3.8239   30.0584 C   0  0  1  0  0  0  0  0  0  0  0  0
    0.8859    2.9636   31.0930 O   0  0  0  0  0  0  0  0  0  0  0  0
   -0.3626    4.9566   30.7132 C   0  0  1  0  0  0  0  0  0  0  0  0
   -1.7656    4.7215   30.5030 O   0  0  0  0  0  0  0  0  0  0  0  0
    0.0147    4.8996   32.1882 C   0  0  0  0  0  0  0  0  0  0  0  0
    0.5469    3.4827   32.3856 C   0  0  2  0  0  0  0  0  0  0  0  0
    2.8195    2.4417   36.8893 N   0  0  0  0  0  0  0  0  0  0  0  0
    1.5282    2.2796   36.5574 C   0  0  2  0  0  0  0  0  0  0  0  0
    0.6939    1.7727   37.4948 N   0  0  0  0  0  0  0  0  0  0  0  0
    1.0786    2.6040   35.3212 N   0  0  0  0  0  0  0  0  0  0  0  0
    1.9383    3.0997   34.4074 C   0  0  2  0  0  0  0  0  0  0  0  0
    3.2660    3.2740   34.7329 C   0  0  1  0  0  0  0  0  0  0  0  0
    3.7019    2.9282   35.9979 C   0  0  0  0  0  0  0  0  0  0  0  0
    4.9034    3.0725   36.3108 O   0  0  0  0  0  0  0  0  0  0  0  0
    3.8969    3.7845   33.6569 N   0  0  0  0  0  0  0  0  0  0  0  0
    2.9808    3.9174   32.6815 C   0  0  0  0  0  0  0  0  0  0  0  0
    1.7971    3.5093   33.1519 N   0  0  1  0  0  0  0  0  0  0  0  0
    4.3772    4.5406   28.2638 O   0  0  0  0  0  0  0  0  0  0  0  0
    3.9636    2.2439   27.2644 O   0  5  0  0  0  0  0  0  0  0  0  0
    2.6760    4.2504   26.4261 O   0  0  0  0  0  0  0  0  0  0  0  0
  1  3  1  1  0  0  0
  1 21  1  0  0  0  0
  1 22  1  0  0  0  0
  1 23  2  0  0  0  0
  2  3  1  0  0  0  0
  4  2  1  1  0  0  0
  4  5  1  0  0  0  0
  4  6  1  0  0  0  0
  6  7  1  1  0  0  0
  6  8  1  0  0  0  0
  8  9  1  0  0  0  0
  9  5  1  6  0  0  0
  9 20  1  0  0  0  0
 10 11  1  0  0  0  0
 10 16  1  0  0  0  0
 11 12  1  6  0  0  0
 11 13  1  0  0  0  0
 14 13  1  1  0  0  0
 14 15  1  0  0  0  0
 14 20  1  0  0  0  0
 15 16  1  6  0  0  0
 15 18  1  0  0  0  0
 16 17  2  0  0  0  0
 18 19  1  0  0  0  0
 20 19  1  6  0  0  0
M  CHG  1  22  -1
M  END
>  <CHROM.1>
53.00031090,61.55365793,174.84684986,-135.16003174,2.10579961,3.49117787
31.84031058,-1.54353414,-0.17811312,1.70745490

>  <Name>
ligand

>  <RI>
0

>  <Rbt.Current_Directory>
/home/itssahil/PROJECTS/Mol_Feturizer/Test_systems_manuscript/rnas/3slm

>  <Rbt.Executable>
rbdock ($Id: //depot/dev/client3/rdock/2013.1/src/exe/rbdock.cxx#4 $)

>  <Rbt.Library>
libRbt.so (2013.1, Build901 2013/11/27)

>  <Rbt.Parameter_File>
/export/apps/rDock/src/rDock_2013.1_src/data/scripts/dock_solv.prm

>  <Rbt.Receptor>
prm/blind_docking_40.prm

>  <SCORE>
-15.5451

>  <SCORE.INTER>
-9.62792

>  <SCORE.INTER.CONST>
1

>  <SCORE.INTER.POLAR>
0

>  <SCORE.INTER.ROT>
4

>  <SCORE.INTER.SOLV>
10.8211

>  <SCORE.INTER.VDW>
-16.2923

>  <SCORE.INTER.norm>
-0.418605

>  <SCORE.INTRA>
-5.91713

>  <SCORE.INTRA.DIHEDRAL>
-7.17402

>  <SCORE.INTRA.DIHEDRAL.0>
8.62657

>  <SCORE.INTRA.POLAR>
0

>  <SCORE.INTRA.POLAR.0>
0

>  <SCORE.INTRA.REPUL>
0

>  <SCORE.INTRA.REPUL.0>
0

>  <SCORE.INTRA.SOLV>
-0.70608

>  <SCORE.INTRA.SOLV.lig_0>
-66.3641

>  <SCORE.INTRA.VDW>
-1.97708

>  <SCORE.INTRA.VDW.0>
0.452231

>  <SCORE.INTRA.norm>
-0.257267

>  <SCORE.RESTR>
0

>  <SCORE.RESTR.CAVITY>
0

>  <SCORE.RESTR.norm>
0

>  <SCORE.SYSTEM>
0

>  <SCORE.SYSTEM.CONST>
0

>  <SCORE.SYSTEM.DIHEDRAL>
0

>  <SCORE.SYSTEM.SOLV>
0

>  <SCORE.SYSTEM.norm>
0

>  <SCORE.heavy>
23

>  <SCORE.norm>
-0.675872

>  <RMSD>
20.327

$$$$
ligand
 OpenBabel02271912143D
libRbt.so/2013.1/901 2013/11/27
 23 25  0  0  0  0  0  0  0  0999 V2000
    3.1018    3.1590   27.8019 P   0  0  1  0  0  0  0  0  0  0  0  0
    1.2739    4.1595   29.3871 C   0  0  0  0  0  0  0  0  0  0  0  0
    1.8933    2.9983   28.8516 O   0  0  0  0  0  0  0  0  0  0  0  0
    0.2013    3.6960   30.3469 C   0  0  1  0  0  0  0  0  0  0  0  0
    0.7313    2.8796   31.3908 O   0  0  0  0  0  0  0  0  0  0  0  0
   -0.4505    4.9087   30.9895 C   0  0  1  0  0  0  0  0  0  0  0  0
   -1.8769    4.7370   30.9250 O   0  0  0  0  0  0  0  0  0  0  0  0
    0.0615    4.9266   32.4243 C   0  0  0  0  0  0  0  0  0  0  0  0
    0.5415    3.4986   32.6699 C   0  0  2  0  0  0  0  0  0  0  0  0
    3.2332    2.3165   36.8995 N   0  0  0  0  0  0  0  0  0  0  0  0
    1.9169    2.1574   36.6854 C   0  0  2  0  0  0  0  0  0  0  0  0
    1.1766    1.6127   37.6789 N   0  0  0  0  0  0  0  0  0  0  0  0
    1.3513    2.5218   35.5093 N   0  0  0  0  0  0  0  0  0  0  0  0
    2.1191    3.0546   34.5366 C   0  0  2  0  0  0  0  0  0  0  0  0
    3.4711    3.2263   34.7412 C   0  0  1  0  0  0  0  0  0  0  0  0
    4.0257    2.8395   35.9464 C   0  0  0  0  0  0  0  0  0  0  0  0
    5.2510    2.9808   36.1494 O   0  0  0  0  0  0  0  0  0  0  0  0
    3.9957    3.7781   33.6292 N   0  0  0  0  0  0  0  0  0  0  0  0
    2.9910    3.9387   32.7499 C   0  0  0  0  0  0  0  0  0  0  0  0
    1.8584    3.5067   33.3152 N   0  0  1  0  0  0  0  0  0  0  0  0
    4.1156    4.0814   28.4340 O   0  0  0  0  0  0  0  0  0  0  0  0
    3.5915    1.7448   27.5910 O   0  5  0  0  0  0  0  0  0  0  0  0
    2.4186    3.7516   26.5992 O   0  0  0  0  0  0  0  0  0  0  0  0
  1  3  1  1  0  0  0
  1 21  1  0  0  0  0
  1 22  1  0  0  0  0
  1 23  2  0  0  0  0
  2  3  1  0  0  0  0
  4  2  1  6  0  0  0
  4  5  1  0  0  0  0
  4  6  1  0  0  0  0
  6  7  1  1  0  0  0
  6  8  1  0  0  0  0
  8  9  1  0  0  0  0
  9  5  1  6  0  0  0
  9 20  1  0  0  0  0
 10 11  1  0  0  0  0
 10 16  1  0  0  0  0
 11 12  1  6  0  0  0
 11 13  1  0  0  0  0
 14 13  1  1  0  0  0
 14 15  1  0  0  0  0
 14 20  1  0  0  0  0
 15 16  1  6  0  0  0
 15 18  1  0  0  0  0
 16 17  2  0  0  0  0
 18 19  1  0  0  0  0
 20 19  1  6  0  0  0
M  CHG  1  22  -1
M  END
>  <CHROM.1>
52.38914649,58.21989095,-179.17689076,-128.48388520,2.09817082,3.31831599
32.00884658,-1.62986869,-0.24521519,1.65701801

>  <Name>
ligand

>  <RI>
0

>  <Rbt.Current_Directory>
/home/itssahil/PROJECTS/Mol_Feturizer/Test_systems_manuscript/rnas/3slm

>  <Rbt.Executable>
rbdock ($Id: //depot/dev/client3/rdock/2013.1/src/exe/rbdock.cxx#4 $)

>  <Rbt.Library>
libRbt.so (2013.1, Build901 2013/11/27)

>  <Rbt.Parameter_File>
/export/apps/rDock/src/rDock_2013.1_src/data/scripts/dock_solv.prm

>  <Rbt.Receptor>
prm/blind_docking_40.prm

>  <SCORE>
-15.6039

>  <SCORE.INTER>
-9.64079

>  <SCORE.INTER.CONST>
1

>  <SCORE.INTER.POLAR>
0

>  <SCORE.INTER.ROT>
4

>  <SCORE.INTER.SOLV>
12.1578

>  <SCORE.INTER.VDW>
-16.7465

>  <SCORE.INTER.norm>
-0.419165

>  <SCORE.INTRA>
-5.96311

>  <SCORE.INTRA.DIHEDRAL>
-7.30148

>  <SCORE.INTRA.DIHEDRAL.0>
8.62657

>  <SCORE.INTRA.POLAR>
0

>  <SCORE.INTRA.POLAR.0>
0

>  <SCORE.INTRA.REPUL>
0

>  <SCORE.INTRA.REPUL.0>
0

>  <SCORE.INTRA.SOLV>
-0.70376

>  <SCORE.INTRA.SOLV.lig_0>
-66.3641

>  <SCORE.INTRA.VDW>
-1.96049

>  <SCORE.INTRA.VDW.0>
0.452231

>  <SCORE.INTRA.norm>
-0.259265

>  <SCORE.RESTR>
0

>  <SCORE.RESTR.CAVITY>
0

>  <SCORE.RESTR.norm>
0

>  <SCORE.SYSTEM>
0

>  <SCORE.SYSTEM.CONST>
0

>  <SCORE.SYSTEM.DIHEDRAL>
0

>  <SCORE.SYSTEM.SOLV>
0

>  <SCORE.SYSTEM.norm>
0

>  <SCORE.heavy>
23

>  <SCORE.norm>
-0.67843

>  <RMSD>
20.339

$$$$
ligand
 OpenBabel02271912143D
libRbt.so/2013.1/901 2013/11/27
 23 25  0  0  0  0  0  0  0  0999 V2000
    2.2592    5.3776   27.8139 P   0  0  1  0  0  0  0  0  0  0  0  0
    3.4963    3.1866   28.5380 C   0  0  0  0  0  0  0  0  0  0  0  0
    2.2594    3.8569   28.3388 O   0  0  0  0  0  0  0  0  0  0  0  0
    3.1912    1.8704   29.2169 C   0  0  1  0  0  0  0  0  0  0  0  0
    2.4192    2.0450   30.4045 O   0  0  0  0  0  0  0  0  0  0  0  0
    2.3932    0.9929   28.2674 C   0  0  1  0  0  0  0  0  0  0  0  0
    2.9824   -0.3190   28.2682 O   0  0  0  0  0  0  0  0  0  0  0  0
    0.9749    0.9858   28.8238 C   0  0  0  0  0  0  0  0  0  0  0  0
    1.1407    1.4082   30.2811 C   0  0  2  0  0  0  0  0  0  0  0  0
    0.1808    5.6882   32.9815 N   0  0  0  0  0  0  0  0  0  0  0  0
    1.3197    4.9780   32.9344 C   0  0  2  0  0  0  0  0  0  0  0  0
    2.3692    5.4178   33.6670 N   0  0  0  0  0  0  0  0  0  0  0  0
    1.4167    3.8632   32.1705 N   0  0  0  0  0  0  0  0  0  0  0  0
    0.3540    3.4564   31.4459 C   0  0  2  0  0  0  0  0  0  0  0  0
   -0.8225    4.1730   31.4849 C   0  0  1  0  0  0  0  0  0  0  0  0
   -0.8940    5.3110   32.2656 C   0  0  0  0  0  0  0  0  0  0  0  0
   -1.9499    5.9786   32.3096 O   0  0  0  0  0  0  0  0  0  0  0  0
   -1.7155    3.5545   30.6872 N   0  0  0  0  0  0  0  0  0  0  0  0
   -1.1033    2.4804   30.1584 C   0  0  0  0  0  0  0  0  0  0  0  0
    0.1456    2.4262   30.6338 N   0  0  1  0  0  0  0  0  0  0  0  0
    0.8740    5.6621   27.2861 O   0  0  0  0  0  0  0  0  0  0  0  0
    2.6394    6.1842   29.0342 O   0  5  0  0  0  0  0  0  0  0  0  0
    3.3172    5.3583   26.7439 O   0  0  0  0  0  0  0  0  0  0  0  0
  1  3  1  1  0  0  0
  1 21  1  0  0  0  0
  1 22  1  0  0  0  0
  1 23  2  0  0  0  0
  2  3  1  0  0  0  0
  4  2  1  6  0  0  0
  4  5  1  0  0  0  0
  4  6  1  0  0  0  0
  6  7  1  1  0  0  0
  6  8  1  0  0  0  0
  8  9  1  0  0  0  0
  9  5  1  6  0  0  0
  9 20  1  0  0  0  0
 10 11  1  0  0  0  0
 10 16  1  0  0  0  0
 11 12  1  6  0  0  0
 11 13  1  0  0  0  0
 14 13  1  1  0  0  0
 14 15  1  0  0  0  0
 14 20  1  0  0  0  0
 15 16  1  6  0  0  0
 15 18  1  0  0  0  0
 16 17  2  0  0  0  0
 18 19  1  0  0  0  0
 20 19  1  6  0  0  0
M  CHG  1  22  -1
M  END
>  <CHROM.1>
162.25326906,-53.66485471,171.84889207,-27.22182232,1.29557280,3.76106405
29.95870217,-0.36847232,0.97819946,-0.05660831

>  <Name>
ligand

>  <RI>
0

>  <Rbt.Current_Directory>
/home/itssahil/PROJECTS/Mol_Feturizer/Test_systems_manuscript/rnas/3slm

>  <Rbt.Executable>
rbdock ($Id: //depot/dev/client3/rdock/2013.1/src/exe/rbdock.cxx#4 $)

>  <Rbt.Library>
libRbt.so (2013.1, Build901 2013/11/27)

>  <Rbt.Parameter_File>
/export/apps/rDock/src/rDock_2013.1_src/data/scripts/dock_solv.prm

>  <Rbt.Receptor>
prm/blind_docking_80.prm

>  <SCORE>
-18.7126

>  <SCORE.INTER>
-13.8821

>  <SCORE.INTER.CONST>
1

>  <SCORE.INTER.POLAR>
0

>  <SCORE.INTER.ROT>
4

>  <SCORE.INTER.SOLV>
10.5648

>  <SCORE.INTER.VDW>
-19.043

>  <SCORE.INTER.norm>
-0.60357

>  <SCORE.INTRA>
-4.8388

>  <SCORE.INTRA.DIHEDRAL>
-6.44371

>  <SCORE.INTRA.DIHEDRAL.0>
8.62657

>  <SCORE.INTRA.POLAR>
0

>  <SCORE.INTRA.POLAR.0>
0

>  <SCORE.INTRA.REPUL>
0

>  <SCORE.INTRA.REPUL.0>
0

>  <SCORE.INTRA.SOLV>
0.300298

>  <SCORE.INTRA.SOLV.lig_0>
-66.3641

>  <SCORE.INTRA.VDW>
-1.7671

>  <SCORE.INTRA.VDW.0>
0.452231

>  <SCORE.INTRA.norm>
-0.210383

>  <SCORE.RESTR>
0.00827085

>  <SCORE.RESTR.CAVITY>
0.00827085

>  <SCORE.RESTR.norm>
0.000359602

>  <SCORE.SYSTEM>
0

>  <SCORE.SYSTEM.CONST>
0

>  <SCORE.SYSTEM.DIHEDRAL>
0

>  <SCORE.SYSTEM.SOLV>
0

>  <SCORE.SYSTEM.norm>
0

>  <SCORE.heavy>
23

>  <SCORE.norm>
-0.813593

>  <RMSD>
20.389

$$$$
ligand
 OpenBabel02271912143D
libRbt.so/2013.1/901 2013/11/27
 23 25  0  0  0  0  0  0  0  0999 V2000
    2.5413    4.4887   27.5240 P   0  0  1  0  0  0  0  0  0  0  0  0
    0.8901    5.0607   29.4738 C   0  0  0  0  0  0  0  0  0  0  0  0
    1.6501    4.0697   28.7963 O   0  0  0  0  0  0  0  0  0  0  0  0
   -0.0359    4.3429   30.4297 C   0  0  1  0  0  0  0  0  0  0  0  0
    0.6613    3.4083   31.2527 O   0  0  0  0  0  0  0  0  0  0  0  0
   -0.6991    5.3618   31.3410 C   0  0  1  0  0  0  0  0  0  0  0  0
   -2.1080    5.0766   31.3809 O   0  0  0  0  0  0  0  0  0  0  0  0
   -0.0367    5.1756   32.7004 C   0  0  0  0  0  0  0  0  0  0  0  0
    0.5679    3.7757   32.6353 C   0  0  2  0  0  0  0  0  0  0  0  0
    3.7176    2.3941   36.4697 N   0  0  0  0  0  0  0  0  0  0  0  0
    2.3922    2.1980   36.3766 C   0  0  2  0  0  0  0  0  0  0  0  0
    1.7764    1.5515   37.3937 N   0  0  0  0  0  0  0  0  0  0  0  0
    1.6971    2.6251   35.2949 N   0  0  0  0  0  0  0  0  0  0  0  0
    2.3429    3.2593   34.2947 C   0  0  2  0  0  0  0  0  0  0  0  0
    3.7023    3.4702   34.3758 C   0  0  1  0  0  0  0  0  0  0  0  0
    4.3904    3.0181   35.4858 C   0  0  0  0  0  0  0  0  0  0  0  0
    5.6247    3.1937   35.5757 O   0  0  0  0  0  0  0  0  0  0  0  0
    4.0913    4.1237   33.2632 N   0  0  0  0  0  0  0  0  0  0  0  0
    2.9968    4.3080   32.5040 C   0  0  0  0  0  0  0  0  0  0  0  0
    1.9433    3.7896   33.1443 N   0  0  1  0  0  0  0  0  0  0  0  0
    1.5851    4.9140   26.4364 O   0  0  0  0  0  0  0  0  0  0  0  0
    3.4240    5.5982   28.0472 O   0  5  0  0  0  0  0  0  0  0  0  0
    3.2839    3.2187   27.2077 O   0  0  0  0  0  0  0  0  0  0  0  0
  1  3  1  1  0  0  0
  1 21  1  0  0  0  0
  1 22  1  0  0  0  0
  1 23  2  0  0  0  0
  2  3  1  0  0  0  0
  4  2  1  6  0  0  0
  4  5  1  0  0  0  0
  4  6  1  0  0  0  0
  6  7  1  1  0  0  0
  6  8  1  0  0  0  0
  8  9  1  0  0  0  0
  9  5  1  6  0  0  0
  9 20  1  0  0  0  0
 10 11  1  0  0  0  0
 10 16  1  0  0  0  0
 11 12  1  6  0  0  0
 11 13  1  0  0  0  0
 14 13  1  1  0  0  0
 14 15  1  0  0  0  0
 14 20  1  0  0  0  0
 15 16  1  6  0  0  0
 15 18  1  0  0  0  0
 16 17  2  0  0  0  0
 18 19  1  0  0  0  0
 20 19  1  6  0  0  0
M  CHG  1  22  -1
M  END
>  <CHROM.1>
-66.23771298,51.11896596,169.11623836,-134.93141327,2.02768703,3.90351991
31.83763088,-1.73809970,-0.17472925,1.77965425

>  <Name>
ligand

>  <RI>
0

>  <Rbt.Current_Directory>
/home/itssahil/PROJECTS/Mol_Feturizer/Test_systems_manuscript/rnas/3slm

>  <Rbt.Executable>
rbdock ($Id: //depot/dev/client3/rdock/2013.1/src/exe/rbdock.cxx#4 $)

>  <Rbt.Library>
libRbt.so (2013.1, Build901 2013/11/27)

>  <Rbt.Parameter_File>
/export/apps/rDock/src/rDock_2013.1_src/data/scripts/dock_solv.prm

>  <Rbt.Receptor>
prm/blind_docking_80.prm

>  <SCORE>
-16.4804

>  <SCORE.INTER>
-10.951

>  <SCORE.INTER.CONST>
1

>  <SCORE.INTER.POLAR>
0

>  <SCORE.INTER.ROT>
4

>  <SCORE.INTER.SOLV>
11.4399

>  <SCORE.INTER.VDW>
-17.3806

>  <SCORE.INTER.norm>
-0.476129

>  <SCORE.INTRA>
-5.52941

>  <SCORE.INTRA.DIHEDRAL>
-6.48123

>  <SCORE.INTRA.DIHEDRAL.0>
8.62657

>  <SCORE.INTRA.POLAR>
0

>  <SCORE.INTRA.POLAR.0>
0

>  <SCORE.INTRA.REPUL>
0

>  <SCORE.INTRA.REPUL.0>
0

>  <SCORE.INTRA.SOLV>
-0.654533

>  <SCORE.INTRA.SOLV.lig_0>
-66.3641

>  <SCORE.INTRA.VDW>
-1.96153

>  <SCORE.INTRA.VDW.0>
0.452231

>  <SCORE.INTRA.norm>
-0.240409

>  <SCORE.RESTR>
0

>  <SCORE.RESTR.CAVITY>
0

>  <SCORE.RESTR.norm>
0

>  <SCORE.SYSTEM>
0

>  <SCORE.SYSTEM.CONST>
0

>  <SCORE.SYSTEM.DIHEDRAL>
0

>  <SCORE.SYSTEM.SOLV>
0

>  <SCORE.SYSTEM.norm>
0

>  <SCORE.heavy>
23

>  <SCORE.norm>
-0.716539

>  <RMSD>
20.405

$$$$
ligand
 OpenBabel02271912143D
libRbt.so/2013.1/901 2013/11/27
 23 25  0  0  0  0  0  0  0  0999 V2000
   -0.6194    7.2590   34.8657 P   0  0  1  0  0  0  0  0  0  0  0  0
    1.7671    6.7502   35.8151 C   0  0  0  0  0  0  0  0  0  0  0  0
    0.8954    6.7450   34.6931 O   0  0  0  0  0  0  0  0  0  0  0  0
    1.3686    5.5910   36.7005 C   0  0  1  0  0  0  0  0  0  0  0  0
    1.7900    4.3369   36.1653 O   0  0  0  0  0  0  0  0  0  0  0  0
    2.0193    5.7580   38.0634 C   0  0  1  0  0  0  0  0  0  0  0  0
    1.0154    5.5361   39.0689 O   0  0  0  0  0  0  0  0  0  0  0  0
    3.1230    4.7090   38.1124 C   0  0  0  0  0  0  0  0  0  0  0  0
    2.7272    3.6965   37.0410 C   0  0  2  0  0  0  0  0  0  0  0  0
    4.5296    3.1122   32.2512 N   0  0  0  0  0  0  0  0  0  0  0  0
    3.2866    3.4496   32.6318 C   0  0  2  0  0  0  0  0  0  0  0  0
    2.3706    3.6821   31.6630 N   0  0  0  0  0  0  0  0  0  0  0  0
    2.9639    3.5628   33.9428 N   0  0  0  0  0  0  0  0  0  0  0  0
    3.9029    3.3318   34.8834 C   0  0  2  0  0  0  0  0  0  0  0  0
    5.1825    2.9827   34.5094 C   0  0  1  0  0  0  0  0  0  0  0  0
    5.4890    2.8815   33.1657 C   0  0  0  0  0  0  0  0  0  0  0  0
    6.6454    2.5724   32.8056 O   0  0  0  0  0  0  0  0  0  0  0  0
    5.9111    2.8032   35.6288 N   0  0  0  0  0  0  0  0  0  0  0  0
    5.1020    3.0432   36.6758 C   0  0  0  0  0  0  0  0  0  0  0  0
    3.8864    3.3518   36.2113 N   0  0  1  0  0  0  0  0  0  0  0  0
   -0.5516    8.6272   35.4992 O   0  0  0  0  0  0  0  0  0  0  0  0
   -1.1695    7.2501   33.4580 O   0  5  0  0  0  0  0  0  0  0  0  0
   -1.2239    6.2118   35.7614 O   0  0  0  0  0  0  0  0  0  0  0  0
  1  3  1  6  0  0  0
  1 21  1  0  0  0  0
  1 22  1  0  0  0  0
  1 23  2  0  0  0  0
  2  3  1  0  0  0  0
  4  2  1  6  0  0  0
  4  5  1  0  0  0  0
  4  6  1  0  0  0  0
  6  7  1  1  0  0  0
  6  8  1  0  0  0  0
  8  9  1  0  0  0  0
  9  5  1  6  0  0  0
  9 20  1  0  0  0  0
 10 11  1  0  0  0  0
 10 16  1  0  0  0  0
 11 12  1  6  0  0  0
 11 13  1  0  0  0  0
 14 13  1  1  0  0  0
 14 15  1  0  0  0  0
 14 20  1  0  0  0  0
 15 16  1  6  0  0  0
 15 18  1  0  0  0  0
 16 17  2  0  0  0  0
 18 19  1  0  0  0  0
 20 19  1  6  0  0  0
M  CHG  1  22  -1
M  END
>  <CHROM.1>
52.57311981,74.90566948,75.18525802,-15.34183672,2.34775918,4.88469090,35.19645055
2.88058608,-0.64636948,1.52689387

>  <Name>
ligand

>  <RI>
0

>  <Rbt.Current_Directory>
/home/itssahil/PROJECTS/Mol_Feturizer/Test_systems_manuscript/rnas/3slm

>  <Rbt.Executable>
rbdock ($Id: //depot/dev/client3/rdock/2013.1/src/exe/rbdock.cxx#4 $)

>  <Rbt.Library>
libRbt.so (2013.1, Build901 2013/11/27)

>  <Rbt.Parameter_File>
/export/apps/rDock/src/rDock_2013.1_src/data/scripts/dock_solv.prm

>  <Rbt.Receptor>
prm/blind_docking_40.prm

>  <SCORE>
-16.289

>  <SCORE.INTER>
-12.9805

>  <SCORE.INTER.CONST>
1

>  <SCORE.INTER.POLAR>
0

>  <SCORE.INTER.ROT>
4

>  <SCORE.INTER.SOLV>
10.0141

>  <SCORE.INTER.VDW>
-18.2584

>  <SCORE.INTER.norm>
-0.56437

>  <SCORE.INTRA>
-3.30954

>  <SCORE.INTRA.DIHEDRAL>
-5.45816

>  <SCORE.INTRA.DIHEDRAL.0>
8.62657

>  <SCORE.INTRA.POLAR>
0

>  <SCORE.INTRA.POLAR.0>
0

>  <SCORE.INTRA.REPUL>
0

>  <SCORE.INTRA.REPUL.0>
0

>  <SCORE.INTRA.SOLV>
1.6588

>  <SCORE.INTRA.SOLV.lig_0>
-66.3641

>  <SCORE.INTRA.VDW>
-1.40986

>  <SCORE.INTRA.VDW.0>
0.452231

>  <SCORE.INTRA.norm>
-0.143893

>  <SCORE.RESTR>
0.00102561

>  <SCORE.RESTR.CAVITY>
0.00102561

>  <SCORE.RESTR.norm>
4.45919e-05

>  <SCORE.SYSTEM>
0

>  <SCORE.SYSTEM.CONST>
0

>  <SCORE.SYSTEM.DIHEDRAL>
0

>  <SCORE.SYSTEM.SOLV>
0

>  <SCORE.SYSTEM.norm>
0

>  <SCORE.heavy>
23

>  <SCORE.norm>
-0.708219

>  <RMSD>
20.493

$$$$
ligand
 OpenBabel02271912143D
libRbt.so/2013.1/901 2013/11/27
 23 25  0  0  0  0  0  0  0  0999 V2000
    2.3043    4.6352   27.5626 P   0  0  1  0  0  0  0  0  0  0  0  0
    0.8718    5.2543   29.6650 C   0  0  0  0  0  0  0  0  0  0  0  0
    1.4885    4.2353   28.8903 O   0  0  0  0  0  0  0  0  0  0  0  0
   -0.0660    4.5755   30.6377 C   0  0  1  0  0  0  0  0  0  0  0  0
    0.6049    3.6073   31.4436 O   0  0  0  0  0  0  0  0  0  0  0  0
   -0.6637    5.6200   31.5653 C   0  0  1  0  0  0  0  0  0  0  0  0
   -2.0830    5.3984   31.6333 O   0  0  0  0  0  0  0  0  0  0  0  0
    0.0171    5.3990   32.9102 C   0  0  0  0  0  0  0  0  0  0  0  0
    0.5564    3.9734   32.8288 C   0  0  2  0  0  0  0  0  0  0  0  0
    3.7331    2.3409   36.5404 N   0  0  0  0  0  0  0  0  0  0  0  0
    2.4005    2.1908   36.4671 C   0  0  2  0  0  0  0  0  0  0  0  0
    1.7837    1.5243   37.4706 N   0  0  0  0  0  0  0  0  0  0  0  0
    1.6988    2.6825   35.4175 N   0  0  0  0  0  0  0  0  0  0  0  0
    2.3454    3.3352   34.4298 C   0  0  2  0  0  0  0  0  0  0  0  0
    3.7123    3.4994   34.4911 C   0  0  1  0  0  0  0  0  0  0  0  0
    4.4066    2.9819   35.5680 C   0  0  0  0  0  0  0  0  0  0  0  0
    5.6475    3.1144   35.6392 O   0  0  0  0  0  0  0  0  0  0  0  0
    4.1008    4.1840   33.3971 N   0  0  0  0  0  0  0  0  0  0  0  0
    2.9984    4.4330   32.6684 C   0  0  0  0  0  0  0  0  0  0  0  0
    1.9411    3.9233   33.3096 N   0  0  1  0  0  0  0  0  0  0  0  0
    1.3176    5.2695   26.6128 O   0  0  0  0  0  0  0  0  0  0  0  0
    3.3785    5.5728   28.0638 O   0  5  0  0  0  0  0  0  0  0  0  0
    2.8296    3.3084   27.0850 O   0  0  0  0  0  0  0  0  0  0  0  0
  1  3  1  1  0  0  0
  1 21  1  0  0  0  0
  1 22  1  0  0  0  0
  1 23  2  0  0  0  0
  2  3  1  0  0  0  0
  4  2  1  6  0  0  0
  4  5  1  0  0  0  0
  4  6  1  0  0  0  0
  6  7  1  1  0  0  0
  6  8  1  0  0  0  0
  8  9  1  0  0  0  0
  9  5  1  6  0  0  0
  9 20  1  0  0  0  0
 10 11  1  0  0  0  0
 10 16  1  0  0  0  0
 11 12  1  6  0  0  0
 11 13  1  0  0  0  0
 14 13  1  1  0  0  0
 14 15  1  0  0  0  0
 14 20  1  0  0  0  0
 15 16  1  6  0  0  0
 15 18  1  0  0  0  0
 16 17  2  0  0  0  0
 18 19  1  0  0  0  0
 20 19  1  6  0  0  0
M  CHG  1  22  -1
M  END
>  <CHROM.1>
-62.40084761,55.98361345,167.17664435,-132.72463315,1.96589807,4.02235006
31.95738197,-1.76392596,-0.22793323,1.78457329

>  <Name>
ligand

>  <RI>
0

>  <Rbt.Current_Directory>
/home/itssahil/PROJECTS/Mol_Feturizer/Test_systems_manuscript/rnas/3slm

>  <Rbt.Executable>
rbdock ($Id: //depot/dev/client3/rdock/2013.1/src/exe/rbdock.cxx#4 $)

>  <Rbt.Library>
libRbt.so (2013.1, Build901 2013/11/27)

>  <Rbt.Parameter_File>
/export/apps/rDock/src/rDock_2013.1_src/data/scripts/dock_solv.prm

>  <Rbt.Receptor>
prm/blind_docking_80.prm

>  <SCORE>
-16.5842

>  <SCORE.INTER>
-10.9642

>  <SCORE.INTER.CONST>
1

>  <SCORE.INTER.POLAR>
0

>  <SCORE.INTER.ROT>
4

>  <SCORE.INTER.SOLV>
11.694

>  <SCORE.INTER.VDW>
-17.4741

>  <SCORE.INTER.norm>
-0.476706

>  <SCORE.INTRA>
-5.62

>  <SCORE.INTRA.DIHEDRAL>
-6.54218

>  <SCORE.INTRA.DIHEDRAL.0>
8.62657

>  <SCORE.INTRA.POLAR>
0

>  <SCORE.INTRA.POLAR.0>
0

>  <SCORE.INTRA.REPUL>
0

>  <SCORE.INTRA.REPUL.0>
0

>  <SCORE.INTRA.SOLV>
-0.71159

>  <SCORE.INTRA.SOLV.lig_0>
-66.3641

>  <SCORE.INTRA.VDW>
-1.99312

>  <SCORE.INTRA.VDW.0>
0.452231

>  <SCORE.INTRA.norm>
-0.244348

>  <SCORE.RESTR>
0

>  <SCORE.RESTR.CAVITY>
0

>  <SCORE.RESTR.norm>
0

>  <SCORE.SYSTEM>
0

>  <SCORE.SYSTEM.CONST>
0

>  <SCORE.SYSTEM.DIHEDRAL>
0

>  <SCORE.SYSTEM.SOLV>
0

>  <SCORE.SYSTEM.norm>
0

>  <SCORE.heavy>
23

>  <SCORE.norm>
-0.721054

>  <RMSD>
20.499

$$$$
ligand
 OpenBabel02271912143D
libRbt.so/2013.1/901 2013/11/27
 23 25  0  0  0  0  0  0  0  0999 V2000
   -0.4159    4.2869   30.2100 P   0  0  1  0  0  0  0  0  0  0  0  0
    0.7944    3.8045   32.4811 C   0  0  0  0  0  0  0  0  0  0  0  0
    0.0364    3.2946   31.3929 O   0  0  0  0  0  0  0  0  0  0  0  0
    2.1954    4.0609   31.9734 C   0  0  1  0  0  0  0  0  0  0  0  0
    2.9979    4.7455   32.9348 O   0  0  0  0  0  0  0  0  0  0  0  0
    2.8661    2.7322   31.6683 C   0  0  1  0  0  0  0  0  0  0  0  0
    3.4835    2.8294   30.3732 O   0  0  0  0  0  0  0  0  0  0  0  0
    3.8898    2.5349   32.7792 C   0  0  0  0  0  0  0  0  0  0  0  0
    4.1099    3.9370   33.3409 C   0  0  2  0  0  0  0  0  0  0  0  0
    1.7669    5.6578   37.5931 N   0  0  0  0  0  0  0  0  0  0  0  0
    1.4864    5.9591   36.3147 C   0  0  2  0  0  0  0  0  0  0  0  0
    0.4607    6.8093   36.0765 N   0  0  0  0  0  0  0  0  0  0  0  0
    2.2013    5.4211   35.2972 N   0  0  0  0  0  0  0  0  0  0  0  0
    3.2125    4.5707   35.5689 C   0  0  2  0  0  0  0  0  0  0  0  0
    3.5144    4.2530   36.8754 C   0  0  1  0  0  0  0  0  0  0  0  0
    2.7655    4.8085   37.8954 C   0  0  0  0  0  0  0  0  0  0  0  0
    3.0190    4.5280   39.0869 O   0  0  0  0  0  0  0  0  0  0  0  0
    4.5583    3.4006   36.8681 N   0  0  0  0  0  0  0  0  0  0  0  0
    4.8926    3.1882   35.5830 C   0  0  0  0  0  0  0  0  0  0  0  0
    4.0772    3.9104   34.8069 N   0  0  1  0  0  0  0  0  0  0  0  0
   -1.4839    3.5719   29.4186 O   0  0  0  0  0  0  0  0  0  0  0  0
   -0.8988    5.5218   30.9353 O   0  5  0  0  0  0  0  0  0  0  0  0
    0.8628    4.4927   29.4438 O   0  0  0  0  0  0  0  0  0  0  0  0
  1  3  1  1  0  0  0
  1 21  1  0  0  0  0
  1 22  1  0  0  0  0
  1 23  2  0  0  0  0
  2  3  1  0  0  0  0
  4  2  1  1  0  0  0
  4  5  1  0  0  0  0
  4  6  1  0  0  0  0
  6  7  1  6  0  0  0
  6  8  1  0  0  0  0
  8  9  1  0  0  0  0
  9  5  1  6  0  0  0
  9 20  1  0  0  0  0
 10 11  1  0  0  0  0
 10 16  1  0  0  0  0
 11 12  1  6  0  0  0
 11 13  1  0  0  0  0
 14 13  1  1  0  0  0
 14 15  1  0  0  0  0
 14 20  1  0  0  0  0
 15 16  1  6  0  0  0
 15 18  1  0  0  0  0
 16 17  2  0  0  0  0
 18 19  1  0  0  0  0
 20 19  1  6  0  0  0
M  CHG  1  22  -1
M  END
>  <CHROM.1>
-165.26893265,172.03897386,-73.39886806,-2.93705203,1.98169652,4.26754845
33.54221173,2.02976224,0.46903673,-1.88663748

>  <Name>
ligand

>  <RI>
0

>  <Rbt.Current_Directory>
/home/itssahil/PROJECTS/Mol_Feturizer/Test_systems_manuscript/rnas/3slm

>  <Rbt.Executable>
rbdock ($Id: //depot/dev/client3/rdock/2013.1/src/exe/rbdock.cxx#4 $)

>  <Rbt.Library>
libRbt.so (2013.1, Build901 2013/11/27)

>  <Rbt.Parameter_File>
/export/apps/rDock/src/rDock_2013.1_src/data/scripts/dock_solv.prm

>  <Rbt.Receptor>
prm/blind_docking_40.prm

>  <SCORE>
-14.5497

>  <SCORE.INTER>
-11.7509

>  <SCORE.INTER.CONST>
1

>  <SCORE.INTER.POLAR>
0

>  <SCORE.INTER.ROT>
4

>  <SCORE.INTER.SOLV>
9.70032

>  <SCORE.INTER.VDW>
-17.334

>  <SCORE.INTER.norm>
-0.510909

>  <SCORE.INTRA>
-2.80279

>  <SCORE.INTRA.DIHEDRAL>
-5.97567

>  <SCORE.INTRA.DIHEDRAL.0>
8.62657

>  <SCORE.INTRA.POLAR>
0

>  <SCORE.INTRA.POLAR.0>
0

>  <SCORE.INTRA.REPUL>
0

>  <SCORE.INTRA.REPUL.0>
0

>  <SCORE.INTRA.SOLV>
3.21346

>  <SCORE.INTRA.SOLV.lig_0>
-66.3641

>  <SCORE.INTRA.VDW>
-1.42168

>  <SCORE.INTRA.VDW.0>
0.452231

>  <SCORE.INTRA.norm>
-0.12186

>  <SCORE.RESTR>
0.0039608

>  <SCORE.RESTR.CAVITY>
0.0039608

>  <SCORE.RESTR.norm>
0.000172209

>  <SCORE.SYSTEM>
0

>  <SCORE.SYSTEM.CONST>
0

>  <SCORE.SYSTEM.DIHEDRAL>
0

>  <SCORE.SYSTEM.SOLV>
0

>  <SCORE.SYSTEM.norm>
0

>  <SCORE.heavy>
23

>  <SCORE.norm>
-0.632597

>  <RMSD>
20.701

$$$$
ligand
 OpenBabel02271912143D
libRbt.so/2013.1/901 2013/11/27
 23 25  0  0  0  0  0  0  0  0999 V2000
   -0.7946    8.0083   35.5624 P   0  0  1  0  0  0  0  0  0  0  0  0
    1.5390    6.8219   35.6035 C   0  0  0  0  0  0  0  0  0  0  0  0
    0.7840    7.9951   35.8722 O   0  0  0  0  0  0  0  0  0  0  0  0
    1.1674    5.7971   36.6515 C   0  0  1  0  0  0  0  0  0  0  0  0
    1.6175    4.4877   36.3055 O   0  0  0  0  0  0  0  0  0  0  0  0
    1.8141    6.1780   37.9726 C   0  0  1  0  0  0  0  0  0  0  0  0
    0.8157    6.0840   39.0033 O   0  0  0  0  0  0  0  0  0  0  0  0
    2.9417    5.1730   38.1719 C   0  0  0  0  0  0  0  0  0  0  0  0
    2.5691    4.0049   37.2628 C   0  0  2  0  0  0  0  0  0  0  0  0
    4.6121    3.4355   32.5687 N   0  0  0  0  0  0  0  0  0  0  0  0
    3.3915    3.8949   32.8894 C   0  0  2  0  0  0  0  0  0  0  0  0
    2.5738    4.2737   31.8797 N   0  0  0  0  0  0  0  0  0  0  0  0
    2.9963    3.9849   34.1822 N   0  0  0  0  0  0  0  0  0  0  0  0
    3.8389    3.6062   35.1653 C   0  0  2  0  0  0  0  0  0  0  0  0
    5.0941    3.1307   34.8529 C   0  0  1  0  0  0  0  0  0  0  0  0
    5.4767    3.0559   33.5271 C   0  0  0  0  0  0  0  0  0  0  0  0
    6.6132    2.6336   33.2230 O   0  0  0  0  0  0  0  0  0  0  0  0
    5.7218    2.8191   36.0040 N   0  0  0  0  0  0  0  0  0  0  0  0
    4.8760    3.1022   37.0104 C   0  0  0  0  0  0  0  0  0  0  0  0
    3.7359    3.5681   36.4890 N   0  0  1  0  0  0  0  0  0  0  0  0
   -0.9559    7.7614   34.0821 O   0  0  0  0  0  0  0  0  0  0  0  0
   -1.3475    6.9104   36.4417 O   0  5  0  0  0  0  0  0  0  0  0  0
   -1.2037    9.3924   35.9883 O   0  0  0  0  0  0  0  0  0  0  0  0
  1  3  1  1  0  0  0
  1 21  1  0  0  0  0
  1 22  1  0  0  0  0
  1 23  2  0  0  0  0
  2  3  1  0  0  0  0
  4  2  1  6  0  0  0
  4  5  1  0  0  0  0
  4  6  1  0  0  0  0
  6  7  1  1  0  0  0
  6  8  1  0  0  0  0
  8  9  1  0  0  0  0
  9  5  1  6  0  0  0
  9 20  1  0  0  0  0
 10 11  1  0  0  0  0
 10 16  1  0  0  0  0
 11 12  1  1  0  0  0
 11 13  1  0  0  0  0
 14 13  1  6  0  0  0
 14 15  1  0  0  0  0
 14 20  1  0  0  0  0
 15 16  1  1  0  0  0
 15 18  1  0  0  0  0
 16 17  2  0  0  0  0
 18 19  1  0  0  0  0
 20 19  1  1  0  0  0
M  CHG  1  22  -1
M  END
>  <CHROM.1>
-60.69633321,166.20773017,-72.59192586,-1.13133010,2.23163615,5.30169393
35.53419666,2.91614190,-0.70814767,1.60370135

>  <Name>
ligand

>  <RI>
0

>  <Rbt.Current_Directory>
/home/itssahil/PROJECTS/Mol_Feturizer/Test_systems_manuscript/rnas/3slm

>  <Rbt.Executable>
rbdock ($Id: //depot/dev/client3/rdock/2013.1/src/exe/rbdock.cxx#4 $)

>  <Rbt.Library>
libRbt.so (2013.1, Build901 2013/11/27)

>  <Rbt.Parameter_File>
/export/apps/rDock/src/rDock_2013.1_src/data/scripts/dock_solv.prm

>  <Rbt.Receptor>
prm/blind_docking_100.prm

>  <SCORE>
-16.1239

>  <SCORE.INTER>
-13.0773

>  <SCORE.INTER.CONST>
1

>  <SCORE.INTER.POLAR>
0

>  <SCORE.INTER.ROT>
4

>  <SCORE.INTER.SOLV>
10.1464

>  <SCORE.INTER.VDW>
-18.367

>  <SCORE.INTER.norm>
-0.56858

>  <SCORE.INTRA>
-3.16828

>  <SCORE.INTRA.DIHEDRAL>
-6.00785

>  <SCORE.INTRA.DIHEDRAL.0>
8.62657

>  <SCORE.INTRA.POLAR>
0

>  <SCORE.INTRA.POLAR.0>
0

>  <SCORE.INTRA.REPUL>
0

>  <SCORE.INTRA.REPUL.0>
0

>  <SCORE.INTRA.SOLV>
2.40495

>  <SCORE.INTRA.SOLV.lig_0>
-66.3641

>  <SCORE.INTRA.VDW>
-1.36683

>  <SCORE.INTRA.VDW.0>
0.452231

>  <SCORE.INTRA.norm>
-0.137752

>  <SCORE.RESTR>
0.121765

>  <SCORE.RESTR.CAVITY>
0.121765

>  <SCORE.RESTR.norm>
0.00529413

>  <SCORE.SYSTEM>
0

>  <SCORE.SYSTEM.CONST>
0

>  <SCORE.SYSTEM.DIHEDRAL>
0

>  <SCORE.SYSTEM.SOLV>
0

>  <SCORE.SYSTEM.norm>
0

>  <SCORE.heavy>
23

>  <SCORE.norm>
-0.701038

>  <RMSD>
20.791

$$$$
ligand
 OpenBabel02271912143D
libRbt.so/2013.1/901 2013/11/27
 23 25  0  0  0  0  0  0  0  0999 V2000
    4.0685    6.4665   27.7080 P   0  0  1  0  0  0  0  0  0  0  0  0
    1.9302    4.9691   27.9092 C   0  0  0  0  0  0  0  0  0  0  0  0
    2.4866    6.2763   27.9304 O   0  0  0  0  0  0  0  0  0  0  0  0
    2.4975    4.2187   29.0931 C   0  0  1  0  0  0  0  0  0  0  0  0
    2.1800    4.8517   30.3322 O   0  0  0  0  0  0  0  0  0  0  0  0
    1.9114    2.8172   29.1223 C   0  0  1  0  0  0  0  0  0  0  0  0
    2.9886    1.8857   29.3230 O   0  0  0  0  0  0  0  0  0  0  0  0
    0.9282    2.8176   30.2862 C   0  0  0  0  0  0  0  0  0  0  0  0
    1.3664    3.9986   31.1481 C   0  0  2  0  0  0  0  0  0  0  0  0
   -0.8507    6.7563   34.8913 N   0  0  0  0  0  0  0  0  0  0  0  0
    0.3184    6.0965   34.9316 C   0  0  2  0  0  0  0  0  0  0  0  0
    1.0342    6.1493   36.0790 N   0  0  0  0  0  0  0  0  0  0  0  0
    0.7701    5.4089   33.8551 N   0  0  0  0  0  0  0  0  0  0  0  0
    0.0357    5.3830   32.7238 C   0  0  2  0  0  0  0  0  0  0  0  0
   -1.1672    6.0532   32.6669 C   0  0  1  0  0  0  0  0  0  0  0  0
   -1.6026    6.7539   33.7756 C   0  0  0  0  0  0  0  0  0  0  0  0
   -2.6875    7.3736   33.7422 O   0  0  0  0  0  0  0  0  0  0  0  0
   -1.6952    5.8613   31.4418 N   0  0  0  0  0  0  0  0  0  0  0  0
   -0.8341    5.0939   30.7506 C   0  0  0  0  0  0  0  0  0  0  0  0
    0.2044    4.8024   31.5412 N   0  0  1  0  0  0  0  0  0  0  0  0
    4.4892    5.4694   26.6558 O   0  0  0  0  0  0  0  0  0  0  0  0
    4.2060    7.9118   27.2879 O   0  5  0  0  0  0  0  0  0  0  0  0
    4.6320    6.1735   29.0722 O   0  0  0  0  0  0  0  0  0  0  0  0
  1  3  1  1  0  0  0
  1 21  1  0  0  0  0
  1 22  1  0  0  0  0
  1 23  2  0  0  0  0
  2  3  1  0  0  0  0
  4  2  1  6  0  0  0
  4  5  1  0  0  0  0
  4  6  1  0  0  0  0
  6  7  1  1  0  0  0
  6  8  1  0  0  0  0
  8  9  1  0  0  0  0
  9  5  1  6  0  0  0
  9 20  1  0  0  0  0
 10 11  1  0  0  0  0
 10 16  1  0  0  0  0
 11 12  1  6  0  0  0
 11 13  1  0  0  0  0
 14 13  1  1  0  0  0
 14 15  1  0  0  0  0
 14 20  1  0  0  0  0
 15 16  1  6  0  0  0
 15 18  1  0  0  0  0
 16 17  2  0  0  0  0
 18 19  1  0  0  0  0
 20 19  1  6  0  0  0
M  CHG  1  22  -1
M  END
>  <CHROM.1>
38.37599216,59.71868530,65.20838702,-101.69491266,1.43297663,5.44142465,30.68404240
-0.25004454,0.91512223,0.20998513

>  <Name>
ligand

>  <RI>
0

>  <Rbt.Current_Directory>
/home/itssahil/PROJECTS/Mol_Feturizer/Test_systems_manuscript/rnas/3slm

>  <Rbt.Executable>
rbdock ($Id: //depot/dev/client3/rdock/2013.1/src/exe/rbdock.cxx#4 $)

>  <Rbt.Library>
libRbt.so (2013.1, Build901 2013/11/27)

>  <Rbt.Parameter_File>
/export/apps/rDock/src/rDock_2013.1_src/data/scripts/dock_solv.prm

>  <Rbt.Receptor>
prm/blind_docking_100.prm

>  <SCORE>
-16.4146

>  <SCORE.INTER>
-12.4627

>  <SCORE.INTER.CONST>
1

>  <SCORE.INTER.POLAR>
0

>  <SCORE.INTER.ROT>
4

>  <SCORE.INTER.SOLV>
8.73885

>  <SCORE.INTER.VDW>
-17.4881

>  <SCORE.INTER.norm>
-0.541859

>  <SCORE.INTRA>
-3.95187

>  <SCORE.INTRA.DIHEDRAL>
-6.67791

>  <SCORE.INTRA.DIHEDRAL.0>
8.62657

>  <SCORE.INTRA.POLAR>
0

>  <SCORE.INTRA.POLAR.0>
0

>  <SCORE.INTRA.REPUL>
0

>  <SCORE.INTRA.REPUL.0>
0

>  <SCORE.INTRA.SOLV>
1.69247

>  <SCORE.INTRA.SOLV.lig_0>
-66.3641

>  <SCORE.INTRA.VDW>
-1.45916

>  <SCORE.INTRA.VDW.0>
0.452231

>  <SCORE.INTRA.norm>
-0.17182

>  <SCORE.RESTR>
0

>  <SCORE.RESTR.CAVITY>
0

>  <SCORE.RESTR.norm>
0

>  <SCORE.SYSTEM>
0

>  <SCORE.SYSTEM.CONST>
0

>  <SCORE.SYSTEM.DIHEDRAL>
0

>  <SCORE.SYSTEM.SOLV>
0

>  <SCORE.SYSTEM.norm>
0

>  <SCORE.heavy>
23

>  <SCORE.norm>
-0.713679

>  <RMSD>
20.856

$$$$
ligand
 OpenBabel02271912143D
libRbt.so/2013.1/901 2013/11/27
 23 25  0  0  0  0  0  0  0  0999 V2000
    2.4097    4.4672   37.0616 P   0  0  1  0  0  0  0  0  0  0  0  0
    2.2211    4.7358   34.4640 C   0  0  0  0  0  0  0  0  0  0  0  0
    3.0136    4.8936   35.6327 O   0  0  0  0  0  0  0  0  0  0  0  0
    1.6891    6.1016   34.0926 C   0  0  1  0  0  0  0  0  0  0  0  0
    1.2292    6.1496   32.7424 O   0  0  0  0  0  0  0  0  0  0  0  0
    0.5164    6.4425   34.9965 C   0  0  1  0  0  0  0  0  0  0  0  0
    0.7033    7.7816   35.4863 O   0  0  0  0  0  0  0  0  0  0  0  0
   -0.7194    6.3212   34.1136 C   0  0  0  0  0  0  0  0  0  0  0  0
   -0.1766    6.4259   32.6909 C   0  0  2  0  0  0  0  0  0  0  0  0
    0.6206    1.9731   30.2273 N   0  0  0  0  0  0  0  0  0  0  0  0
    1.4998    2.6891   30.9471 C   0  0  2  0  0  0  0  0  0  0  0  0
    2.7579    2.2056   31.0699 N   0  0  0  0  0  0  0  0  0  0  0  0
    1.1355    3.8523   31.5386 N   0  0  0  0  0  0  0  0  0  0  0  0
   -0.1290    4.3023   31.4030 C   0  0  2  0  0  0  0  0  0  0  0  0
   -1.0427    3.5804   30.6660 C   0  0  1  0  0  0  0  0  0  0  0  0
   -0.6489    2.3929   30.0789 C   0  0  0  0  0  0  0  0  0  0  0  0
   -1.4642    1.7200   29.4119 O   0  0  0  0  0  0  0  0  0  0  0  0
   -2.2139    4.2470   30.6830 N   0  0  0  0  0  0  0  0  0  0  0  0
   -2.0325    5.3560   31.4215 C   0  0  0  0  0  0  0  0  0  0  0  0
   -0.7634    5.3832   31.8428 N   0  0  1  0  0  0  0  0  0  0  0  0
    1.4553    5.5588   37.4808 O   0  0  0  0  0  0  0  0  0  0  0  0
    1.7524    3.1325   36.7955 O   0  5  0  0  0  0  0  0  0  0  0  0
    3.6378    4.3785   37.9266 O   0  0  0  0  0  0  0  0  0  0  0  0
  1  3  1  6  0  0  0
  1 21  1  0  0  0  0
  1 22  1  0  0  0  0
  1 23  2  0  0  0  0
  2  3  1  0  0  0  0
  4  2  1  1  0  0  0
  4  5  1  0  0  0  0
  4  6  1  0  0  0  0
  6  7  1  6  0  0  0
  6  8  1  0  0  0  0
  8  9  1  0  0  0  0
  9  5  1  1  0  0  0
  9 20  1  0  0  0  0
 10 11  1  0  0  0  0
 10 16  1  0  0  0  0
 11 12  1  1  0  0  0
 11 13  1  0  0  0  0
 14 13  1  6  0  0  0
 14 15  1  0  0  0  0
 14 20  1  0  0  0  0
 15 16  1  1  0  0  0
 15 18  1  0  0  0  0
 16 17  2  0  0  0  0
 18 19  1  0  0  0  0
 20 19  1  1  0  0  0
M  CHG  1  22  -1
M  END
>  <CHROM.1>
-76.97914509,162.19157876,102.43355046,9.40214406,0.82490657,4.54382917,33.49636493
-0.96699480,0.81152435,-2.32572019

>  <Name>
ligand

>  <RI>
0

>  <Rbt.Current_Directory>
/home/itssahil/PROJECTS/Mol_Feturizer/Test_systems_manuscript/rnas/3slm

>  <Rbt.Executable>
rbdock ($Id: //depot/dev/client3/rdock/2013.1/src/exe/rbdock.cxx#4 $)

>  <Rbt.Library>
libRbt.so (2013.1, Build901 2013/11/27)

>  <Rbt.Parameter_File>
/export/apps/rDock/src/rDock_2013.1_src/data/scripts/dock_solv.prm

>  <Rbt.Receptor>
prm/blind_docking_60.prm

>  <SCORE>
-11.6241

>  <SCORE.INTER>
-10.2919

>  <SCORE.INTER.CONST>
1

>  <SCORE.INTER.POLAR>
0

>  <SCORE.INTER.ROT>
4

>  <SCORE.INTER.SOLV>
13.9849

>  <SCORE.INTER.VDW>
-17.7896

>  <SCORE.INTER.norm>
-0.447475

>  <SCORE.INTRA>
-1.33261

>  <SCORE.INTRA.DIHEDRAL>
-0.186949

>  <SCORE.INTRA.DIHEDRAL.0>
8.62657

>  <SCORE.INTRA.POLAR>
0

>  <SCORE.INTRA.POLAR.0>
0

>  <SCORE.INTRA.REPUL>
0

>  <SCORE.INTRA.REPUL.0>
0

>  <SCORE.INTRA.SOLV>
1.49181

>  <SCORE.INTRA.SOLV.lig_0>
-66.3641

>  <SCORE.INTRA.VDW>
-1.98504

>  <SCORE.INTRA.VDW.0>
0.452231

>  <SCORE.INTRA.norm>
-0.0579396

>  <SCORE.RESTR>
0.00042267

>  <SCORE.RESTR.CAVITY>
0.00042267

>  <SCORE.RESTR.norm>
1.83769e-05

>  <SCORE.SYSTEM>
0

>  <SCORE.SYSTEM.CONST>
0

>  <SCORE.SYSTEM.DIHEDRAL>
0

>  <SCORE.SYSTEM.SOLV>
0

>  <SCORE.SYSTEM.norm>
0

>  <SCORE.heavy>
23

>  <SCORE.norm>
-0.505396

>  <RMSD>
21.031

$$$$
ligand
 OpenBabel02271912143D
libRbt.so/2013.1/901 2013/11/27
 23 25  0  0  0  0  0  0  0  0999 V2000
    3.2204    4.4729   27.1255 P   0  0  1  0  0  0  0  0  0  0  0  0
    1.4340    4.1953   29.0194 C   0  0  0  0  0  0  0  0  0  0  0  0
    2.6227    3.7109   28.4102 O   0  0  0  0  0  0  0  0  0  0  0  0
    0.8292    3.0504   29.8003 C   0  0  1  0  0  0  0  0  0  0  0  0
    1.3231    2.9928   31.1381 O   0  0  0  0  0  0  0  0  0  0  0  0
   -0.6776    3.2338   29.8677 C   0  0  1  0  0  0  0  0  0  0  0  0
   -1.2966    1.9800   29.5317 O   0  0  0  0  0  0  0  0  0  0  0  0
   -0.9673    3.6507   31.3041 C   0  0  0  0  0  0  0  0  0  0  0  0
    0.2645    3.1970   32.0829 C   0  0  2  0  0  0  0  0  0  0  0  0
    1.4766    4.4809   36.9218 N   0  0  0  0  0  0  0  0  0  0  0  0
    1.0374    3.2965   36.4656 C   0  0  2  0  0  0  0  0  0  0  0  0
    0.8932    2.2898   37.3585 N   0  0  0  0  0  0  0  0  0  0  0  0
    0.7574    3.1139   35.1526 N   0  0  0  0  0  0  0  0  0  0  0  0
    0.9195    4.1361   34.2874 C   0  0  2  0  0  0  0  0  0  0  0  0
    1.3675    5.3583   34.7399 C   0  0  1  0  0  0  0  0  0  0  0  0
    1.6538    5.5173   36.0824 C   0  0  0  0  0  0  0  0  0  0  0  0
    2.0673    6.6160   36.5118 O   0  0  0  0  0  0  0  0  0  0  0  0
    1.4328    6.1960   33.6862 N   0  0  0  0  0  0  0  0  0  0  0  0
    1.0405    5.5055   32.6010 C   0  0  0  0  0  0  0  0  0  0  0  0
    0.7224    4.2630   32.9800 N   0  0  1  0  0  0  0  0  0  0  0  0
    2.1748    4.3942   26.0398 O   0  0  0  0  0  0  0  0  0  0  0  0
    3.4947    5.8721   27.6269 O   0  5  0  0  0  0  0  0  0  0  0  0
    4.4635    3.6817   26.8204 O   0  0  0  0  0  0  0  0  0  0  0  0
  1  3  1  1  0  0  0
  1 21  1  0  0  0  0
  1 22  1  0  0  0  0
  1 23  2  0  0  0  0
  2  3  1  0  0  0  0
  4  2  1  6  0  0  0
  4  5  1  0  0  0  0
  4  6  1  0  0  0  0
  6  7  1  1  0  0  0
  6  8  1  0  0  0  0
  8  9  1  0  0  0  0
  9  5  1  6  0  0  0
  9 20  1  0  0  0  0
 10 11  1  0  0  0  0
 10 16  1  0  0  0  0
 11 12  1  6  0  0  0
 11 13  1  0  0  0  0
 14 13  1  1  0  0  0
 14 15  1  0  0  0  0
 14 20  1  0  0  0  0
 15 16  1  6  0  0  0
 15 18  1  0  0  0  0
 16 17  2  0  0  0  0
 18 19  1  0  0  0  0
 20 19  1  6  0  0  0
M  CHG  1  22  -1
M  END
>  <CHROM.1>
-61.51560076,89.12486312,158.45098294,-117.81200185,1.45685169,4.14779685
31.56246545,-1.35047952,0.71398832,1.39428389

>  <Name>
ligand

>  <RI>
0

>  <Rbt.Current_Directory>
/home/itssahil/PROJECTS/Mol_Feturizer/Test_systems_manuscript/rnas/3slm

>  <Rbt.Executable>
rbdock ($Id: //depot/dev/client3/rdock/2013.1/src/exe/rbdock.cxx#4 $)

>  <Rbt.Library>
libRbt.so (2013.1, Build901 2013/11/27)

>  <Rbt.Parameter_File>
/export/apps/rDock/src/rDock_2013.1_src/data/scripts/dock_solv.prm

>  <Rbt.Receptor>
prm/blind_docking_100.prm

>  <SCORE>
-11.753

>  <SCORE.INTER>
-8.07605

>  <SCORE.INTER.CONST>
1

>  <SCORE.INTER.POLAR>
0

>  <SCORE.INTER.ROT>
4

>  <SCORE.INTER.SOLV>
10.5303

>  <SCORE.INTER.VDW>
-15.1608

>  <SCORE.INTER.norm>
-0.351132

>  <SCORE.INTRA>
-3.67692

>  <SCORE.INTRA.DIHEDRAL>
-2.84698

>  <SCORE.INTRA.DIHEDRAL.0>
8.62657

>  <SCORE.INTRA.POLAR>
0

>  <SCORE.INTRA.POLAR.0>
0

>  <SCORE.INTRA.REPUL>
0

>  <SCORE.INTRA.REPUL.0>
0

>  <SCORE.INTRA.SOLV>
-0.803769

>  <SCORE.INTRA.SOLV.lig_0>
-66.3641

>  <SCORE.INTRA.VDW>
-1.85155

>  <SCORE.INTRA.VDW.0>
0.452231

>  <SCORE.INTRA.norm>
-0.159866

>  <SCORE.RESTR>
0

>  <SCORE.RESTR.CAVITY>
0

>  <SCORE.RESTR.norm>
0

>  <SCORE.SYSTEM>
0

>  <SCORE.SYSTEM.CONST>
0

>  <SCORE.SYSTEM.DIHEDRAL>
0

>  <SCORE.SYSTEM.SOLV>
0

>  <SCORE.SYSTEM.norm>
0

>  <SCORE.heavy>
23

>  <SCORE.norm>
-0.510999

>  <RMSD>
21.038

$$$$
ligand
 OpenBabel02271912143D
libRbt.so/2013.1/901 2013/11/27
 23 25  0  0  0  0  0  0  0  0999 V2000
   -1.1506    6.5011   34.9846 P   0  0  1  0  0  0  0  0  0  0  0  0
   -0.6684    6.3791   32.4140 C   0  0  0  0  0  0  0  0  0  0  0  0
   -0.5302    5.7724   33.6914 O   0  0  0  0  0  0  0  0  0  0  0  0
    0.0199    5.4804   31.4115 C   0  0  1  0  0  0  0  0  0  0  0  0
    1.3098    5.0652   31.8595 O   0  0  0  0  0  0  0  0  0  0  0  0
   -0.8226    4.2340   31.1985 C   0  0  1  0  0  0  0  0  0  0  0  0
   -0.9340    4.0056   29.7830 O   0  0  0  0  0  0  0  0  0  0  0  0
   -0.0677    3.1140   31.9033 C   0  0  0  0  0  0  0  0  0  0  0  0
    1.3589    3.6423   32.0274 C   0  0  2  0  0  0  0  0  0  0  0  0
    5.5487    3.2591   34.9990 N   0  0  0  0  0  0  0  0  0  0  0  0
    5.4908    3.4776   33.6752 C   0  0  2  0  0  0  0  0  0  0  0  0
    6.6586    3.6309   33.0086 N   0  0  0  0  0  0  0  0  0  0  0  0
    4.3013    3.5517   33.0307 N   0  0  0  0  0  0  0  0  0  0  0  0
    3.1552    3.4023   33.7263 C   0  0  2  0  0  0  0  0  0  0  0  0
    3.1975    3.1755   35.0849 C   0  0  1  0  0  0  0  0  0  0  0  0
    4.4229    3.1120   35.7208 C   0  0  0  0  0  0  0  0  0  0  0  0
    4.4827    2.9136   36.9534 O   0  0  0  0  0  0  0  0  0  0  0  0
    1.9306    3.0567   35.5288 N   0  0  0  0  0  0  0  0  0  0  0  0
    1.1186    3.2138   34.4684 C   0  0  0  0  0  0  0  0  0  0  0  0
    1.8725    3.4118   33.3816 N   0  0  1  0  0  0  0  0  0  0  0  0
   -2.6093    6.7544   34.6910 O   0  0  0  0  0  0  0  0  0  0  0  0
   -0.9017    5.5221   36.1087 O   0  5  0  0  0  0  0  0  0  0  0  0
   -0.3303    7.7589   35.0809 O   0  0  0  0  0  0  0  0  0  0  0  0
  1  3  1  6  0  0  0
  1 21  1  0  0  0  0
  1 22  1  0  0  0  0
  1 23  2  0  0  0  0
  2  3  1  0  0  0  0
  4  2  1  1  0  0  0
  4  5  1  0  0  0  0
  4  6  1  0  0  0  0
  6  7  1  6  0  0  0
  6  8  1  0  0  0  0
  8  9  1  0  0  0  0
  9  5  1  1  0  0  0
  9 20  1  0  0  0  0
 10 11  1  0  0  0  0
 10 16  1  0  0  0  0
 11 12  1  1  0  0  0
 11 13  1  0  0  0  0
 14 13  1  6  0  0  0
 14 15  1  0  0  0  0
 14 20  1  0  0  0  0
 15 16  1  1  0  0  0
 15 18  1  0  0  0  0
 16 17  2  0  0  0  0
 18 19  1  0  0  0  0
 20 19  1  1  0  0  0
M  CHG  1  22  -1
M  END
>  <CHROM.1>
54.43527118,-46.71603393,179.37299762,-83.46095752,1.35925442,4.54679230
33.75628544,3.09026827,0.45840250,-1.82926363

>  <Name>
ligand

>  <RI>
0

>  <Rbt.Current_Directory>
/home/itssahil/PROJECTS/Mol_Feturizer/Test_systems_manuscript/rnas/3slm

>  <Rbt.Executable>
rbdock ($Id: //depot/dev/client3/rdock/2013.1/src/exe/rbdock.cxx#4 $)

>  <Rbt.Library>
libRbt.so (2013.1, Build901 2013/11/27)

>  <Rbt.Parameter_File>
/export/apps/rDock/src/rDock_2013.1_src/data/scripts/dock_solv.prm

>  <Rbt.Receptor>
prm/blind_docking_40.prm

>  <SCORE>
-15.1088

>  <SCORE.INTER>
-9.71959

>  <SCORE.INTER.CONST>
1

>  <SCORE.INTER.POLAR>
0

>  <SCORE.INTER.ROT>
4

>  <SCORE.INTER.SOLV>
15.6955

>  <SCORE.INTER.VDW>
-17.9782

>  <SCORE.INTER.norm>
-0.422591

>  <SCORE.INTRA>
-5.38917

>  <SCORE.INTRA.DIHEDRAL>
-6.82244

>  <SCORE.INTRA.DIHEDRAL.0>
8.62657

>  <SCORE.INTRA.POLAR>
0

>  <SCORE.INTRA.POLAR.0>
0

>  <SCORE.INTRA.REPUL>
0

>  <SCORE.INTRA.REPUL.0>
0

>  <SCORE.INTRA.SOLV>
-0.0754145

>  <SCORE.INTRA.SOLV.lig_0>
-66.3641

>  <SCORE.INTRA.VDW>
-1.94024

>  <SCORE.INTRA.VDW.0>
0.452231

>  <SCORE.INTRA.norm>
-0.234312

>  <SCORE.RESTR>
0

>  <SCORE.RESTR.CAVITY>
0

>  <SCORE.RESTR.norm>
0

>  <SCORE.SYSTEM>
0

>  <SCORE.SYSTEM.CONST>
0

>  <SCORE.SYSTEM.DIHEDRAL>
0

>  <SCORE.SYSTEM.SOLV>
0

>  <SCORE.SYSTEM.norm>
0

>  <SCORE.heavy>
23

>  <SCORE.norm>
-0.656902

>  <RMSD>
21.038

$$$$
ligand
 OpenBabel02271912143D
libRbt.so/2013.1/901 2013/11/27
 23 25  0  0  0  0  0  0  0  0999 V2000
    3.3368    5.1334   35.2696 P   0  0  1  0  0  0  0  0  0  0  0  0
    0.7346    4.8581   35.1788 C   0  0  0  0  0  0  0  0  0  0  0  0
    2.0096    4.3393   34.8265 O   0  0  0  0  0  0  0  0  0  0  0  0
    0.5639    6.1700   34.4465 C   0  0  1  0  0  0  0  0  0  0  0  0
    0.5662    5.9982   33.0297 O   0  0  0  0  0  0  0  0  0  0  0  0
   -0.7666    6.7902   34.8384 C   0  0  1  0  0  0  0  0  0  0  0  0
   -0.5395    8.1750   35.1529 O   0  0  0  0  0  0  0  0  0  0  0  0
   -1.6642    6.6178   33.6195 C   0  0  0  0  0  0  0  0  0  0  0  0
   -0.6915    6.3918   32.4652 C   0  0  2  0  0  0  0  0  0  0  0  0
    0.6163    1.8970   30.3161 N   0  0  0  0  0  0  0  0  0  0  0  0
    1.3839    2.7152   31.0544 C   0  0  2  0  0  0  0  0  0  0  0  0
    2.6621    2.3388   31.2917 N   0  0  0  0  0  0  0  0  0  0  0  0
    0.8909    3.8745   31.5531 N   0  0  0  0  0  0  0  0  0  0  0  0
   -0.3901    4.2164   31.3045 C   0  0  2  0  0  0  0  0  0  0  0  0
   -1.1903    3.3887   30.5469 C   0  0  1  0  0  0  0  0  0  0  0  0
   -0.6666    2.2078   30.0561 C   0  0  0  0  0  0  0  0  0  0  0  0
   -1.3777    1.4402   29.3723 O   0  0  0  0  0  0  0  0  0  0  0  0
   -2.4061    3.9613   30.4448 N   0  0  0  0  0  0  0  0  0  0  0  0
   -2.3632    5.1169   31.1310 C   0  0  0  0  0  0  0  0  0  0  0  0
   -1.1343    5.2649   31.6377 N   0  0  1  0  0  0  0  0  0  0  0  0
    3.0237    5.8217   36.5759 O   0  0  0  0  0  0  0  0  0  0  0  0
    4.3903    4.0544   35.3701 O   0  5  0  0  0  0  0  0  0  0  0  0
    3.5498    6.0864   34.1248 O   0  0  0  0  0  0  0  0  0  0  0  0
  1  3  1  6  0  0  0
  1 21  1  0  0  0  0
  1 22  1  0  0  0  0
  1 23  2  0  0  0  0
  2  3  1  0  0  0  0
  4  2  1  1  0  0  0
  4  5  1  0  0  0  0
  4  6  1  0  0  0  0
  6  7  1  6  0  0  0
  6  8  1  0  0  0  0
  8  9  1  0  0  0  0
  9  5  1  1  0  0  0
  9 20  1  0  0  0  0
 10 11  1  0  0  0  0
 10 16  1  0  0  0  0
 11 12  1  1  0  0  0
 11 13  1  0  0  0  0
 14 13  1  6  0  0  0
 14 15  1  0  0  0  0
 14 20  1  0  0  0  0
 15 16  1  1  0  0  0
 15 18  1  0  0  0  0
 16 17  2  0  0  0  0
 18 19  1  0  0  0  0
 20 19  1  1  0  0  0
M  CHG  1  22  -1
M  END
>  <CHROM.1>
31.36667049,62.84832860,65.23270210,-10.98914524,0.68990512,4.70737079,32.99096099
-0.95252678,0.46642394,-2.36763734

>  <Name>
ligand

>  <RI>
0

>  <Rbt.Current_Directory>
/home/itssahil/PROJECTS/Mol_Feturizer/Test_systems_manuscript/rnas/3slm

>  <Rbt.Executable>
rbdock ($Id: //depot/dev/client3/rdock/2013.1/src/exe/rbdock.cxx#4 $)

>  <Rbt.Library>
libRbt.so (2013.1, Build901 2013/11/27)

>  <Rbt.Parameter_File>
/export/apps/rDock/src/rDock_2013.1_src/data/scripts/dock_solv.prm

>  <Rbt.Receptor>
prm/blind_docking_100.prm

>  <SCORE>
-17.0046

>  <SCORE.INTER>
-13.1411

>  <SCORE.INTER.CONST>
1

>  <SCORE.INTER.POLAR>
0

>  <SCORE.INTER.ROT>
4

>  <SCORE.INTER.SOLV>
15.9427

>  <SCORE.INTER.VDW>
-20.3416

>  <SCORE.INTER.norm>
-0.57135

>  <SCORE.INTRA>
-3.86353

>  <SCORE.INTRA.DIHEDRAL>
-6.14632

>  <SCORE.INTRA.DIHEDRAL.0>
8.62657

>  <SCORE.INTRA.POLAR>
0

>  <SCORE.INTRA.POLAR.0>
0

>  <SCORE.INTRA.REPUL>
0

>  <SCORE.INTRA.REPUL.0>
0

>  <SCORE.INTRA.SOLV>
1.69383

>  <SCORE.INTRA.SOLV.lig_0>
-66.3641

>  <SCORE.INTRA.VDW>
-1.63728

>  <SCORE.INTRA.VDW.0>
0.452231

>  <SCORE.INTRA.norm>
-0.16798

>  <SCORE.RESTR>
0

>  <SCORE.RESTR.CAVITY>
0

>  <SCORE.RESTR.norm>
0

>  <SCORE.SYSTEM>
0

>  <SCORE.SYSTEM.CONST>
0

>  <SCORE.SYSTEM.DIHEDRAL>
0

>  <SCORE.SYSTEM.SOLV>
0

>  <SCORE.SYSTEM.norm>
0

>  <SCORE.heavy>
23

>  <SCORE.norm>
-0.73933

>  <RMSD>
21.180

$$$$
ligand
 OpenBabel02271912143D
libRbt.so/2013.1/901 2013/11/27
 23 25  0  0  0  0  0  0  0  0999 V2000
    1.7604    4.1830   37.2413 P   0  0  1  0  0  0  0  0  0  0  0  0
    1.0323    5.0554   34.8825 C   0  0  0  0  0  0  0  0  0  0  0  0
    1.2298    5.3422   36.2600 O   0  0  0  0  0  0  0  0  0  0  0  0
    0.6414    6.3492   34.2045 C   0  0  1  0  0  0  0  0  0  0  0  0
    0.5113    6.1969   32.7914 O   0  0  0  0  0  0  0  0  0  0  0  0
   -0.6997    6.8118   34.7485 C   0  0  1  0  0  0  0  0  0  0  0  0
   -0.5938    8.2092   35.0715 O   0  0  0  0  0  0  0  0  0  0  0  0
   -1.6979    6.5557   33.6264 C   0  0  0  0  0  0  0  0  0  0  0  0
   -0.8350    6.4546   32.3715 C   0  0  2  0  0  0  0  0  0  0  0  0
    0.6163    1.9403   30.3597 N   0  0  0  0  0  0  0  0  0  0  0  0
    1.3522    2.7964   31.0873 C   0  0  2  0  0  0  0  0  0  0  0  0
    2.6356    2.4587   31.3527 N   0  0  0  0  0  0  0  0  0  0  0  0
    0.8230    3.9554   31.5484 N   0  0  0  0  0  0  0  0  0  0  0  0
   -0.4622    4.2582   31.2726 C   0  0  2  0  0  0  0  0  0  0  0  0
   -1.2301    3.3913   30.5255 C   0  0  1  0  0  0  0  0  0  0  0  0
   -0.6699    2.2118   30.0733 C   0  0  0  0  0  0  0  0  0  0  0  0
   -1.3513    1.4091   29.3998 O   0  0  0  0  0  0  0  0  0  0  0  0
   -2.4581    3.9301   30.3910 N   0  0  0  0  0  0  0  0  0  0  0  0
   -2.4543    5.1038   31.0473 C   0  0  0  0  0  0  0  0  0  0  0  0
   -1.2372    5.2958   31.5675 N   0  0  1  0  0  0  0  0  0  0  0  0
    3.1369    3.7934   36.7601 O   0  0  0  0  0  0  0  0  0  0  0  0
    1.7366    4.8248   38.6094 O   0  5  0  0  0  0  0  0  0  0  0  0
    0.7320    3.0996   37.0600 O   0  0  0  0  0  0  0  0  0  0  0  0
  1  3  1  6  0  0  0
  1 21  1  0  0  0  0
  1 22  1  0  0  0  0
  1 23  2  0  0  0  0
  2  3  1  0  0  0  0
  4  2  1  1  0  0  0
  4  5  1  0  0  0  0
  4  6  1  0  0  0  0
  6  7  1  6  0  0  0
  6  8  1  0  0  0  0
  8  9  1  0  0  0  0
  9  5  1  1  0  0  0
  9 20  1  0  0  0  0
 10 11  1  0  0  0  0
 10 16  1  0  0  0  0
 11 12  1  1  0  0  0
 11 13  1  0  0  0  0
 14 13  1  6  0  0  0
 14 15  1  0  0  0  0
 14 20  1  0  0  0  0
 15 16  1  1  0  0  0
 15 18  1  0  0  0  0
 16 17  2  0  0  0  0
 18 19  1  0  0  0  0
 20 19  1  1  0  0  0
M  CHG  1  22  -1
M  END
>  <CHROM.1>
62.98728620,175.75383959,-175.62307418,-2.11285914,0.24602425,4.50765709
33.49096731,-1.04813064,0.89096035,-2.24335633

>  <Name>
ligand

>  <RI>
0

>  <Rbt.Current_Directory>
/home/itssahil/PROJECTS/Mol_Feturizer/Test_systems_manuscript/rnas/3slm

>  <Rbt.Executable>
rbdock ($Id: //depot/dev/client3/rdock/2013.1/src/exe/rbdock.cxx#4 $)

>  <Rbt.Library>
libRbt.so (2013.1, Build901 2013/11/27)

>  <Rbt.Parameter_File>
/export/apps/rDock/src/rDock_2013.1_src/data/scripts/dock_solv.prm

>  <Rbt.Receptor>
prm/blind_docking_100.prm

>  <SCORE>
-17.731

>  <SCORE.INTER>
-12.6288

>  <SCORE.INTER.CONST>
1

>  <SCORE.INTER.POLAR>
0

>  <SCORE.INTER.ROT>
4

>  <SCORE.INTER.SOLV>
11.2472

>  <SCORE.INTER.VDW>
-18.4349

>  <SCORE.INTER.norm>
-0.549077

>  <SCORE.INTRA>
-5.10224

>  <SCORE.INTRA.DIHEDRAL>
-7.23727

>  <SCORE.INTRA.DIHEDRAL.0>
8.62657

>  <SCORE.INTRA.POLAR>
0

>  <SCORE.INTRA.POLAR.0>
0

>  <SCORE.INTRA.REPUL>
0

>  <SCORE.INTRA.REPUL.0>
0

>  <SCORE.INTRA.SOLV>
-0.356033

>  <SCORE.INTRA.SOLV.lig_0>
-66.3641

>  <SCORE.INTRA.VDW>
-1.30559

>  <SCORE.INTRA.VDW.0>
0.452231

>  <SCORE.INTRA.norm>
-0.221836

>  <SCORE.RESTR>
0

>  <SCORE.RESTR.CAVITY>
0

>  <SCORE.RESTR.norm>
0

>  <SCORE.SYSTEM>
0

>  <SCORE.SYSTEM.CONST>
0

>  <SCORE.SYSTEM.DIHEDRAL>
0

>  <SCORE.SYSTEM.SOLV>
0

>  <SCORE.SYSTEM.norm>
0

>  <SCORE.heavy>
23

>  <SCORE.norm>
-0.770914

>  <RMSD>
21.583

$$$$
