@<TRIPOS>MOLECULE
3slm_rdock.pdb
 1456 1626 0 0 0
SMALL
GASTEIGER

@<TRIPOS>ATOM
      1  PA        34.2050    5.3910   14.8250 P.3    22  GTP22       0.2189
      2  PB        36.5020    4.0360   15.6280 P.3    22  GTP22       0.2246
      3  PG        36.6220    5.5700   18.0360 P.3    22  GTP22       0.3052
      4  C5'       33.2180    5.5400   12.3960 C.3    22  GTP22       0.1812
      5  O5'       34.3530    5.5940   13.2320 O.3    22  GTP22      -0.3112
      6  C4'       33.6280    5.8410   10.9600 C.3    22  GTP22       0.1773
      7  O4'       35.0150    5.7200   10.9120 O.3    22  GTP22      -0.3307
      8  C3'       33.1200    4.8180    9.9590 C.3    22  GTP22       0.1860
      9  O3'       31.9050    5.2260    9.3490 O.3    22  GTP22      -0.3112
     10  C2'       34.2430    4.5590    8.9490 C.3    22  GTP22       0.2309
     11  O2'       34.2160    5.4240    7.8370 O.3    22  GTP22      -0.2156
     12  C1'       35.4350    4.9350    9.8180 C.3    22  GTP22       0.2408
     13  N1        37.2540    0.2050    8.5340 N.ar   22  GTP22      -0.1709
     14  O1A       34.9030    6.5270   15.5310 O.co2  22  GTP22      -0.5170
     15  O1B       36.8000    2.8540   16.5290 O.co2  22  GTP22      -0.5168
     16  O1G       36.0040    6.9060   18.4040 O.2    22  GTP22      -0.2719
     17  C2        36.7040    1.1630    7.7020 C.ar   22  GTP22       0.2606
     18  N2        36.5770    0.9510    6.3930 N.pl3  22  GTP22      -0.0859
     19  O2A       32.7570    5.3530   15.2580 O.3    22  GTP22      -0.4371
     20  O2B       37.3540    4.0010   14.3770 O.3    22  GTP22      -0.4369
     21  O2G       35.7540    4.4620   18.5840 O.co2  22  GTP22      -0.7576
     22  N3        36.2790    2.3620    8.2310 N.ar   22  GTP22      -0.1918
     23  O3A       34.9380    4.0130   15.2160 O.3    22  GTP22      -0.2701
     24  O3B       36.7300    5.4310   16.4260 O.3    22  GTP22      -0.2585
     25  O3G       38.0130    5.4820   18.6310 O.3    22  GTP22      -0.1531
     26  C4        36.3920    2.6090    9.5590 C.ar   22  GTP22       0.1723
     27  C5        36.9360    1.6610   10.4110 C.ar   22  GTP22       0.1748
     28  C6        37.3700    0.4510    9.8910 C.ar   22  GTP22       0.3023
     29  O6        37.8620   -0.3910   10.6460 O.2    22  GTP22      -0.2633
     30  N7        36.9210    2.1650   11.6700 N.ar   22  GTP22      -0.2173
     31  C8        36.3840    3.4050   11.6250 C.ar   22  GTP22       0.1817
     32  N9        36.0420    3.6890   10.3250 N.ar   22  GTP22      -0.2693
     33  P         30.7510    4.2240    9.8550 P.3    23  G23         0.2141
     34  C5'       30.4740    3.9010    7.2700 C.3    23  G23         0.1812
     35  O5'       30.8400    3.3480    8.5240 O.3    23  G23        -0.3114
     36  C4'       30.9920    3.0700    6.1260 C.3    23  G23         0.1773
     37  O4'       32.3960    2.7710    6.3330 O.3    23  G23        -0.3307
     38  C3'       30.3500    1.7030    5.9550 C.3    23  G23         0.1860
     39  O3'       29.1000    1.7550    5.2910 O.3    23  G23        -0.3112
     40  C2'       31.4210    0.9240    5.1980 C.3    23  G23         0.2309
     41  O2'       31.4310    1.2790    3.8180 O.3    23  G23        -0.2156
     42  C1'       32.6890    1.4760    5.8380 C.3    23  G23         0.2408
     43  N1        34.7260   -3.0120    7.1230 N.ar   23  G23        -0.1709
     44  C2        34.3100   -2.5440    5.8920 C.ar   23  G23         0.2606
     45  N2        34.4680   -3.3820    4.8590 N.pl3  23  G23        -0.0859
     46  N3        33.7850   -1.3430    5.6830 N.ar   23  G23        -0.1918
     47  C4        33.6990   -0.6360    6.8340 C.ar   23  G23         0.1723
     48  C5        34.0800   -1.0080    8.1200 C.ar   23  G23         0.1748
     49  C6        34.6540   -2.3010    8.3210 C.ar   23  G23         0.3023
     50  O6        35.0650   -2.8130    9.3740 O.2    23  G23        -0.2633
     51  N7        33.8160    0.0130    9.0310 N.ar   23  G23        -0.2173
     52  C8        33.2930    0.9640    8.2910 C.ar   23  G23         0.1817
     53  N9        33.1820    0.6330    6.9520 N.ar   23  G23        -0.2693
     54  OP1       29.4940    5.0320    9.8720 O.2    23  G23        -0.5172
     55  OP2       31.1170    3.3990   11.0520 O.co2  23  G23        -0.4373
     56  P         27.8380    0.9460    5.8740 P.3    24  C24         0.2141
     57  C5'       28.4740   -1.0040    4.2300 C.3    24  C24         0.1812
     58  O5'       28.2130   -0.5720    5.5560 O.3    24  C24        -0.3114
     59  C4'       29.0900   -2.3800    4.2180 C.3    24  C24         0.1773
     60  O4'       30.4470   -2.3200    4.7410 O.3    24  C24        -0.3307
     61  C3'       28.4090   -3.4170    5.0970 C.3    24  C24         0.1860
     62  O3'       27.2480   -3.9750    4.5060 O.3    24  C24        -0.3112
     63  C2'       29.5260   -4.4250    5.3470 C.3    24  C24         0.2309
     64  O2'       29.7240   -5.2530    4.2080 O.3    24  C24        -0.2156
     65  C1'       30.7340   -3.4970    5.4740 C.3    24  C24         0.2420
     66  N1        31.0130   -3.1280    6.8850 N.ar   24  C24        -0.2535
     67  C2        31.6380   -4.0780    7.6910 C.ar   24  C24         0.3532
     68  O2        31.9050   -5.1780    7.1950 O.2    24  C24        -0.2443
     69  N3        31.9190   -3.7840    8.9810 N.ar   24  C24        -0.1739
     70  C4        31.6070   -2.5810    9.4710 C.ar   24  C24         0.1759
     71  N4        31.9140   -2.3390   10.7480 N.pl3  24  C24        -0.1070
     72  C5        30.9710   -1.5770    8.6740 C.ar   24  C24         0.0566
     73  C6        30.6960   -1.8920    7.3980 C.ar   24  C24         0.0850
     74  OP1       26.6530    1.3580    5.0720 O.2    24  C24        -0.5172
     75  OP2       27.8140    1.1610    7.3540 O.co2  24  C24        -0.4373
     76  P         25.9430   -4.2530    5.4040 P.3    25  C25         0.2141
     77  C5'       26.0420   -5.4270    7.7540 C.3    25  C25         0.1812
     78  O5'       26.5630   -4.4570    6.8610 O.3    25  C25        -0.3114
     79  C4'       26.8940   -6.6680    7.7740 C.3    25  C25         0.1773
     80  O4'       28.2970   -6.3040    7.8670 O.3    25  C25        -0.3307
     81  C3'       26.6880   -7.5920    8.9580 C.3    25  C25         0.1860
     82  O3'       25.5330   -8.4060    8.8450 O.3    25  C25        -0.3112
     83  C2'       27.9970   -8.3660    8.9940 C.3    25  C25         0.2309
     84  O2'       28.0450   -9.3300    7.9560 O.3    25  C25        -0.2156
     85  C1'       28.9870   -7.2560    8.6590 C.3    25  C25         0.2420
     86  N1        29.4740   -6.5890    9.8810 N.ar   25  C25        -0.2535
     87  C2        30.2840   -7.3140   10.7740 C.ar   25  C25         0.3532
     88  O2        30.5990   -8.4980   10.5050 O.2    25  C25        -0.2443
     89  N3        30.7060   -6.6910   11.9100 N.ar   25  C25        -0.1739
     90  C4        30.3450   -5.4240   12.1620 C.ar   25  C25         0.1759
     91  N4        30.7740   -4.8400   13.2840 N.pl3  25  C25        -0.1070
     92  C5        29.5220   -4.6850   11.2670 C.ar   25  C25         0.0566
     93  C6        29.1070   -5.3020   10.1550 C.ar   25  C25         0.0850
     94  OP1       25.3490   -5.5220    4.9240 O.2    25  C25        -0.5172
     95  OP2       25.1110   -3.0200    5.3760 O.co2  25  C25        -0.4373
     96  P         24.4560   -8.4320   10.0410 P.3    26  U26         0.2141
     97  C5'       25.1230  -10.8500   10.8160 C.3    26  U26         0.1812
     98  O5'       25.0990   -9.4570   11.0830 O.3    26  U26        -0.3114
     99  C4'       26.0600  -11.5740   11.7450 C.3    26  U26         0.1773
    100  O4'       27.3650  -10.9400   11.7190 O.3    26  U26        -0.3307
    101  C3'       25.7050  -11.5490   13.2220 C.3    26  U26         0.1860
    102  O3'       24.6470  -12.4250   13.5780 O.3    26  U26        -0.3112
    103  C2'       27.0380  -11.8960   13.8620 C.3    26  U26         0.2309
    104  O2'       27.3520  -13.2670   13.6670 O.3    26  U26        -0.2156
    105  C1'       27.9760  -11.0770   12.9930 C.3    26  U26         0.2420
    106  N1        28.2090   -9.7370   13.5700 N.ar   26  U26        -0.2534
    107  C2        29.1060   -9.7170   14.6340 C.ar   26  U26         0.3546
    108  O2        29.6600  -10.7340   15.0520 O.2    26  U26        -0.2443
    109  N3        29.3240   -8.4770   15.1940 N.ar   26  U26        -0.1530
    110  C4        28.7480   -7.2840   14.7990 C.ar   26  U26         0.2846
    111  O4        29.0580   -6.2430   15.3970 O.2    26  U26        -0.2650
    112  C5        27.8270   -7.3970   13.6970 C.ar   26  U26         0.0814
    113  C6        27.5820   -8.5900   13.1330 C.ar   26  U26         0.0870
    114  OP1       23.1980   -8.9980    9.4860 O.2    26  U26        -0.5172
    115  OP2       24.4260   -7.0640   10.6290 O.co2  26  U26        -0.4373
    116  P         23.6170  -12.0100   14.7550 P.3    27  U27         0.2141
    117  C5'       25.0480  -13.2530   16.5820 C.3    27  U27         0.1812
    118  O5'       24.5470  -12.0280   16.0620 O.3    27  U27        -0.3114
    119  C4'       26.0130  -13.0330   17.7240 C.3    27  U27         0.1773
    120  O4'       27.0660  -12.1200   17.3160 O.3    27  U27        -0.3307
    121  C3'       25.4420  -12.3900   18.9810 C.3    27  U27         0.1860
    122  O3'       24.7390  -13.3070   19.8040 O.3    27  U27        -0.3112
    123  C2'       26.6870  -11.8140   19.6420 C.3    27  U27         0.2309
    124  O2'       27.4270  -12.8380   20.2880 O.3    27  U27        -0.2156
    125  C1'       27.4820  -11.3430   18.4220 C.3    27  U27         0.2420
    126  N1        27.2410   -9.9100   18.1140 N.ar   27  U27        -0.2534
    127  C2        27.8810   -8.9760   18.9150 C.ar   27  U27         0.3546
    128  O2        28.6010   -9.2950   19.8480 O.2    27  U27        -0.2443
    129  N3        27.6310   -7.6630   18.5840 N.ar   27  U27        -0.1530
    130  C4        26.8200   -7.1980   17.5550 C.ar   27  U27         0.2846
    131  O4        26.6920   -5.9770   17.3850 O.2    27  U27        -0.2650
    132  C5        26.1970   -8.2250   16.7680 C.ar   27  U27         0.0814
    133  C6        26.4250   -9.5120   17.0660 C.ar   27  U27         0.0870
    134  OP1       22.5960  -13.0850   14.8440 O.3    27  U27        -0.4373
    135  OP2       23.1620  -10.6200   14.4710 O.co2  27  U27        -0.5172
    136  P         23.5630  -12.7950   20.7780 P.3    28  A28         0.2141
    137  C5'       24.9270  -13.0080   23.0080 C.3    28  A28         0.1812
    138  O5'       24.3650  -12.1680   22.0090 O.3    28  A28        -0.3114
    139  C4'       25.8860  -12.2570   23.9010 C.3    28  A28         0.1773
    140  O4'       26.7920  -11.4640   23.0960 O.3    28  A28        -0.3307
    141  C3'       25.2760  -11.2360   24.8510 C.3    28  A28         0.1860
    142  O3'       24.6880  -11.8210   25.9980 O.3    28  A28        -0.3112
    143  C2'       26.4710  -10.3470   25.1660 C.3    28  A28         0.2309
    144  O2'       27.3600  -11.0000   26.0630 O.3    28  A28        -0.2156
    145  C1'       27.1410  -10.2800   23.7980 C.3    28  A28         0.2408
    146  N1        27.2700   -5.1650   23.4290 N.ar   28  A28        -0.2040
    147  C2        27.8180   -6.0290   24.3060 C.ar   28  A28         0.2016
    148  N3        27.7550   -7.3630   24.3390 N.ar   28  A28        -0.2048
    149  C4        26.9970   -7.8100   23.3130 C.ar   28  A28         0.1692
    150  C5        26.3550   -7.0530   22.3370 C.ar   28  A28         0.1518
    151  C6        26.5270   -5.6570   22.4120 C.ar   28  A28         0.1919
    152  N6        25.9860   -4.8140   21.5390 N.pl3  28  A28        -0.1054
    153  N7        25.6540   -7.8700   21.4440 N.ar   28  A28        -0.2193
    154  C8        25.8820   -9.0830   21.8970 C.ar   28  A28         0.1816
    155  N9        26.6820   -9.1140   23.0200 N.ar   28  A28        -0.2693
    156  OP1       22.8230  -13.9930   21.2180 O.3    28  A28        -0.4373
    157  OP2       22.8240  -11.7270   20.0540 O.co2  28  A28        -0.5172
    158  P         23.4770  -11.0820   26.7510 P.3    29  U29         0.2141
    159  C5'       24.9420   -9.6450   28.4040 C.3    29  U29         0.1812
    160  O5'       24.1330   -9.7060   27.2330 O.3    29  U29        -0.3114
    161  C4'       25.2480   -8.2160   28.7990 C.3    29  U29         0.1773
    162  O4'       25.8860   -7.5170   27.7000 O.3    29  U29        -0.3307
    163  C3'       24.0520   -7.3410   29.1430 C.3    29  U29         0.1860
    164  O3'       23.5940   -7.5410   30.4620 O.3    29  U29        -0.3112
    165  C2'       24.5840   -5.9370   28.9070 C.3    29  U29         0.2309
    166  O2'       25.3730   -5.5190   30.0100 O.3    29  U29        -0.2156
    167  C1'       25.5080   -6.1530   27.7130 C.3    29  U29         0.2420
    168  N1        24.8480   -5.8370   26.4330 N.ar   29  U29        -0.2534
    169  C2        24.8520   -4.5280   25.9730 C.ar   29  U29         0.3546
    170  O2        25.3530   -3.5830   26.5740 O.2    29  U29        -0.2443
    171  N3        24.2250   -4.3580   24.7640 N.ar   29  U29        -0.1530
    172  C4        23.6290   -5.3340   23.9940 C.ar   29  U29         0.2846
    173  O4        23.1020   -5.0300   22.9290 O.2    29  U29        -0.2650
    174  C5        23.6760   -6.6480   24.5370 C.ar   29  U29         0.0814
    175  C6        24.2710   -6.8460   25.7100 C.ar   29  U29         0.0870
    176  OP1       23.1330  -11.9150   27.9280 O.3    29  U29        -0.4373
    177  OP2       22.4290  -10.8100   25.7280 O.co2  29  U29        -0.5172
    178  P         22.0280   -7.5220   30.7800 P.3    30  A30         0.2141
    179  C5'       22.0690   -4.9590   31.2800 C.3    30  A30         0.1812
    180  O5'       21.6120   -6.0230   30.4610 O.3    30  A30        -0.3114
    181  C4'       21.6630   -3.6170   30.7300 C.3    30  A30         0.1773
    182  O4'       22.2570   -3.4140   29.4300 O.3    30  A30        -0.3307
    183  C3'       20.1830   -3.4090   30.4800 C.3    30  A30         0.1860
    184  O3'       19.4520   -3.1420   31.6710 O.3    30  A30        -0.3112
    185  C2'       20.1810   -2.2500   29.4850 C.3    30  A30         0.2309
    186  O2'       20.2800   -1.0080   30.1600 O.3    30  A30        -0.2156
    187  C1'       21.4890   -2.4830   28.7130 C.3    30  A30         0.2408
    188  N1        21.2720   -1.0790   23.8280 N.ar   30  A30        -0.2040
    189  C2        21.5550   -0.4180   24.9520 C.ar   30  A30         0.2016
    190  N3        21.5980   -0.8790   26.1940 N.ar   30  A30        -0.2048
    191  C4        21.3020   -2.1870   26.2360 C.ar   30  A30         0.1692
    192  C5        20.9910   -2.9980   25.1700 C.ar   30  A30         0.1518
    193  C6        20.9850   -2.3990   23.8970 C.ar   30  A30         0.1919
    194  N6        20.7110   -3.0480   22.7590 N.pl3  30  A30        -0.1054
    195  N7        20.7470   -4.2920   25.6130 N.ar   30  A30        -0.2193
    196  C8        20.9090   -4.2250   26.9150 C.ar   30  A30         0.1816
    197  N9        21.2530   -2.9820   27.3500 N.ar   30  A30        -0.2693
    198  OP1       21.8940   -7.7850   32.2320 O.3    30  A30        -0.4373
    199  OP2       21.3680   -8.4400   29.8110 O.co2  30  A30        -0.5172
    200  P         18.1070   -3.9620   32.0110 P.3    31  C31         0.2141
    201  C5'       15.7570   -3.9770   30.8150 C.3    31  C31         0.1812
    202  O5'       17.0400   -3.3670   30.9790 O.3    31  C31        -0.3114
    203  C4'       15.1210   -3.6110   29.4890 C.3    31  C31         0.1773
    204  O4'       14.8420   -2.1800   29.4750 O.3    31  C31        -0.3307
    205  C3'       15.9920   -3.8710   28.2600 C.3    31  C31         0.1860
    206  O3'       15.1650   -4.0760   27.1110 O.3    31  C31        -0.3112
    207  C2'       16.7040   -2.5440   28.1010 C.3    31  C31         0.2309
    208  O2'       17.2320   -2.3220   26.8120 O.3    31  C31        -0.2156
    209  C1'       15.5650   -1.5780   28.4210 C.3    31  C31         0.2420
    210  N1        16.0110   -0.2460   28.8570 N.ar   31  C31        -0.2535
    211  C2        15.6930    0.7940   27.9970 C.ar   31  C31         0.3532
    212  O2        15.0540    0.5100   26.9640 O.2    31  C31        -0.2443
    213  N3        16.0840    2.0460   28.3300 N.ar   31  C31        -0.1739
    214  C4        16.7730    2.2590   29.4540 C.ar   31  C31         0.1759
    215  N4        17.1350    3.5130   29.7250 N.pl3  31  C31        -0.1070
    216  C5        17.1260    1.2040   30.3450 C.ar   31  C31         0.0566
    217  C6        16.7210   -0.0290   30.0100 C.ar   31  C31         0.0850
    218  OP1       17.7290   -3.6060   33.3870 O.3    31  C31        -0.4373
    219  OP2       18.3620   -5.3860   31.6960 O.co2  31  C31        -0.5172
    220  P         14.2340   -5.3770   26.9830 P.3    32  A32         0.2141
    221  C5'       12.1620   -3.8080   27.2830 C.3    32  A32         0.1812
    222  O5'       12.9110   -4.9280   27.7350 O.3    32  A32        -0.3114
    223  C4'       10.9320   -3.6080   28.1210 C.3    32  A32         0.1773
    224  O4'       11.2910   -3.8340   29.4960 O.3    32  A32        -0.3307
    225  C3'       10.3060   -2.2220   28.0420 C.3    32  A32         0.1860
    226  O3'        9.0970   -2.2700   27.2930 O.3    32  A32        -0.3112
    227  C2'       10.0080   -1.8270   29.4950 C.3    32  A32         0.2309
    228  O2'        8.6250   -1.6940   29.7850 O.3    32  A32        -0.2156
    229  C1'       10.6440   -2.9290   30.3510 C.3    32  A32         0.2408
    230  N1        13.5370    1.0710   31.7410 N.ar   32  A32        -0.2040
    231  C2        12.6490    0.8550   30.7450 C.ar   32  A32         0.2016
    232  N3        11.9340   -0.2210   30.4430 N.ar   32  A32        -0.2048
    233  C4        12.2000   -1.1830   31.3230 C.ar   32  A32         0.1692
    234  C5        13.0690   -1.1220   32.4090 C.ar   32  A32         0.1518
    235  C6        13.7720    0.0730   32.6230 C.ar   32  A32         0.1919
    236  N6        14.6350    0.2780   33.6250 N.pl3  32  A32        -0.1054
    237  N7        13.0810   -2.3030   33.1040 N.ar   32  A32        -0.2193
    238  C8        12.2030   -3.0360   32.4030 C.ar   32  A32         0.1816
    239  N9        11.6390   -2.4250   31.3200 N.ar   32  A32        -0.2693
    240  OP1       14.9030   -6.4730   27.7240 O.3    32  A32        -0.4373
    241  OP2       13.9370   -5.5680   25.5440 O.co2  32  A32        -0.5172
    242  P          9.1070   -1.8170   25.7490 P.3    33  G33         0.2141
    243  C5'        7.5690    0.1600   26.5160 C.3    33  G33         0.1812
    244  O5'        8.7180   -0.2820   25.8170 O.3    33  G33        -0.3114
    245  C4'        7.9490    0.8700   27.7860 C.3    33  G33         0.1773
    246  O4'        8.6450    2.1040   27.4740 O.3    33  G33        -0.3307
    247  C3'        6.7900    1.2420   28.7000 C.3    33  G33         0.1860
    248  O3'        7.0510    0.7730   30.0120 O.3    33  G33        -0.3112
    249  C2'        6.7710    2.7720   28.6890 C.3    33  G33         0.2309
    250  O2'        6.3770    3.3510   29.9090 O.3    33  G33        -0.2156
    251  C1'        8.2070    3.1170   28.3520 C.3    33  G33         0.2408
    252  N1        10.2840    7.7880   28.5460 N.ar   33  G33        -0.1709
    253  C2        10.3700    6.7670   29.4570 C.ar   33  G33         0.2606
    254  N2        11.0930    7.0020   30.5620 N.pl3  33  G33        -0.0859
    255  N3         9.7820    5.5910   29.2960 N.ar   33  G33        -0.1918
    256  C4         9.0820    5.4990   28.1400 C.ar   33  G33         0.1723
    257  C5         8.9300    6.4620   27.1710 C.ar   33  G33         0.1748
    258  C6         9.5620    7.7170   27.3540 C.ar   33  G33         0.3023
    259  O6         9.5350    8.6860   26.5890 O.2    33  G33        -0.2633
    260  N7         8.1440    5.9950   26.1280 N.ar   33  G33        -0.2173
    261  C8         7.8300    4.7800   26.4770 C.ar   33  G33         0.1817
    262  N9         8.3640    4.4110   27.6850 N.ar   33  G33        -0.2693
    263  OP1        8.0450   -2.5730   25.0600 O.2    33  G33        -0.5172
    264  OP2       10.5170   -1.9520   25.2630 O.co2  33  G33        -0.4373
    265  P          6.0350   -0.2680   30.6750 P.3    34  G34         0.2141
    266  C5'        7.1590   -1.9060   32.3750 C.3    34  G34         0.1812
    267  O5'        6.7230   -0.5970   32.0650 O.3    34  G34        -0.3114
    268  C4'        8.1870   -1.8720   33.4680 C.3    34  G34         0.1773
    269  O4'        9.4260   -1.3370   32.9400 O.3    34  G34        -0.3307
    270  C3'        7.8700   -0.9490   34.6350 C.3    34  G34         0.1860
    271  O3'        6.9640   -1.5050   35.5700 O.3    34  G34        -0.3112
    272  C2'        9.2470   -0.6640   35.2080 C.3    34  G34         0.2309
    273  O2'        9.7050   -1.7670   35.9660 O.3    34  G34        -0.2156
    274  C1'       10.0820   -0.5840   33.9370 C.3    34  G34         0.2408
    275  N1        12.2070    3.9720   34.7680 N.ar   34  G34        -0.1709
    276  C2        12.2520    2.8280   35.5220 C.ar   34  G34         0.2606
    277  N2        12.9770    2.8980   36.6450 N.pl3  34  G34        -0.0859
    278  N3        11.6400    1.7010   35.2110 N.ar   34  G34        -0.1918
    279  C4        10.9870    1.8000   34.0480 C.ar   34  G34         0.1723
    280  C5        10.8940    2.8870   33.2130 C.ar   34  G34         0.1748
    281  C6        11.5410    4.0960   33.5620 C.ar   34  G34         0.3023
    282  O6        11.5650    5.1710   32.9500 O.2    34  G34        -0.2633
    283  N7        10.1160    2.5860   32.1120 N.ar   34  G34        -0.2173
    284  C8         9.7650    1.3380   32.2940 C.ar   34  G34         0.1817
    285  N9        10.2560    0.8010   33.4550 N.ar   34  G34        -0.2693
    286  OP1        6.0260   -1.4660   29.8270 O.2    34  G34        -0.5172
    287  OP2        4.7670    0.4540   30.8970 O.co2  34  G34        -0.4373
    288  P          5.8170   -0.5850   36.2250 P.3    35  G35         0.2141
    289  C5'        7.2260   -0.3050   38.4090 C.3    35  G35         0.1812
    290  O5'        6.6300    0.2980   37.2720 O.3    35  G35        -0.3114
    291  C4'        8.0400    0.6870   39.2080 C.3    35  G35         0.1773
    292  O4'        9.1430    1.1800   38.4190 O.3    35  G35        -0.3307
    293  C3'        7.3210    1.9430   39.6470 C.3    35  G35         0.1860
    294  O3'        6.5240    1.7360   40.7920 O.3    35  G35        -0.3112
    295  C2'        8.4740    2.9070   39.8770 C.3    35  G35         0.2309
    296  O2'        9.1430    2.6030   41.0910 O.3    35  G35        -0.2156
    297  C1'        9.3940    2.5270   38.7360 C.3    35  G35         0.2408
    298  N1         9.7220    7.0580   36.3840 N.ar   35  G35        -0.1709
    299  C2        10.0550    6.7400   37.6780 C.ar   35  G35         0.2606
    300  N2        10.5510    7.7400   38.4170 N.pl3  35  G35        -0.0859
    301  N3         9.9200    5.5290   38.2070 N.ar   35  G35        -0.1918
    302  C4         9.4210    4.6540   37.3100 C.ar   35  G35         0.1723
    303  C5         9.0570    4.8770   36.0000 C.ar   35  G35         0.1748
    304  C6         9.2040    6.1720   35.4430 C.ar   35  G35         0.3023
    305  O6         8.9430    6.5530   34.2910 O.2    35  G35        -0.2633
    306  N7         8.5820    3.7210   35.4170 N.ar   35  G35        -0.2173
    307  C8         8.6650    2.8320   36.3570 C.ar   35  G35         0.1817
    308  N9         9.1580    3.3300   37.5290 N.ar   35  G35        -0.2693
    309  OP1        4.8860   -1.4830   36.9470 O.3    35  G35        -0.4373
    310  OP2        5.2720    0.2760   35.1380 O.co2  35  G35        -0.5172
    311  P          5.0690    2.3700   40.8770 P.3    36  U36         0.2141
    312  C5'        5.9590    4.3000   42.4070 C.3    36  U36         0.1812
    313  O5'        5.3860    3.9090   41.1680 O.3    36  U36        -0.3114
    314  C4'        6.2880    5.7690   42.4380 C.3    36  U36         0.1773
    315  O4'        7.3540    6.0610   41.4930 O.3    36  U36        -0.3307
    316  C3'        5.1750    6.7090   42.0270 C.3    36  U36         0.1860
    317  O3'        4.2240    6.9340   43.0550 O.3    36  U36        -0.3112
    318  C2'        5.9510    7.9540   41.6140 C.3    36  U36         0.2309
    319  O2'        6.4420    8.6460   42.7540 O.3    36  U36        -0.2156
    320  C1'        7.1380    7.3240   40.9020 C.3    36  U36         0.2420
    321  N1         6.8730    7.1310   39.4640 N.ar   36  U36        -0.2534
    322  C2         7.0740    8.2180   38.6630 C.ar   36  U36         0.3546
    323  O2         7.4440    9.2700   39.1230 O.2    36  U36        -0.2443
    324  N3         6.8320    8.0450   37.3280 N.ar   36  U36        -0.1530
    325  C4         6.4000    6.8930   36.7150 C.ar   36  U36         0.2846
    326  O4         6.2220    6.8870   35.4940 O.2    36  U36        -0.2650
    327  C5         6.1960    5.7970   37.6160 C.ar   36  U36         0.0814
    328  C6         6.4300    5.9450   38.9310 C.ar   36  U36         0.0870
    329  OP1        4.4070    1.7600   42.0460 O.3    36  U36        -0.4373
    330  OP2        4.4350    2.2180   39.5390 O.co2  36  U36        -0.5172
    331  P          2.6870    7.2180   42.6840 P.3    37  A37         0.2141
    332  C5'        3.1470    9.7880   42.7440 C.3    37  A37         0.1812
    333  O5'        2.7650    8.6480   41.9930 O.3    37  A37        -0.3114
    334  C4'        3.3520   10.9970   41.8680 C.3    37  A37         0.1773
    335  O4'        4.3380   10.7160   40.8470 O.3    37  A37        -0.3307
    336  C3'        2.1530   11.4610   41.0680 C.3    37  A37         0.1860
    337  O3'        1.2020   12.1540   41.8450 O.3    37  A37        -0.3112
    338  C2'        2.8120   12.3160   39.9960 C.3    37  A37         0.2309
    339  O2'        3.2270   13.5620   40.5400 O.3    37  A37        -0.2156
    340  C1'        4.0650   11.4990   39.7060 C.3    37  A37         0.2408
    341  N1         4.0260   11.2220   34.5820 N.ar   37  A37        -0.2040
    342  C2         4.1790   12.2410   35.4360 C.ar   37  A37         0.2016
    343  N3         4.1680   12.2290   36.7630 N.ar   37  A37        -0.2048
    344  C4         3.9780   10.9920   37.2330 C.ar   37  A37         0.1692
    345  C5         3.8120    9.8510   36.4900 C.ar   37  A37         0.1518
    346  C6         3.8340    9.9860   35.0830 C.ar   37  A37         0.1919
    347  N6         3.6950    8.9860   34.2010 N.pl3  37  A37        -0.1054
    348  N7         3.6480    8.7620   37.3450 N.ar   37  A37        -0.2193
    349  C8         3.7110    9.2610   38.5590 C.ar   37  A37         0.1816
    350  N9         3.9010   10.6110   38.5490 N.ar   37  A37        -0.2693
    351  OP1        1.9450    7.3120   43.9610 O.3    37  A37        -0.4373
    352  OP2        2.2660    6.2010   41.6970 O.co2  37  A37        -0.5172
    353  P         -0.3220   12.2540   41.3500 P.3    38  G38         0.2141
    354  C5'       -0.0700   14.6110   40.2710 C.3    38  G38         0.1812
    355  O5'       -0.2250   13.2180   40.0940 O.3    38  G38        -0.3114
    356  C4'        0.1050   15.3140   38.9550 C.3    38  G38         0.1773
    357  O4'        1.1850   14.7100   38.2060 O.3    38  G38        -0.3307
    358  C3'       -1.0620   15.2400   37.9980 C.3    38  G38         0.1860
    359  O3'       -2.1090   16.1170   38.3510 O.3    38  G38        -0.3112
    360  C2'       -0.3950   15.5850   36.6790 C.3    38  G38         0.2309
    361  O2'       -0.1080   16.9740   36.6210 O.3    38  G38        -0.2156
    362  C1'        0.9240   14.8340   36.8240 C.3    38  G38         0.2408
    363  N1         0.9480   12.0660   32.5760 N.ar   38  G38        -0.1709
    364  C2         1.0610   13.4280   32.7340 C.ar   38  G38         0.2606
    365  N2         1.1980   14.1590   31.6120 N.pl3  38  G38        -0.0859
    366  N3         1.0420   14.0380   33.9060 N.ar   38  G38        -0.1918
    367  C4         0.9060   13.1660   34.9180 C.ar   38  G38         0.1723
    368  C5         0.7970   11.7990   34.8680 C.ar   38  G38         0.1748
    369  C6         0.8190   11.1500   33.6110 C.ar   38  G38         0.3023
    370  O6         0.7320    9.9380   33.3630 O.2    38  G38        -0.2633
    371  N7         0.6820   11.2750   36.1440 N.ar   38  G38        -0.2173
    372  C8         0.7160   12.3160   36.9280 C.ar   38  G38         0.1817
    373  N9         0.8490   13.4890   36.2450 N.ar   38  G38        -0.2693
    374  OP1       -1.0840   12.9200   42.4280 O.3    38  G38        -0.4373
    375  OP2       -0.7340   10.9040   40.9130 O.co2  38  G38        -0.5172
    376  P         -3.5480   15.9810   37.6670 P.3    39  C39         0.2141
    377  C5'       -3.1750   17.3580   35.4610 C.3    39  C39         0.1812
    378  O5'       -3.2180   16.0950   36.1100 O.3    39  C39        -0.3114
    379  C4'       -3.2160   17.2040   33.9660 C.3    39  C39         0.1773
    380  O4'       -2.1690   16.2920   33.5520 O.3    39  C39        -0.3307
    381  C3'       -4.4780   16.5800   33.4020 C.3    39  C39         0.1860
    382  O3'       -5.5460   17.4980   33.2730 O.3    39  C39        -0.3112
    383  C2'       -3.9990   15.9970   32.0830 C.3    39  C39         0.2309
    384  O2'       -3.8540   17.0080   31.1030 O.3    39  C39        -0.2156
    385  C1'       -2.6110   15.5090   32.4680 C.3    39  C39         0.2420
    386  N1        -2.6190   14.0960   32.8790 N.ar   39  C39        -0.2535
    387  C2        -2.4190   13.1930   31.8490 C.ar   39  C39         0.3532
    388  O2        -2.2650   13.6600   30.7070 O.2    39  C39        -0.2443
    389  N3        -2.4220   11.8680   32.1260 N.ar   39  C39        -0.1739
    390  C4        -2.6030   11.4510   33.3810 C.ar   39  C39         0.1759
    391  N4        -2.5800   10.1230   33.5960 N.pl3  39  C39        -0.1070
    392  C5        -2.8090   12.3650   34.4540 C.ar   39  C39         0.0566
    393  C6        -2.8150   13.6740   34.1640 C.ar   39  C39         0.0850
    394  OP1       -4.3360   17.1580   38.1170 O.3    39  C39        -0.4373
    395  OP2       -4.0610   14.6100   37.9710 O.co2  39  C39        -0.5172
    396  P         -7.0690   16.9950   33.4130 P.3    40  A40         0.2141
    397  C5'       -7.2120   16.4090   30.8720 C.3    40  A40         0.1812
    398  O5'       -7.2110   15.9580   32.2160 O.3    40  A40        -0.3114
    399  C4'       -7.1540   15.2620   29.8960 C.3    40  A40         0.1773
    400  O4'       -5.9480   14.4950   30.1120 O.3    40  A40        -0.3307
    401  C3'       -8.2500   14.2170   30.0080 C.3    40  A40         0.1860
    402  O3'       -9.4880   14.6340   29.4430 O.3    40  A40        -0.3112
    403  C2'       -7.6100   13.0430   29.2920 C.3    40  A40         0.2309
    404  O2'       -7.5460   13.2930   27.8970 O.3    40  A40        -0.2156
    405  C1'       -6.1940   13.1330   29.8300 C.3    40  A40         0.2408
    406  N1        -5.2700    8.5040   31.8230 N.ar   40  A40        -0.2040
    407  C2        -5.4050    8.9280   30.5610 C.ar   40  A40         0.2016
    408  N3        -5.6520   10.1550   30.1150 N.ar   40  A40        -0.2048
    409  C4        -5.7600   11.0090   31.1440 C.ar   40  A40         0.1692
    410  C5        -5.6580   10.7110   32.4920 C.ar   40  A40         0.1518
    411  C6        -5.3990    9.3810   32.8350 C.ar   40  A40         0.1919
    412  N6        -5.2730    8.9390   34.0830 N.pl3  40  A40        -0.1054
    413  N7        -5.8260   11.8520   33.2620 N.ar   40  A40        -0.2193
    414  C8        -6.0320   12.8010   32.3680 C.ar   40  A40         0.1816
    415  N9        -6.0130   12.3540   31.0670 N.ar   40  A40        -0.2693
    416  OP1       -7.9240   18.1710   33.1620 O.2    40  A40        -0.5172
    417  OP2       -7.1960   16.2850   34.7150 O.co2  40  A40        -0.4373
    418  P        -10.8700   14.3890   30.2350 P.3    41  U41         0.2141
    419  C5'      -11.3200   12.0770   29.0380 C.3    41  U41         0.1812
    420  O5'      -11.0110   12.7960   30.2330 O.3    41  U41        -0.3114
    421  C4'      -12.1100   10.8170   29.3320 C.3    41  U41         0.1773
    422  O4'      -11.2240    9.8760   29.9950 O.3    41  U41        -0.3307
    423  C3'      -13.3280   11.0180   30.2480 C.3    41  U41         0.1860
    424  O3'      -14.5850   10.5880   29.6470 O.3    41  U41        -0.3112
    425  C2'      -13.0150   10.2320   31.5290 C.3    41  U41         0.2309
    426  O2'      -14.0910    9.4660   32.0340 O.3    41  U41        -0.2156
    427  C1'      -11.8210    9.3470   31.1630 C.3    41  U41         0.2420
    428  N1       -10.8000    9.3200   32.2270 N.ar   41  U41        -0.2534
    429  C2       -10.6330    8.1830   33.0100 C.ar   41  U41         0.3546
    430  O2       -11.2520    7.1450   32.8390 O.2    41  U41        -0.2443
    431  N3        -9.6860    8.2920   33.9950 N.ar   41  U41        -0.1530
    432  C4        -8.9250    9.4090   34.2800 C.ar   41  U41         0.2846
    433  O4        -8.1120    9.3670   35.1980 O.2    41  U41        -0.2650
    434  C5        -9.1700   10.5450   33.4490 C.ar   41  U41         0.0814
    435  C6       -10.0890   10.4650   32.4790 C.ar   41  U41         0.0870
    436  OP1      -11.9480   14.9990   29.4170 O.2    41  U41        -0.5172
    437  OP2      -10.6770   14.8670   31.6250 O.co2  41  U41        -0.4373
    438  P        -14.7380    9.2350   28.7840 P.3    42  A42         0.2141
    439  C5'      -14.4220    8.8890   26.2190 C.3    42  A42         0.1812
    440  O5'      -14.0990    9.6250   27.3830 O.3    42  A42        -0.3114
    441  C4'      -13.1920    8.3190   25.5540 C.3    42  A42         0.1773
    442  O4'      -12.0570    8.3690   26.4580 O.3    42  A42        -0.3307
    443  C3'      -13.2790    6.8580   25.1600 C.3    42  A42         0.1860
    444  O3'      -13.9940    6.6540   23.9570 O.3    42  A42        -0.3112
    445  C2'      -11.8170    6.4420   25.0970 C.3    42  A42         0.2309
    446  O2'      -11.2170    6.9100   23.9040 O.3    42  A42        -0.2156
    447  C1'      -11.2370    7.2330   26.2650 C.3    42  A42         0.2408
    448  N1        -9.0050    3.4700   29.0640 N.ar   42  A42        -0.2040
    449  C2        -8.7380    3.9660   27.8440 C.ar   42  A42         0.2016
    450  N3        -9.3490    4.9380   27.1640 N.ar   42  A42        -0.2048
    451  C4       -10.3630    5.4380   27.8810 C.ar   42  A42         0.1692
    452  C5       -10.7570    5.0340   29.1460 C.ar   42  A42         0.1518
    453  C6       -10.0320    3.9980   29.7530 C.ar   42  A42         0.1919
    454  N6       -10.2890    3.5200   30.9680 N.pl3  42  A42        -0.1054
    455  N7       -11.8420    5.7780   29.5820 N.ar   42  A42        -0.2193
    456  C8       -12.0810    6.5960   28.5850 C.ar   42  A42         0.1816
    457  N9       -11.2290    6.4480   27.5180 N.ar   42  A42        -0.2693
    458  OP1      -16.1800    8.9900   28.6110 O.2    42  A42        -0.5172
    459  OP2      -13.9240    8.1950   29.4450 O.co2  42  A42        -0.4373
    460  P        -15.4050    5.8880   23.9980 P.3    43  A43         0.2141
    461  C5'      -13.8700    3.9110   23.2600 C.3    43  A43         0.1812
    462  O5'      -14.9560    4.3630   24.0560 O.3    43  A43        -0.3114
    463  C4'      -13.5910    2.4460   23.4610 C.3    43  A43         0.1773
    464  O4'      -12.9020    2.2450   24.7280 O.3    43  A43        -0.3307
    465  C3'      -14.8180    1.5310   23.4980 C.3    43  A43         0.1860
    466  O3'      -14.4720    0.2840   22.8970 O.3    43  A43        -0.3112
    467  C2'      -15.0110    1.3140   24.9880 C.3    43  A43         0.2309
    468  O2'      -15.7330    0.1580   25.3160 O.3    43  A43        -0.2156
    469  C1'      -13.5610    1.2240   25.4400 C.3    43  A43         0.2408
    470  N1       -12.5100   -1.0990   29.8560 N.ar   43  A43        -0.2040
    471  C2       -12.6160   -1.5350   28.5920 C.ar   43  A43         0.2016
    472  N3       -12.8830   -0.8590   27.4730 N.ar   43  A43        -0.2048
    473  C4       -13.0590    0.4370   27.7550 C.ar   43  A43         0.1692
    474  C5       -12.9830    1.0370   28.9920 C.ar   43  A43         0.1518
    475  C6       -12.6870    0.2140   30.0870 C.ar   43  A43         0.1919
    476  N6       -12.5670    0.6600   31.3340 N.pl3  43  A43        -0.1054
    477  N7       -13.2300    2.4010   28.8890 N.ar   43  A43        -0.2193
    478  C8       -13.4510    2.5890   27.6060 C.ar   43  A43         0.1816
    479  N9       -13.3590    1.4330   26.8710 N.ar   43  A43        -0.2693
    480  OP1      -16.0940    6.1670   22.7140 O.2    43  A43        -0.5172
    481  OP2      -16.0720    6.2660   25.2600 O.co2  43  A43        -0.4373
    482  P        -15.4980   -0.4610   21.9210 P.3    44  U44         0.2141
    483  C5'      -13.7440   -0.5330   19.9820 C.3    44  U44         0.1812
    484  O5'      -14.9750   -0.0340   20.4820 O.3    44  U44        -0.3114
    485  C4'      -13.1000    0.4260   19.0070 C.3    44  U44         0.1773
    486  O4'      -14.0950    0.8940   18.0520 O.3    44  U44        -0.3307
    487  C3'      -12.4820    1.6720   19.6300 C.3    44  U44         0.1860
    488  O3'      -11.2930    2.0190   18.9050 O.3    44  U44        -0.3112
    489  C2'      -13.5680    2.7380   19.4140 C.3    44  U44         0.2309
    490  O2'      -13.0910    4.0660   19.3640 O.3    44  U44        -0.2156
    491  C1'      -14.1670    2.3100   18.0770 C.3    44  U44         0.2420
    492  N1       -15.5930    2.6970   17.8810 N.ar   44  U44        -0.2534
    493  C2       -15.9910    3.8250   17.1510 C.ar   44  U44         0.3546
    494  O2       -15.2330    4.6390   16.6460 O.2    44  U44        -0.2443
    495  N3       -17.3530    3.9900   17.0370 N.ar   44  U44        -0.1530
    496  C4       -18.3450    3.1690   17.5530 C.ar   44  U44         0.2846
    497  O4       -19.5400    3.4240   17.3830 O.2    44  U44        -0.2650
    498  C5       -17.8600    2.0390   18.2710 C.ar   44  U44         0.0814
    499  C6       -16.5450    1.8490   18.3860 C.ar   44  U44         0.0870
    500  OP1      -16.8430    0.1230   22.1680 O.3    44  U44        -0.4373
    501  OP2      -15.3000   -1.9190   22.1220 O.co2  44  U44        -0.5172
    502  P         -9.8680    1.3410   19.2820 P.3    45  G45         0.2141
    503  C5'       -9.5230    3.4990   20.7320 C.3    45  G45         0.1812
    504  O5'       -9.4750    2.0810   20.6360 O.3    45  G45        -0.3114
    505  C4'       -9.3660    3.9600   22.1570 C.3    45  G45         0.1773
    506  O4'      -10.4090    3.3760   22.9780 O.3    45  G45        -0.3307
    507  C3'       -8.0780    3.5430   22.8620 C.3    45  G45         0.1860
    508  O3'       -6.9730    4.3600   22.5270 O.3    45  G45        -0.3112
    509  C2'       -8.4830    3.6380   24.3220 C.3    45  G45         0.2309
    510  O2'       -8.5690    5.0000   24.7270 O.3    45  G45        -0.2156
    511  C1'       -9.8960    3.0670   24.2570 C.3    45  G45         0.2408
    512  N1        -9.6000   -0.9520   27.4150 N.ar   45  G45        -0.1709
    513  C2        -9.5360    0.3870   27.7160 C.ar   45  G45         0.2606
    514  N2        -9.3860    0.6760   29.0220 N.pl3  45  G45        -0.0859
    515  N3        -9.6200    1.3510   26.8050 N.ar   45  G45        -0.1918
    516  C4        -9.7810    0.8650   25.5620 C.ar   45  G45         0.1723
    517  C5        -9.8540   -0.4520   25.1610 C.ar   45  G45         0.1748
    518  C6        -9.7650   -1.4760   26.1350 C.ar   45  G45         0.3023
    519  O6        -9.8200   -2.7040   25.9770 O.2    45  G45        -0.2633
    520  N7       -10.0250   -0.5450   23.7960 N.ar   45  G45        -0.2173
    521  C8       -10.0450    0.6910   23.3880 C.ar   45  G45         0.1817
    522  N9        -9.9040    1.6000   24.4100 N.ar   45  G45        -0.2693
    523  OP1       -8.9090    1.7090   18.2160 O.2    45  G45        -0.5172
    524  OP2      -10.1180   -0.1060   19.5510 O.co2  45  G45        -0.4373
    525  P         -5.4900    3.7550   22.4690 P.3    46  G46         0.2141
    526  C5'       -5.1960    4.1190   25.0340 C.3    46  G46         0.1812
    527  O5'       -5.2640    3.2230   23.9440 O.3    46  G46        -0.3114
    528  C4'       -4.9790    3.3890   26.3320 C.3    46  G46         0.1773
    529  O4'       -6.0360    2.4300   26.5410 O.3    46  G46        -0.3307
    530  C3'       -3.7100    2.5570   26.4370 C.3    46  G46         0.1860
    531  O3'       -2.5620    3.3560   26.7070 O.3    46  G46        -0.3112
    532  C2'       -4.0610    1.5790   27.5660 C.3    46  G46         0.2309
    533  O2'       -3.8630    2.1900   28.8340 O.3    46  G46        -0.2156
    534  C1'       -5.5720    1.4000   27.3770 C.3    46  G46         0.2408
    535  N1        -6.3400   -3.4690   28.5130 N.ar   46  G46        -0.1709
    536  C2        -5.9090   -2.4280   29.2840 C.ar   46  G46         0.2606
    537  N2        -5.6370   -2.6910   30.5670 N.pl3  46  G46        -0.0859
    538  N3        -5.7620   -1.1970   28.8410 N.ar   46  G46        -0.1918
    539  C4        -6.0610   -1.0740   27.5360 C.ar   46  G46         0.1723
    540  C5        -6.4910   -2.0500   26.6670 C.ar   46  G46         0.1748
    541  C6        -6.6660   -3.3750   27.1690 C.ar   46  G46         0.3023
    542  O6        -7.0440   -4.3990   26.5850 O.2    46  G46        -0.2633
    543  N7        -6.6860   -1.4970   25.4000 N.ar   46  G46        -0.2173
    544  C8        -6.3680   -0.2280   25.5300 C.ar   46  G46         0.1817
    545  N9        -5.9550    0.0890   26.8060 N.ar   46  G46        -0.2693
    546  OP1       -4.5800    4.8900   22.1950 O.3    46  G46        -0.4373
    547  OP2       -5.5100    2.6140   21.5230 O.co2  46  G46        -0.5172
    548  P         -1.1510    3.0790   25.9720 P.3    47  G47         0.2141
    549  C5'       -1.1270    4.7790   23.9820 C.3    47  G47         0.1812
    550  O5'       -0.8060    4.4900   25.3330 O.3    47  G47        -0.3114
    551  C4'       -1.5650    6.2060   23.8310 C.3    47  G47         0.1773
    552  O4'       -2.7340    6.4390   24.6620 O.3    47  G47        -0.3307
    553  C3'       -0.5720    7.2530   24.3070 C.3    47  G47         0.1860
    554  O3'        0.4540    7.5190   23.3640 O.3    47  G47        -0.3112
    555  C2'       -1.4760    8.4440   24.6060 C.3    47  G47         0.2309
    556  O2'       -1.8880    9.0860   23.4040 O.3    47  G47        -0.2156
    557  C1'       -2.6880    7.7350   25.2120 C.3    47  G47         0.2408
    558  N1        -2.3930   10.2260   29.6080 N.ar   47  G47        -0.1709
    559  C2        -2.5130   10.7030   28.3210 C.ar   47  G47         0.2606
    560  N2        -2.5690   12.0390   28.1940 N.pl3  47  G47        -0.0859
    561  N3        -2.5790    9.9460   27.2370 N.ar   47  G47        -0.1918
    562  C4        -2.5200    8.6430   27.5650 C.ar   47  G47         0.1723
    563  C5        -2.3900    8.0590   28.8090 C.ar   47  G47         0.1748
    564  C6        -2.3100    8.8870   29.9530 C.ar   47  G47         0.3023
    565  O6        -2.1990    8.5740   31.1440 O.2    47  G47        -0.2633
    566  N7        -2.3580    6.6820   28.6890 N.ar   47  G47        -0.2173
    567  C8        -2.4560    6.4530   27.4040 C.ar   47  G47         0.1817
    568  N9        -2.5720    7.6060   26.6710 N.ar   47  G47        -0.2693
    569  OP1       -1.3850    2.0890   24.8920 O.2    47  G47        -0.5172
    570  OP2       -0.1660    2.7570   27.0340 O.co2  47  G47        -0.4373
    571  P          1.9590    7.8060   23.8620 P.3    48  C48         0.2141
    572  C5'        1.5890   10.4010   23.8430 C.3    48  C48         0.1812
    573  O5'        1.8150    9.2150   24.5920 O.3    48  C48        -0.3114
    574  C4'        1.5010   11.6140   24.7360 C.3    48  C48         0.1773
    575  O4'        0.4620   11.4160   25.7270 O.3    48  C48        -0.3307
    576  C3'        2.7410   11.9380   25.5660 C.3    48  C48         0.1860
    577  O3'        3.7430   12.6190   24.8320 O.3    48  C48        -0.3112
    578  C2'        2.1570   12.7620   26.7050 C.3    48  C48         0.2309
    579  O2'        1.8720   14.0820   26.2710 O.3    48  C48        -0.2156
    580  C1'        0.8290   12.0420   26.9400 C.3    48  C48         0.2420
    581  N1         0.9350   11.0100   28.0010 N.ar   48  C48        -0.2535
    582  C2         0.8770   11.4550   29.3240 C.ar   48  C48         0.3532
    583  O2         0.7410   12.6670   29.5270 O.2    48  C48        -0.2443
    584  N3         0.9720   10.5810   30.3400 N.ar   48  C48        -0.1739
    585  C4         1.1130    9.2880   30.0620 C.ar   48  C48         0.1759
    586  N4         1.1970    8.4450   31.0970 N.pl3  48  C48        -0.1070
    587  C5         1.1810    8.8010   28.7200 C.ar   48  C48         0.0566
    588  C6         1.0880    9.6840   27.7210 C.ar   48  C48         0.0850
    589  OP1        2.7950    7.9470   22.6530 O.2    48  C48        -0.5172
    590  OP2        2.3160    6.7550   24.8520 O.co2  48  C48        -0.4373
    591  P          5.3000   12.3820   25.1640 P.3    49  U49         0.2141
    592  C5'        5.3540   14.6560   26.4350 C.3    49  U49         0.1812
    593  O5'        5.5140   13.2510   26.4720 O.3    49  U49        -0.3114
    594  C4'        5.2460   15.2330   27.8200 C.3    49  U49         0.1773
    595  O4'        4.1570   14.6020   28.5350 O.3    49  U49        -0.3307
    596  C3'        6.4360   15.0100   28.7310 C.3    49  U49         0.1860
    597  O3'        7.5170   15.8820   28.4400 O.3    49  U49        -0.3112
    598  C2'        5.8060   15.2220   30.1100 C.3    49  U49         0.2309
    599  O2'        5.5640   16.6040   30.3490 O.3    49  U49        -0.2156
    600  C1'        4.4550   14.5530   29.9110 C.3    49  U49         0.2420
    601  N1         4.4410   13.1460   30.3470 N.ar   49  U49        -0.2534
    602  C2         4.3180   12.8770   31.6930 C.ar   49  U49         0.3546
    603  O2         4.2540   13.7600   32.5270 O.2    49  U49        -0.2443
    604  N3         4.2810   11.5540   32.0440 N.ar   49  U49        -0.1530
    605  C4         4.3370   10.4820   31.1810 C.ar   49  U49         0.2846
    606  O4         4.2880    9.3360   31.6160 O.2    49  U49        -0.2650
    607  C5         4.4510   10.8340   29.8060 C.ar   49  U49         0.0814
    608  C6         4.4880   12.1230   29.4430 C.ar   49  U49         0.0870
    609  OP1        6.0770   12.9600   24.0460 O.2    49  U49        -0.5172
    610  OP2        5.4750   10.9390   25.4810 O.co2  49  U49        -0.4373
    611  P          9.0280   15.4740   28.8030 P.3    50  A50         0.2141
    612  C5'        8.9040   16.8050   31.0700 C.3    50  A50         0.1812
    613  O5'        9.0370   15.5600   30.3960 O.3    50  A50        -0.3114
    614  C4'        9.2160   16.6590   32.5390 C.3    50  A50         0.1773
    615  O4'        8.0880   16.0400   33.2140 O.3    50  A50        -0.3307
    616  C3'       10.3940   15.7540   32.8790 C.3    50  A50         0.1860
    617  O3'       11.6420   16.4120   32.7950 O.3    50  A50        -0.3112
    618  C2'       10.0540   15.2880   34.2800 C.3    50  A50         0.2309
    619  O2'       10.3230   16.3110   35.2200 O.3    50  A50        -0.2156
    620  C1'        8.5440   15.1140   34.1730 C.3    50  A50         0.2408
    621  N1         7.1100   10.3420   35.6040 N.ar   50  A50        -0.2040
    622  C2         7.3810   11.4510   36.2910 C.ar   50  A50         0.2016
    623  N3         7.7510   12.6470   35.8520 N.ar   50  A50        -0.2048
    624  C4         7.8450   12.6700   34.5160 C.ar   50  A50         0.1692
    625  C5         7.5970   11.6120   33.6660 C.ar   50  A50         0.1518
    626  C6         7.2130   10.3860   34.2630 C.ar   50  A50         0.1919
    627  N6         6.9440    9.2530   33.6010 N.pl3  50  A50        -0.1054
    628  N7         7.7840   12.0090   32.3430 N.ar   50  A50        -0.2193
    629  C8         8.1300   13.2740   32.4330 C.ar   50  A50         0.1816
    630  N9         8.1800   13.7500   33.7220 N.ar   50  A50        -0.2693
    631  OP1        9.8990   16.5220   28.2360 O.2    50  A50        -0.5172
    632  OP2        9.2380   14.0630   28.3680 O.co2  50  A50        -0.4373
    633  P         13.0300   15.5770   32.8260 P.3    51  C51         0.2141
    634  C5'       13.5260   15.4370   35.3790 C.3    51  C51         0.1812
    635  O5'       12.9860   14.8330   34.2230 O.3    51  C51        -0.3114
    636  C4'       13.3020   14.5800   36.5870 C.3    51  C51         0.1773
    637  O4'       11.9340   14.0930   36.5910 O.3    51  C51        -0.3307
    638  C3'       14.1240   13.3110   36.6530 C.3    51  C51         0.1860
    639  O3'       15.4430   13.5310   37.0950 O.3    51  C51        -0.3112
    640  C2'       13.3000   12.4450   37.5850 C.3    51  C51         0.2309
    641  O2'       13.4240   12.8990   38.9250 O.3    51  C51        -0.2156
    642  C1'       11.8990   12.7770   37.0990 C.3    51  C51         0.2420
    643  N1        11.4700   11.8810   36.0190 N.ar   51  C51        -0.2535
    644  C2        10.9820   10.6320   36.3810 C.ar   51  C51         0.3532
    645  O2        10.9500   10.3690   37.5920 O.2    51  C51        -0.2443
    646  N3        10.5710    9.7740   35.4100 N.ar   51  C51        -0.1739
    647  C4        10.6300   10.1520   34.1320 C.ar   51  C51         0.1759
    648  N4        10.2110    9.2970   33.2090 N.pl3  51  C51        -0.1070
    649  C5        11.1360   11.4230   33.7360 C.ar   51  C51         0.0566
    650  C6        11.5370   12.2540   34.7060 C.ar   51  C51         0.0850
    651  OP1       14.1270   16.5750   32.8340 O.3    51  C51        -0.4373
    652  OP2       12.9830   14.5790   31.7230 O.co2  51  C51        -0.5172
    653  P         16.6410   12.6470   36.5010 P.3    52  U52         0.2141
    654  C5'       16.1450   10.8250   38.2780 C.3    52  U52         0.1812
    655  O5'       16.2110   11.1850   36.9170 O.3    52  U52        -0.3114
    656  C4'       15.7910    9.3800   38.4380 C.3    52  U52         0.1773
    657  O4'       14.4080    9.1590   38.0350 O.3    52  U52        -0.3307
    658  C3'       16.5630    8.4040   37.5770 C.3    52  U52         0.1860
    659  O3'       17.8660    8.1320   38.0640 O.3    52  U52        -0.3112
    660  C2'       15.6290    7.2030   37.5890 C.3    52  U52         0.2309
    661  O2'       15.6220    6.5840   38.8650 O.3    52  U52        -0.2156
    662  C1'       14.2980    7.9030   37.4060 C.3    52  U52         0.2420
    663  N1        14.0330    8.1270   36.0010 N.ar   52  U52        -0.2534
    664  C2        13.4240    7.0890   35.3600 C.ar   52  U52         0.3546
    665  O2        13.1040    6.0690   35.9610 O.2    52  U52        -0.2443
    666  N3        13.1990    7.3230   34.0200 N.ar   52  U52        -0.1530
    667  C4        13.5280    8.4560   33.3030 C.ar   52  U52         0.2846
    668  O4        13.2680    8.5240   32.0970 O.2    52  U52        -0.2650
    669  C5        14.1630    9.4740   34.0800 C.ar   52  U52         0.0814
    670  C6        14.4020    9.2790   35.3730 C.ar   52  U52         0.0870
    671  OP1       17.8780   13.0370   37.2370 O.3    52  U52        -0.4373
    672  OP2       16.6060   12.7920   35.0250 O.co2  52  U52        -0.5172
    673  P         18.9890    7.4790   37.1000 P.3    53  G53         0.2141
    674  C5'       17.8910    5.1440   37.5360 C.3    53  G53         0.1812
    675  O5'       18.3040    6.1380   36.6130 O.3    53  G53        -0.3114
    676  C4'       17.3020    3.9630   36.8120 C.3    53  G53         0.1773
    677  O4'       16.0660    4.3590   36.1600 O.3    53  G53        -0.3307
    678  C3'       18.1520    3.3980   35.6830 C.3    53  G53         0.1860
    679  O3'       19.1520    2.5070   36.1400 O.3    53  G53        -0.3112
    680  C2'       17.1250    2.7460   34.7770 C.3    53  G53         0.2309
    681  O2'       16.7430    1.4870   35.2990 O.3    53  G53        -0.2156
    682  C1'       15.9450    3.7110   34.9110 C.3    53  G53         0.2408
    683  N1        14.4160    5.2300   30.2210 N.ar   53  G53        -0.1709
    684  C2        14.1840    4.0580   30.8680 C.ar   53  G53         0.2606
    685  N2        13.4490    3.2130   30.1580 N.pl3  53  G53        -0.0859
    686  N3        14.6150    3.7440   32.0850 N.ar   53  G53        -0.1918
    687  C4        15.3430    4.7370   32.6270 C.ar   53  G53         0.1723
    688  C5        15.6520    5.9550   32.0550 C.ar   53  G53         0.1748
    689  C6        15.1670    6.2600   30.7500 C.ar   53  G53         0.3023
    690  O6        15.3270    7.2700   30.0590 O.2    53  G53        -0.2633
    691  N7        16.4290    6.7080   32.9180 N.ar   53  G53        -0.2173
    692  C8        16.5760    5.9520   33.9700 C.ar   53  G53         0.1817
    693  N9        15.9480    4.7430   33.8610 N.ar   53  G53        -0.2693
    694  OP1       20.1470    7.1710   37.9580 O.3    53  G53        -0.4373
    695  OP2       19.1820    8.3920   35.9360 O.co2  53  G53        -0.5172
    696  P         20.3450    2.0500   35.1660 P.3    54  A54         0.2141
    697  C5'       21.4150    4.0970   36.3770 C.3    54  A54         0.1812
    698  O5'       21.3380    3.2840   35.2200 O.3    54  A54        -0.3114
    699  C4'       22.8430    4.3660   36.7710 C.3    54  A54         0.1773
    700  O4'       23.4750    3.1480   37.2460 O.3    54  A54        -0.3307
    701  C3'       23.7640    4.8300   35.6680 C.3    54  A54         0.1860
    702  O3'       23.5820    6.1900   35.3440 O.3    54  A54        -0.3112
    703  C2'       25.1340    4.5160   36.2490 C.3    54  A54         0.2309
    704  O2'       25.4970    5.4780   37.2270 O.3    54  A54        -0.2156
    705  C1'       24.8550    3.1940   36.9630 C.3    54  A54         0.2408
    706  N1        28.6640    0.1220   35.4560 N.ar   54  A54        -0.2040
    707  C2        28.6190    1.1700   36.2850 C.ar   54  A54         0.2016
    708  N3        27.5870    1.9240   36.6300 N.ar   54  A54        -0.2048
    709  C4        26.4690    1.5050   36.0110 C.ar   54  A54         0.1692
    710  C5        26.3480    0.4520   35.1250 C.ar   54  A54         0.1518
    711  C6        27.5250   -0.2690   34.8450 C.ar   54  A54         0.1919
    712  N6        27.5780   -1.3130   34.0190 N.pl3  54  A54        -0.1054
    713  N7        25.0340    0.3250   34.6890 N.ar   54  A54        -0.2193
    714  C8        24.3970    1.2870   35.3070 C.ar   54  A54         0.1816
    715  N9        25.2060    2.0350   36.1260 N.ar   54  A54        -0.2693
    716  OP1       19.7780    1.9290   33.8020 O.2    54  A54        -0.5172
    717  OP2       20.9770    0.8570   35.7880 O.co2  54  A54        -0.4373
    718  P         23.9950    6.7250   33.8990 P.3    55  C55         0.2141
    719  C5'       26.3990    7.7890   33.6770 C.3    55  C55         0.1812
    720  O5'       25.5860    6.6500   33.9440 O.3    55  C55        -0.3114
    721  C4'       27.8460    7.5070   34.0080 C.3    55  C55         0.1773
    722  O4'       27.9160    6.2740   34.7940 O.3    55  C55        -0.3307
    723  C3'       28.7760    7.2420   32.8160 C.3    55  C55         0.1860
    724  O3'       29.3380    8.4100   32.2410 O.3    55  C55        -0.3112
    725  C2'       29.8300    6.3280   33.4270 C.3    55  C55         0.2309
    726  O2'       30.7200    7.0700   34.2470 O.3    55  C55        -0.2156
    727  C1'       28.9670    5.4580   34.3240 C.3    55  C55         0.2420
    728  N1        28.3850    4.3350   33.5500 N.ar   55  C55        -0.2535
    729  C2        29.1000    3.1440   33.4760 C.ar   55  C55         0.3532
    730  O2        30.1590    3.0690   34.1080 O.2    55  C55        -0.2443
    731  N3        28.6210    2.1210   32.7410 N.ar   55  C55        -0.1739
    732  C4        27.4840    2.2770   32.0760 C.ar   55  C55         0.1759
    733  N4        27.0330    1.2520   31.3640 N.pl3  55  C55        -0.1070
    734  C5        26.7370    3.4790   32.1090 C.ar   55  C55         0.0566
    735  C6        27.2260    4.4780   32.8410 C.ar   55  C55         0.0850
    736  OP1       23.5550    8.1350   33.8160 O.3    55  C55        -0.4373
    737  OP2       23.4760    5.7580   32.9140 O.co2  55  C55        -0.5172
    738  P         28.4500    9.4810   31.4390 P.3    56  C56         0.2141
    739  C5'       27.0620    9.3200   29.2270 C.3    56  C56         0.1812
    740  O5'       27.7130    8.6360   30.3050 O.3    56  C56        -0.3114
    741  C4'       25.8420    8.5860   28.7060 C.3    56  C56         0.1773
    742  O4'       26.2590    7.3370   28.0990 O.3    56  C56        -0.3307
    743  C3'       24.7960    8.2170   29.7480 C.3    56  C56         0.1860
    744  O3'       23.5160    8.1570   29.1210 O.3    56  C56        -0.3112
    745  C2'       25.2200    6.8110   30.1480 C.3    56  C56         0.2309
    746  O2'       24.1850    6.0320   30.7070 O.3    56  C56        -0.2156
    747  C1'       25.7030    6.2450   28.8080 C.3    56  C56         0.2420
    748  N1        26.7550    5.2130   28.9300 N.ar   56  C56        -0.2535
    749  C2        26.6900    4.1060   28.0880 C.ar   56  C56         0.3532
    750  O2        25.7390    4.0380   27.3030 O.2    56  C56        -0.2443
    751  N3        27.6510    3.1510   28.1550 N.ar   56  C56        -0.1739
    752  C4        28.6480    3.2820   29.0250 C.ar   56  C56         0.1759
    753  N4        29.5550    2.3160   29.0620 N.pl3  56  C56        -0.1070
    754  C5        28.7570    4.4060   29.8950 C.ar   56  C56         0.0566
    755  C6        27.8000    5.3450   29.8060 C.ar   56  C56         0.0850
    756  OP1       29.3950   10.4240   30.8080 O.2    56  C56        -0.5172
    757  OP2       27.4500   10.0150   32.3910 O.co2  56  C56        -0.4373
    758  P         22.4450    9.3310   29.3410 P.3    57  C57         0.2141
    759  C5'       23.6600   11.0190   27.7370 C.3    57  C57         0.1812
    760  O5'       22.5490   10.1660   27.9890 O.3    57  C57        -0.3114
    761  C4'       23.9470   11.1320   26.2620 C.3    57  C57         0.1773
    762  O4'       24.6900    9.9650   25.8120 O.3    57  C57        -0.3307
    763  C3'       22.7290   11.1820   25.3490 C.3    57  C57         0.1860
    764  O3'       22.1620   12.4780   25.2600 O.3    57  C57        -0.3112
    765  C2'       23.2770   10.6590   24.0240 C.3    57  C57         0.2309
    766  O2'       23.9550   11.6860   23.3160 O.3    57  C57        -0.2156
    767  C1'       24.3080    9.6240   24.4950 C.3    57  C57         0.2420
    768  N1        23.7410    8.2610   24.5100 N.ar   57  C57        -0.2535
    769  C2        23.3350    7.6800   23.2990 C.ar   57  C57         0.3532
    770  O2        23.4930    8.3160   22.2400 O.2    57  C57        -0.2443
    771  N3        22.7800    6.4390   23.3100 N.ar   57  C57        -0.1739
    772  C4        22.6330    5.7850   24.4670 C.ar   57  C57         0.1759
    773  N4        22.0870    4.5630   24.4440 N.pl3  57  C57        -0.1070
    774  C5        23.0390    6.3640   25.7110 C.ar   57  C57         0.0566
    775  C6        23.5810    7.5900   25.6900 C.ar   57  C57         0.0850
    776  OP1       22.9220   10.1520   30.4850 O.3    57  C57        -0.4373
    777  OP2       21.1120    8.6910   29.4290 O.co2  57  C57        -0.5172
    778  P         20.6580   12.6870   24.7160 P.3    58  C58         0.2141
    779  C5'       20.8800   12.1450   22.1520 C.3    58  C58         0.1812
    780  O5'       20.5900   11.7000   23.4690 O.3    58  C58        -0.3114
    781  C4'       20.2850   11.2160   21.1230 C.3    58  C58         0.1773
    782  O4'       20.8750    9.8910   21.2590 O.3    58  C58        -0.3307
    783  C3'       18.7910   10.9680   21.2510 C.3    58  C58         0.1860
    784  O3'       18.0070   11.9950   20.6740 O.3    58  C58        -0.3112
    785  C2'       18.6160    9.6070   20.5830 C.3    58  C58         0.2309
    786  O2'       18.6430    9.7330   19.1680 O.3    58  C58        -0.2156
    787  C1'       19.8930    8.8970   21.0220 C.3    58  C58         0.2420
    788  N1        19.7000    8.0980   22.2700 N.ar   58  C58        -0.2535
    789  C2        19.1990    6.7890   22.1830 C.ar   58  C58         0.3532
    790  O2        18.9040    6.3310   21.0620 O.2    58  C58        -0.2443
    791  N3        19.0380    6.0550   23.3210 N.ar   58  C58        -0.1739
    792  C4        19.3610    6.5720   24.5100 C.ar   58  C58         0.1759
    793  N4        19.1970    5.8260   25.6010 N.pl3  58  C58        -0.1070
    794  C5        19.8780    7.8930   24.6270 C.ar   58  C58         0.0566
    795  C6        20.0300    8.6020   23.4990 C.ar   58  C58         0.0850
    796  OP1       20.5560   14.0930   24.2560 O.2    58  C58        -0.5172
    797  OP2       19.7310   12.2150   25.7780 O.co2  58  C58        -0.4373
    798  P         16.4340   12.0860   20.9890 P.3    59  G59         0.2141
    799  C5'       14.6530   10.1520   20.9670 C.3    59  G59         0.1812
    800  O5'       15.8710   10.6890   20.4560 O.3    59  G59        -0.3114
    801  C4'       14.6010    8.6460   20.8310 C.3    59  G59         0.1773
    802  O4'       15.7230    8.0530   21.5240 O.3    59  G59        -0.3307
    803  C3'       13.3860    7.9640   21.4380 C.3    59  G59         0.1860
    804  O3'       12.2610    7.9830   20.5800 O.3    59  G59        -0.3112
    805  C2'       13.8900    6.5580   21.7500 C.3    59  G59         0.2309
    806  O2'       13.8050    5.7250   20.6050 O.3    59  G59        -0.2156
    807  C1'       15.3630    6.8020   22.0490 C.3    59  G59         0.2408
    808  N1        15.8770    3.9830   26.2870 N.ar   59  G59        -0.1709
    809  C2        15.4610    3.6040   25.0410 C.ar   59  G59         0.2606
    810  N2        15.1640    2.3060   24.9130 N.pl3  59  G59        -0.0859
    811  N3        15.3430    4.4240   24.0090 N.ar   59  G59        -0.1918
    812  C4        15.6930    5.6900   24.3300 C.ar   59  G59         0.1723
    813  C5        16.1130    6.1720   25.5530 C.ar   59  G59         0.1748
    814  C6        16.2270    5.2720   26.6500 C.ar   59  G59         0.3023
    815  O6        16.5840    5.4790   27.8110 O.2    59  G59        -0.2633
    816  N7        16.3750    7.5320   25.4680 N.ar   59  G59        -0.2173
    817  C8        16.1140    7.8460   24.2300 C.ar   59  G59         0.1817
    818  N9        15.6760    6.7850   23.4890 N.ar   59  G59        -0.2693
    819  OP1       15.8960   13.1930   20.1670 O.2    59  G59        -0.5172
    820  OP2       16.2800   12.1530   22.4680 O.co2  59  G59        -0.4373
    821  P         10.7830    7.9740   21.1960 P.3    60  C60         0.2141
    822  C5'       10.9970    5.3860   21.5360 C.3    60  C60         0.1812
    823  O5'       10.7950    6.6690   22.0990 O.3    60  C60        -0.3114
    824  C4'       10.9770    4.3280   22.6030 C.3    60  C60         0.1773
    825  O4'       12.1640    4.4390   23.4130 O.3    60  C60        -0.3307
    826  C3'        9.8310    4.4210   23.5930 C.3    60  C60         0.1860
    827  O3'        8.6580    3.7890   23.1140 O.3    60  C60        -0.3112
    828  C2'       10.3980    3.7630   24.8490 C.3    60  C60         0.2309
    829  O2'       10.2480    2.3570   24.7830 O.3    60  C60        -0.2156
    830  C1'       11.8820    4.0720   24.7410 C.3    60  C60         0.2420
    831  N1        12.3330    5.1540   25.6560 N.ar   60  C60        -0.2535
    832  C2        12.8770    4.7520   26.8830 C.ar   60  C60         0.3532
    833  O2        12.8980    3.5500   27.1680 O.2    60  C60        -0.2443
    834  N3        13.3580    5.6690   27.7410 N.ar   60  C60        -0.1739
    835  C4        13.3300    6.9560   27.4010 C.ar   60  C60         0.1759
    836  N4        13.8200    7.8130   28.2970 N.pl3  60  C60        -0.1070
    837  C5        12.7980    7.4100   26.1540 C.ar   60  C60         0.0566
    838  C6        12.3230    6.4820   25.3120 C.ar   60  C60         0.0850
    839  OP1        9.8330    7.8040   20.0690 O.2    60  C60        -0.5172
    840  OP2       10.6590    9.1780   22.0570 O.co2  60  C60        -0.4373
    841  P          7.3210    4.6320   22.8540 P.3    61  C61         0.2141
    842  C5'        6.6100    3.2750   20.7420 C.3    61  C61         0.1812
    843  O5'        7.1110    4.4790   21.2900 O.3    61  C61        -0.3114
    844  C4'        7.3270    2.9190   19.4720 C.3    61  C61         0.1773
    845  O4'        8.7410    2.7250   19.7460 O.3    61  C61        -0.3307
    846  C3'        6.9020    1.6210   18.8100 C.3    61  C61         0.1860
    847  O3'        5.7070    1.7440   18.0620 O.3    61  C61        -0.3112
    848  C2'        8.1310    1.2680   17.9830 C.3    61  C61         0.2309
    849  O2'        8.2290    2.1040   16.8380 O.3    61  C61        -0.2156
    850  C1'        9.2410    1.6670   18.9530 C.3    61  C61         0.2420
    851  N1         9.6200    0.5470   19.8520 N.ar   61  C61        -0.2535
    852  C2        10.2410   -0.5840   19.3070 C.ar   61  C61         0.3532
    853  O2        10.4670   -0.6300   18.0880 O.2    61  C61        -0.2443
    854  N3        10.5800   -1.6030   20.1240 N.ar   61  C61        -0.1739
    855  C4        10.3350   -1.5300   21.4300 C.ar   61  C61         0.1759
    856  N4        10.7060   -2.5710   22.1770 N.pl3  61  C61        -0.1070
    857  C5         9.7040   -0.3970   22.0220 C.ar   61  C61         0.0566
    858  C6         9.3680    0.6050   21.2010 C.ar   61  C61         0.0850
    859  OP1        7.6230    6.0440   23.1880 O.2    61  C61        -0.5172
    860  OP2        6.2180    3.9420   23.5750 O.co2  61  C61        -0.4373
    861  P          4.4580    0.7690   18.3670 P.3    62  U62         0.2141
    862  C5'        5.1800   -0.0170   15.9890 C.3    62  U62         0.1812
    863  O5'        4.6440   -0.3540   17.2590 O.3    62  U62        -0.3114
    864  C4'        5.7660   -1.2120   15.2940 C.3    62  U62         0.1773
    865  O4'        7.1030   -1.4670   15.7920 O.3    62  U62        -0.3307
    866  C3'        5.0410   -2.5260   15.5070 C.3    62  U62         0.1860
    867  O3'        3.8920   -2.6530   14.6940 O.3    62  U62        -0.3112
    868  C2'        6.1330   -3.5490   15.2080 C.3    62  U62         0.2309
    869  O2'        6.3500   -3.6740   13.8070 O.3    62  U62        -0.2156
    870  C1'        7.3500   -2.8590   15.8150 C.3    62  U62         0.2420
    871  N1         7.5660   -3.2660   17.2060 N.ar   62  U62        -0.2534
    872  C2         8.3130   -4.4040   17.4260 C.ar   62  U62         0.3546
    873  O2         8.7930   -5.0680   16.5210 O.2    62  U62        -0.2443
    874  N3         8.4880   -4.7300   18.7440 N.ar   62  U62        -0.1530
    875  C4         7.9940   -4.0420   19.8280 C.ar   62  U62         0.2846
    876  O4         8.2210   -4.4570   20.9650 O.2    62  U62        -0.2650
    877  C5         7.2340   -2.8730   19.5050 C.ar   62  U62         0.0814
    878  C6         7.0470   -2.5300   18.2340 C.ar   62  U62         0.0870
    879  OP1        3.2200    1.5410   18.1060 O.2    62  U62        -0.5172
    880  OP2        4.6570    0.1890   19.7200 O.co2  62  U62        -0.4373
    881  P          2.5640   -3.3550   15.2670 P.3    63  U63         0.2141
    882  C5'        3.4950   -5.5090   14.1330 C.3    63  U63         0.1812
    883  O5'        2.9860   -4.8800   15.2910 O.3    63  U63        -0.3114
    884  C4'        3.9450   -6.9020   14.4400 C.3    63  U63         0.1773
    885  O4'        5.2010   -6.8560   15.1650 O.3    63  U63        -0.3307
    886  C3'        3.0410   -7.6980   15.3630 C.3    63  U63         0.1860
    887  O3'        1.9020   -8.2380   14.7200 O.3    63  U63        -0.3112
    888  C2'        3.9940   -8.7420   15.9020 C.3    63  U63         0.2309
    889  O2'        4.3040   -9.6980   14.9000 O.3    63  U63        -0.2156
    890  C1'        5.2280   -7.8810   16.1310 C.3    63  U63         0.2420
    891  N1         5.2130   -7.2570   17.4620 N.ar   63  U63        -0.2534
    892  C2         5.7970   -7.9700   18.4740 C.ar   63  U63         0.3546
    893  O2         6.2980   -9.0560   18.2600 O.2    63  U63        -0.2443
    894  N3         5.7690   -7.3760   19.7080 N.ar   63  U63        -0.1530
    895  C4         5.2240   -6.1460   20.0000 C.ar   63  U63         0.2846
    896  O4         5.2740   -5.7150   21.1500 O.2    63  U63        -0.2650
    897  C5         4.6300   -5.4690   18.8910 C.ar   63  U63         0.0814
    898  C6         4.6380   -6.0320   17.6850 C.ar   63  U63         0.0870
    899  OP1        1.4790   -3.1390   14.2650 O.2    63  U63        -0.5172
    900  OP2        2.3530   -2.8670   16.6590 O.co2  63  U63        -0.4373
    901  P          0.7590   -8.9550   15.5940 P.3    64  C64         0.2141
    902  C5'        1.3010  -11.5270   15.5360 C.3    64  C64         0.1812
    903  O5'        1.4980  -10.2610   16.1490 O.3    64  C64        -0.3114
    904  C4'        1.6810  -12.6670   16.4530 C.3    64  C64         0.1773
    905  O4'        2.9660  -12.4040   17.0670 O.3    64  C64        -0.3307
    906  C3'        0.7830  -12.9010   17.6450 C.3    64  C64         0.1860
    907  O3'       -0.4170  -13.5550   17.3250 O.3    64  C64        -0.3112
    908  C2'        1.6850  -13.7020   18.5590 C.3    64  C64         0.2309
    909  O2'        1.8450  -15.0140   18.0590 O.3    64  C64        -0.2156
    910  C1'        2.9950  -12.9570   18.3670 C.3    64  C64         0.2420
    911  N1         3.1270  -11.8580   19.3400 N.ar   64  C64        -0.2535
    912  C2         3.6220  -12.1410   20.6170 C.ar   64  C64         0.3532
    913  O2         3.9600  -13.3030   20.8970 O.2    64  C64        -0.2443
    914  N3         3.7130  -11.1390   21.5190 N.ar   64  C64        -0.1739
    915  C4         3.3380   -9.9050   21.1870 C.ar   64  C64         0.1759
    916  N4         3.4580   -8.9520   22.1100 N.pl3  64  C64        -0.1070
    917  C5         2.8300   -9.5910   19.8950 C.ar   64  C64         0.0566
    918  C6         2.7430  -10.5880   19.0100 C.ar   64  C64         0.0850
    919  OP1       -0.3200   -9.3440   14.6660 O.2    64  C64        -0.5172
    920  OP2        0.4400   -8.0420   16.7200 O.co2  64  C64        -0.4373
    921  P         -1.7140  -13.2830   18.2240 P.3    65  A65         0.2141
    922  C5'       -1.2520  -15.3830   19.7190 C.3    65  A65         0.1812
    923  O5'       -1.3410  -13.9760   19.6120 O.3    65  A65        -0.3114
    924  C4'       -0.6860  -15.8080   21.0480 C.3    65  A65         0.1773
    925  O4'        0.5600  -15.1200   21.2910 O.3    65  A65        -0.3307
    926  C3'       -1.5160  -15.4840   22.2840 C.3    65  A65         0.1860
    927  O3'       -2.5910  -16.3890   22.4840 O.3    65  A65        -0.3112
    928  C2'       -0.4640  -15.5530   23.3740 C.3    65  A65         0.2309
    929  O2'       -0.1050  -16.9040   23.6180 O.3    65  A65        -0.2156
    930  C1'        0.7110  -14.8860   22.6730 C.3    65  A65         0.2408
    931  N1         1.7730  -11.0180   25.9650 N.ar   65  A65        -0.2040
    932  C2         1.8100  -12.3540   26.0980 C.ar   65  A65         0.2016
    933  N3         1.5220  -13.3120   25.2170 N.ar   65  A65        -0.2048
    934  C4         1.1430  -12.7670   24.0460 C.ar   65  A65         0.1692
    935  C5         1.0500  -11.4110   23.7590 C.ar   65  A65         0.1518
    936  C6         1.3960  -10.5020   24.7770 C.ar   65  A65         0.1919
    937  N6         1.3760   -9.1760   24.6410 N.pl3  65  A65        -0.1054
    938  N7         0.6290  -11.2210   22.4530 N.ar   65  A65        -0.2193
    939  C8         0.4820  -12.4410   21.9870 C.ar   65  A65         0.1816
    940  N9         0.7590  -13.4280   22.9000 N.ar   65  A65        -0.2693
    941  OP1       -2.8400  -14.0030   17.5850 O.2    65  A65        -0.5172
    942  OP2       -1.8120  -11.8120   18.4080 O.co2  65  A65        -0.4373
    943  P         -3.9190  -15.9340   23.2690 P.3    66  A66         0.2141
    944  C5'       -3.2640  -16.7720   25.6460 C.3    66  A66         0.1812
    945  O5'       -3.3990  -15.6870   24.7480 O.3    66  A66        -0.3114
    946  C4'       -2.7940  -16.3200   27.0010 C.3    66  A66         0.1773
    947  O4'       -1.6130  -15.4890   26.8720 O.3    66  A66        -0.3307
    948  C3'       -3.7520  -15.4510   27.7890 C.3    66  A66         0.1860
    949  O3'       -4.7760  -16.1930   28.3990 O.3    66  A66        -0.3112
    950  C2'       -2.8200  -14.7920   28.7860 C.3    66  A66         0.2309
    951  O2'       -2.4690  -15.7110   29.8120 O.3    66  A66        -0.2156
    952  C1'       -1.5860  -14.5440   27.9210 C.3    66  A66         0.2408
    953  N1        -0.9050   -9.5130   28.7470 N.ar   66  A66        -0.2040
    954  C2        -0.8130  -10.5930   29.5440 C.ar   66  A66         0.2016
    955  N3        -0.9920  -11.8830   29.2770 N.ar   66  A66        -0.2048
    956  C4        -1.3160  -12.0250   27.9850 C.ar   66  A66         0.1692
    957  C5        -1.4500  -11.0220   27.0340 C.ar   66  A66         0.1518
    958  C6        -1.2310   -9.6930   27.4490 C.ar   66  A66         0.1919
    959  N6        -1.3220   -8.6200   26.6530 N.pl3  66  A66        -0.1054
    960  N7        -1.7990  -11.5650   25.8070 N.ar   66  A66        -0.2193
    961  C8        -1.8840  -12.8570   26.0380 C.ar   66  A66         0.1816
    962  N9        -1.5970  -13.1990   27.3340 N.ar   66  A66        -0.2693
    963  OP1       -4.8360  -17.0920   23.2540 O.3    66  A66        -0.4373
    964  OP2       -4.3750  -14.6520   22.6690 O.co2  66  A66        -0.5172
    965  P         -6.2590  -15.5940   28.5020 P.3    67  A67         0.2141
    966  C5'       -5.7720  -14.9380   31.0030 C.3    67  A67         0.1812
    967  O5'       -6.1180  -14.5250   29.6820 O.3    67  A67        -0.3114
    968  C4'       -5.1070  -13.8280   31.7970 C.3    67  A67         0.1773
    969  O4'       -4.0180  -13.2360   31.0260 O.3    67  A67        -0.3307
    970  C3'       -5.9760  -12.6300   32.1550 C.3    67  A67         0.1860
    971  O3'       -6.8650  -12.8700   33.2400 O.3    67  A67        -0.3112
    972  C2'       -4.9310  -11.5500   32.4290 C.3    67  A67         0.2309
    973  O2'       -4.3070  -11.7550   33.6860 O.3    67  A67        -0.2156
    974  C1'       -3.9080  -11.8560   31.3400 C.3    67  A67         0.2408
    975  N1        -3.5560   -7.1930   29.2340 N.ar   67  A67        -0.2040
    976  C2        -3.2630   -7.6830   30.4450 C.ar   67  A67         0.2016
    977  N3        -3.3860   -8.9210   30.9210 N.ar   67  A67        -0.2048
    978  C4        -3.8900   -9.7290   29.9830 C.ar   67  A67         0.1692
    979  C5        -4.2530   -9.3750   28.6990 C.ar   67  A67         0.1518
    980  C6        -4.0720   -8.0310   28.3160 C.ar   67  A67         0.1919
    981  N6        -4.3710   -7.5180   27.1180 N.pl3  67  A67        -0.1054
    982  N7        -4.7370  -10.4790   28.0340 N.ar   67  A67        -0.2193
    983  C8        -4.6640  -11.4530   28.9150 C.ar   67  A67         0.1816
    984  N9        -4.1490  -11.0640   30.1210 N.ar   67  A67        -0.2693
    985  OP1       -7.1400  -16.7010   28.9220 O.3    67  A67        -0.4373
    986  OP2       -6.5490  -14.9100   27.2240 O.co2  67  A67        -0.5172
    987  P         -8.3650  -12.2620   33.2020 P.3    68  C68         0.2141
    988  C5'       -7.7540  -10.2790   34.7890 C.3    68  C68         0.1812
    989  O5'       -8.1220  -10.7190   33.4950 O.3    68  C68        -0.3114
    990  C4'       -7.1690   -8.8950   34.7460 C.3    68  C68         0.1773
    991  O4'       -6.2470   -8.7960   33.6350 O.3    68  C68        -0.3307
    992  C3'       -8.1430   -7.7630   34.4860 C.3    68  C68         0.1860
    993  O3'       -8.8970   -7.3980   35.6200 O.3    68  C68        -0.3112
    994  C2'       -7.2210   -6.6660   33.9830 C.3    68  C68         0.2309
    995  O2'       -6.4810   -6.1080   35.0560 O.3    68  C68        -0.2156
    996  C1'       -6.2620   -7.4780   33.1250 C.3    68  C68         0.2420
    997  N1        -6.6680   -7.5030   31.7190 N.ar   68  C68        -0.2535
    998  C2        -6.3160   -6.3570   31.0390 C.ar   68  C68         0.3532
    999  O2        -5.7370   -5.4940   31.7000 O.2    68  C68        -0.2443
   1000  N3        -6.5980   -6.1980   29.7310 N.ar   68  C68        -0.1739
   1001  C4        -7.2180   -7.1780   29.0910 C.ar   68  C68         0.1759
   1002  N4        -7.4590   -6.9590   27.7960 N.pl3  68  C68        -0.1070
   1003  C5        -7.5970   -8.3950   29.7490 C.ar   68  C68         0.0566
   1004  C6        -7.3180   -8.5290   31.0540 C.ar   68  C68         0.0850
   1005  OP1       -9.1200  -12.8760   34.3230 O.3    68  C68        -0.4373
   1006  OP2       -8.8850  -12.4320   31.8200 O.co2  68  C68        -0.5172
   1007  P        -10.4270   -6.9440   35.4460 P.3    69  C69         0.2141
   1008  C5'       -9.0970   -4.6800   35.7330 C.3    69  C69         0.1812
   1009  O5'      -10.3300   -5.3520   35.4840 O.3    69  C69        -0.3114
   1010  C4'       -9.1830   -3.2220   35.3420 C.3    69  C69         0.1773
   1011  O4'       -8.6660   -3.0590   33.9850 O.3    69  C69        -0.3307
   1012  C3'      -10.6070   -2.6560   35.3330 C.3    69  C69         0.1860
   1013  O3'      -10.6260   -1.2970   35.7680 O.3    69  C69        -0.3112
   1014  C2'      -10.9900   -2.7200   33.8650 C.3    69  C69         0.2309
   1015  O2'      -12.0030   -1.8030   33.4800 O.3    69  C69        -0.2156
   1016  C1'       -9.6440   -2.4490   33.1700 C.3    69  C69         0.2420
   1017  N1        -9.5680   -3.0510   31.8310 N.ar   69  C69        -0.2535
   1018  C2        -9.3820   -2.2690   30.6930 C.ar   69  C69         0.3532
   1019  O2        -9.1960   -1.0490   30.8140 O.2    69  C69        -0.2443
   1020  N3        -9.4010   -2.8650   29.4810 N.ar   69  C69        -0.1739
   1021  C4        -9.6220   -4.1750   29.3830 C.ar   69  C69         0.1759
   1022  N4        -9.6300   -4.7230   28.1700 N.pl3  69  C69        -0.1070
   1023  C5        -9.8340   -4.9930   30.5250 C.ar   69  C69         0.0566
   1024  C6        -9.8140   -4.3880   31.7160 C.ar   69  C69         0.0850
   1025  OP1      -11.1650   -7.4340   36.6320 O.3    69  C69        -0.4373
   1026  OP2      -10.8710   -7.3950   34.1000 O.co2  69  C69        -0.5172
   1027  P        -12.0450   -0.5870   36.0870 P.3    70  U70         0.2141
   1028  C5'      -11.3490    1.2670   34.4000 C.3    70  U70         0.1812
   1029  O5'      -12.3030    0.3080   34.8020 O.3    70  U70        -0.3114
   1030  C4'      -11.9660    2.6170   34.1840 C.3    70  U70         0.1773
   1031  O4'      -13.3870    2.5810   34.4640 O.3    70  U70        -0.3307
   1032  C3'      -11.4480    3.7220   35.0730 C.3    70  U70         0.1860
   1033  O3'      -10.1970    4.2110   34.6360 O.3    70  U70        -0.3112
   1034  C2'      -12.5760    4.7500   35.0060 C.3    70  U70         0.2309
   1035  O2'      -12.5090    5.4880   33.7960 O.3    70  U70        -0.2156
   1036  C1'      -13.8080    3.8460   34.9400 C.3    70  U70         0.2420
   1037  N1       -14.4350    3.6640   36.2590 N.ar   70  U70        -0.2534
   1038  C2       -15.5990    4.3600   36.5370 C.ar   70  U70         0.3546
   1039  O2       -16.1230    5.1280   35.7410 O.2    70  U70        -0.2443
   1040  N3       -16.1170    4.1120   37.7900 N.ar   70  U70        -0.1530
   1041  C4       -15.6100    3.2620   38.7610 C.ar   70  U70         0.2846
   1042  O4       -16.1850    3.1380   39.8460 O.2    70  U70        -0.2650
   1043  C5       -14.4100    2.5830   38.3840 C.ar   70  U70         0.0814
   1044  C6       -13.8810    2.7990   37.1770 C.ar   70  U70         0.0870
   1045  OP1      -11.8370    0.2880   37.2710 O.3    70  U70        -0.4373
   1046  OP2      -13.0700   -1.6640   36.1580 O.co2  70  U70        -0.5172
   1047  P         -9.2120    4.9380   35.6600 P.3    71  A71         0.2141
   1048  C5'       -7.4210    3.3270   34.6490 C.3    71  A71         0.1812
   1049  O5'       -7.7850    4.6460   35.0320 O.3    71  A71        -0.3114
   1050  C4'       -6.4780    3.3340   33.4850 C.3    71  A71         0.1773
   1051  O4'       -7.1720    3.8480   32.3140 O.3    71  A71        -0.3307
   1052  C3'       -5.2320    4.2100   33.6630 C.3    71  A71         0.1860
   1053  O3'       -4.1200    3.5930   33.0360 O.3    71  A71        -0.3112
   1054  C2'       -5.5770    5.4550   32.8710 C.3    71  A71         0.2309
   1055  O2'       -4.4540    6.1480   32.3830 O.3    71  A71        -0.2156
   1056  C1'       -6.3860    4.8690   31.7320 C.3    71  A71         0.2408
   1057  N1        -7.1910    7.6570   27.5210 N.ar   71  A71        -0.2040
   1058  C2        -6.2590    6.7440   27.8240 C.ar   71  A71         0.2016
   1059  N3        -6.1110    6.0410   28.9470 N.ar   71  A71        -0.2048
   1060  C4        -7.0690    6.3620   29.8340 C.ar   71  A71         0.1692
   1061  C5        -8.0860    7.2740   29.6600 C.ar   71  A71         0.1518
   1062  C6        -8.1410    7.9560   28.4370 C.ar   71  A71         0.1919
   1063  N6        -9.0810    8.8690   28.1440 N.pl3  71  A71        -0.1054
   1064  N7        -8.8800    7.3410   30.7930 N.ar   71  A71        -0.2193
   1065  C8        -8.3430    6.4820   31.6150 C.ar   71  A71         0.1816
   1066  N9        -7.2550    5.8430   31.0850 N.ar   71  A71        -0.2693
   1067  OP1       -9.3440    4.2410   36.9630 O.3    71  A71        -0.4373
   1068  OP2       -9.5110    6.3890   35.5880 O.co2  71  A71        -0.5172
   1069  P         -3.0730    2.7210   33.8750 P.3    72  U72         0.2141
   1070  C5'       -3.3190    0.5340   32.4620 C.3    72  U72         0.1812
   1071  O5'       -2.5680    1.7020   32.7760 O.3    72  U72        -0.3114
   1072  C4'       -2.4540   -0.6750   32.6090 C.3    72  U72         0.1773
   1073  O4'       -2.9120   -1.7440   31.7340 O.3    72  U72        -0.3307
   1074  C3'       -0.9990   -0.4390   32.2520 C.3    72  U72         0.1860
   1075  O3'       -0.2120   -1.2240   33.1240 O.3    72  U72        -0.3112
   1076  C2'       -0.9150   -0.9980   30.8340 C.3    72  U72         0.2309
   1077  O2'        0.3870   -1.3410   30.4140 O.3    72  U72        -0.2156
   1078  C1'       -1.8120   -2.2100   30.9810 C.3    72  U72         0.2420
   1079  N1        -2.3160   -2.7910   29.7260 N.ar   72  U72        -0.2534
   1080  C2        -2.6950   -4.1110   29.8970 C.ar   72  U72         0.3546
   1081  O2        -2.5760   -4.6800   30.9640 O.2    72  U72        -0.2443
   1082  N3        -3.2010   -4.7430   28.7930 N.ar   72  U72        -0.1530
   1083  C4        -3.3610   -4.1850   27.5440 C.ar   72  U72         0.2846
   1084  O4        -3.8300   -4.8930   26.6460 O.2    72  U72        -0.2650
   1085  C5        -2.9510   -2.8070   27.4480 C.ar   72  U72         0.0814
   1086  C6        -2.4560   -2.1600   28.5160 C.ar   72  U72         0.0870
   1087  OP1       -3.8330    2.0000   34.9310 O.3    72  U72        -0.4373
   1088  OP2       -1.9670    3.6140   34.2780 O.co2  72  U72        -0.5172
   1089  P          1.1500   -0.6480   33.7200 P.3    73  U73         0.2141
   1090  C5'        3.0140   -2.4750   34.0200 C.3    73  U73         0.1812
   1091  O5'        2.2200   -1.6870   33.1500 O.3    73  U73        -0.3114
   1092  C4'        2.5580   -3.9210   34.0720 C.3    73  U73         0.1773
   1093  O4'        1.2670   -4.0900   33.4400 O.3    73  U73        -0.3307
   1094  C3'        3.4140   -4.9450   33.3500 C.3    73  U73         0.1860
   1095  O3'        4.6370   -5.2170   34.0040 O.3    73  U73        -0.3112
   1096  C2'        2.4740   -6.1350   33.3130 C.3    73  U73         0.2309
   1097  O2'        2.3900   -6.7350   34.5960 O.3    73  U73        -0.2156
   1098  C1'        1.1420   -5.4410   33.0240 C.3    73  U73         0.2420
   1099  N1         0.8130   -5.4780   31.5920 N.ar   73  U73        -0.2534
   1100  C2         0.3280   -6.6830   31.1260 C.ar   73  U73         0.3546
   1101  O2         0.1570   -7.6490   31.8500 O.2    73  U73        -0.2443
   1102  N3         0.0320   -6.7120   29.7920 N.ar   73  U73        -0.1530
   1103  C4         0.1650   -5.6730   28.8970 C.ar   73  U73         0.2846
   1104  O4        -0.1520   -5.8400   27.7140 O.2    73  U73        -0.2650
   1105  C5         0.6770   -4.4690   29.4690 C.ar   73  U73         0.0814
   1106  C6         0.9820   -4.4050   30.7680 C.ar   73  U73         0.0870
   1107  OP1        1.0560   -0.7570   35.2000 O.3    73  U73        -0.4373
   1108  OP2        1.3660    0.6890   33.1110 O.co2  73  U73        -0.5172
   1109  P          5.8570   -5.8660   33.1890 P.3    74  U74         0.2141
   1110  C5'        5.0770   -8.2290   33.9880 C.3    74  U74         0.1812
   1111  O5'        5.3520   -7.3470   32.9140 O.3    74  U74        -0.3114
   1112  C4'        4.6860   -9.5920   33.4880 C.3    74  U74         0.1773
   1113  O4'        3.3830   -9.5270   32.8520 O.3    74  U74        -0.3307
   1114  C3'        5.5910  -10.2030   32.4250 C.3    74  U74         0.1860
   1115  O3'        6.7480  -10.8090   32.9840 O.3    74  U74        -0.3112
   1116  C2'        4.6530  -11.1990   31.7600 C.3    74  U74         0.2309
   1117  O2'        4.4870  -12.3430   32.5820 O.3    74  U74        -0.2156
   1118  C1'        3.3370  -10.4230   31.7700 C.3    74  U74         0.2420
   1119  N1         3.1330   -9.6510   30.5340 N.ar   74  U74        -0.2534
   1120  C2         2.6810  -10.3620   29.4520 C.ar   74  U74         0.3546
   1121  O2         2.4900  -11.5550   29.5210 O.2    74  U74        -0.2443
   1122  N3         2.4960   -9.6440   28.3090 N.ar   74  U74        -0.1530
   1123  C4         2.7010   -8.2860   28.1690 C.ar   74  U74         0.2846
   1124  O4         2.4820   -7.7590   27.0770 O.2    74  U74        -0.2650
   1125  C5         3.1780   -7.6080   29.3410 C.ar   74  U74         0.0814
   1126  C6         3.3800   -8.3030   30.4660 C.ar   74  U74         0.0870
   1127  OP1        7.0190   -5.8910   34.1040 O.3    74  U74        -0.4373
   1128  OP2        5.9710   -5.1350   31.9070 O.co2  74  U74        -0.5172
   1129  P          8.1670  -10.8080   32.2120 P.3    75  G75         0.2141
   1130  C5'        8.0240  -13.2990   31.4110 C.3    75  G75         0.1812
   1131  O5'        7.9720  -11.9220   31.0930 O.3    75  G75        -0.3114
   1132  C4'        7.6740  -14.1460   30.2180 C.3    75  G75         0.1773
   1133  O4'        6.3180  -13.8590   29.7880 O.3    75  G75        -0.3307
   1134  C3'        8.4810  -13.9020   28.9610 C.3    75  G75         0.1860
   1135  O3'        9.7710  -14.4720   29.0010 O.3    75  G75        -0.3112
   1136  C2'        7.5840  -14.5090   27.9080 C.3    75  G75         0.2309
   1137  O2'        7.6040  -15.9220   28.0070 O.3    75  G75        -0.2156
   1138  C1'        6.2250  -14.0070   28.3880 C.3    75  G75         0.2408
   1139  N1         4.8060  -11.7270   24.1630 N.ar   75  G75        -0.1709
   1140  C2         4.9420  -13.0650   24.4430 C.ar   75  G75         0.2606
   1141  N2         4.6890  -13.9410   23.4540 N.pl3  75  G75        -0.0859
   1142  N3         5.3080  -13.5110   25.6280 N.ar   75  G75        -0.1918
   1143  C4         5.5410  -12.5190   26.5020 C.ar   75  G75         0.1723
   1144  C5         5.4530  -11.1580   26.3260 C.ar   75  G75         0.1748
   1145  C6         5.0530  -10.6810   25.0580 C.ar   75  G75         0.3023
   1146  O6         4.9000   -9.5050   24.7100 O.2    75  G75        -0.2633
   1147  N7         5.7730  -10.4760   27.4930 N.ar   75  G75        -0.2173
   1148  C8         6.0730  -11.4360   28.3390 C.ar   75  G75         0.1817
   1149  N9         5.9290  -12.6980   27.7980 N.ar   75  G75        -0.2693
   1150  OP1        9.1850  -11.2500   33.2010 O.3    75  G75        -0.4373
   1151  OP2        8.3270   -9.4950   31.5680 O.co2  75  G75        -0.5172
   1152  P         10.9540  -13.8210   28.1410 P.3    76  G76         0.2141
   1153  C5'       10.4850  -15.4710   26.1870 C.3    76  G76         0.1812
   1154  O5'       10.5120  -14.1340   26.6430 O.3    76  G76        -0.3114
   1155  C4'       10.0850  -15.5820   24.7390 C.3    76  G76         0.1773
   1156  O4'        8.7410  -15.0840   24.5460 O.3    76  G76        -0.3307
   1157  C3'       10.8830  -14.7810   23.7330 C.3    76  G76         0.1860
   1158  O3'       12.1700  -15.3090   23.4700 O.3    76  G76        -0.3112
   1159  C2'        9.9560  -14.8300   22.5380 C.3    76  G76         0.2309
   1160  O2'        9.9400  -16.1330   21.9790 O.3    76  G76        -0.2156
   1161  C1'        8.6220  -14.6020   23.2240 C.3    76  G76         0.2408
   1162  N1         6.9690  -10.8650   20.4520 N.ar   76  G76        -0.1709
   1163  C2         7.2140  -12.1670   20.1110 C.ar   76  G76         0.2606
   1164  N2         6.9680  -12.5120   18.8370 N.pl3  76  G76        -0.0859
   1165  N3         7.6750  -13.0560   20.9640 N.ar   76  G76        -0.1918
   1166  C4         7.8480  -12.5060   22.1840 C.ar   76  G76         0.1723
   1167  C5         7.6320  -11.2310   22.6270 C.ar   76  G76         0.1748
   1168  C6         7.1500  -10.2860   21.7000 C.ar   76  G76         0.3023
   1169  O6         6.8940   -9.0860   21.8790 O.2    76  G76        -0.2633
   1170  N7         7.9470  -11.1130   23.9710 N.ar   76  G76        -0.2173
   1171  C8         8.3440  -12.3040   24.3230 C.ar   76  G76         0.1817
   1172  N9         8.2870  -13.1790   23.2760 N.ar   76  G76        -0.2693
   1173  OP1       12.1780  -14.5740   28.4730 O.3    76  G76        -0.4373
   1174  OP2       10.9340  -12.3660   28.3840 O.co2  76  G76        -0.5172
   1175  P         13.2620  -14.4080   22.7120 P.3    77  A77         0.2141
   1176  C5'       12.9240  -14.7690   20.1480 C.3    77  A77         0.1812
   1177  O5'       12.5470  -14.0780   21.3300 O.3    77  A77        -0.3114
   1178  C4'       12.3640  -14.1170   18.9090 C.3    77  A77         0.1773
   1179  O4'       10.9970  -13.6840   19.1450 O.3    77  A77        -0.3307
   1180  C3'       13.0590  -12.8500   18.4290 C.3    77  A77         0.1860
   1181  O3'       14.2660  -13.1020   17.7330 O.3    77  A77        -0.3112
   1182  C2'       11.9800  -12.2340   17.5590 C.3    77  A77         0.2309
   1183  O2'       11.8440  -12.9620   16.3470 O.3    77  A77        -0.2156
   1184  C1'       10.7470  -12.5020   18.4140 C.3    77  A77         0.2408
   1185  N1         9.3980   -7.6160   18.9320 N.ar   77  A77        -0.2040
   1186  C2         9.5020   -8.4120   17.8640 C.ar   77  A77         0.2016
   1187  N3         9.8570   -9.6840   17.8060 N.ar   77  A77        -0.2048
   1188  C4        10.1330  -10.1450   19.0350 C.ar   77  A77         0.1692
   1189  C5        10.0700   -9.4540   20.2260 C.ar   77  A77         0.1518
   1190  C6         9.6760   -8.1140   20.1520 C.ar   77  A77         0.1919
   1191  N6         9.5620   -7.3160   21.2110 N.pl3  77  A77        -0.1054
   1192  N7        10.4310  -10.2630   21.2900 N.ar   77  A77        -0.2193
   1193  C8        10.6940  -11.4170   20.7260 C.ar   77  A77         0.1816
   1194  N9        10.5240  -11.4100   19.3680 N.ar   77  A77        -0.2693
   1195  OP1       14.4340  -15.2580   22.4660 O.2    77  A77        -0.5172
   1196  OP2       13.4310  -13.1700   23.5050 O.co2  77  A77        -0.4373
   1197  P         15.5340  -12.1100   17.8780 P.3    78  G78         0.2141
   1198  C5'       14.8030  -10.8600   15.7100 C.3    78  G78         0.1812
   1199  O5'       15.0680  -10.8050   17.0980 O.3    78  G78        -0.3114
   1200  C4'       14.0730   -9.6370   15.2250 C.3    78  G78         0.1773
   1201  O4'       12.8720   -9.4170   16.0090 O.3    78  G78        -0.3307
   1202  C3'       14.8030   -8.3240   15.3540 C.3    78  G78         0.1860
   1203  O3'       15.8230   -8.1550   14.4000 O.3    78  G78        -0.3112
   1204  C2'       13.6640   -7.3360   15.2100 C.3    78  G78         0.2309
   1205  O2'       13.2120   -7.2920   13.8650 O.3    78  G78        -0.2156
   1206  C1'       12.5970   -8.0290   16.0510 C.3    78  G78         0.2408
   1207  N1        11.5890   -4.1300   18.9740 N.ar   78  G78        -0.1709
   1208  C2        11.4290   -4.3060   17.6310 C.ar   78  G78         0.2606
   1209  N2        10.9110   -3.2770   16.9580 N.pl3  78  G78        -0.0859
   1210  N3        11.7420   -5.4110   16.9930 N.ar   78  G78        -0.1918
   1211  C4        12.2420   -6.3350   17.8320 C.ar   78  G78         0.1723
   1212  C5        12.4580   -6.2720   19.1880 C.ar   78  G78         0.1748
   1213  C6        12.1070   -5.0650   19.8550 C.ar   78  G78         0.3023
   1214  O6        12.2040   -4.7670   21.0520 O.2    78  G78        -0.2633
   1215  N7        13.0100   -7.4660   19.6540 N.ar   78  G78        -0.2173
   1216  C8        13.1110   -8.2080   18.5800 C.ar   78  G78         0.1817
   1217  N9        12.6480   -7.5770   17.4490 N.ar   78  G78        -0.2693
   1218  OP1       16.6500  -12.7520   17.1640 O.2    78  G78        -0.5172
   1219  OP2       15.6990  -11.7960   19.3130 O.co2  78  G78        -0.4373
   1220  P         17.0710   -7.1990   14.7300 P.3    79  A79         0.2141
   1221  C5'       15.9900   -5.2090   13.4150 C.3    79  A79         0.1812
   1222  O5'       16.4270   -5.7380   14.6550 O.3    79  A79        -0.3114
   1223  C4'       15.5160   -3.7820   13.5400 C.3    79  A79         0.1773
   1224  O4'       14.3380   -3.7160   14.3880 O.3    79  A79        -0.3307
   1225  C3'       16.4700   -2.7840   14.1830 C.3    79  A79         0.1860
   1226  O3'       17.5160   -2.3650   13.3240 O.3    79  A79        -0.3112
   1227  C2'       15.5140   -1.6630   14.5610 C.3    79  A79         0.2309
   1228  O2'       15.1180   -0.9320   13.4090 O.3    79  A79        -0.2156
   1229  C1'       14.3120   -2.4690   15.0590 C.3    79  A79         0.2408
   1230  N1        13.2880   -0.5040   19.6600 N.ar   79  A79        -0.2040
   1231  C2        13.0470   -0.0790   18.4180 C.ar   79  A79         0.2016
   1232  N3        13.3410   -0.6570   17.2600 N.ar   79  A79        -0.2048
   1233  C4        13.9690   -1.8270   17.4660 C.ar   79  A79         0.1692
   1234  C5        14.2990   -2.4020   18.6810 C.ar   79  A79         0.1518
   1235  C6        13.9280   -1.6810   19.8320 C.ar   79  A79         0.1919
   1236  N6        14.1690   -2.1000   21.0770 N.pl3  79  A79        -0.1054
   1237  N7        14.9510   -3.6190   18.4940 N.ar   79  A79        -0.2193
   1238  C8        15.0010   -3.7480   17.1870 C.ar   79  A79         0.1816
   1239  N9        14.4060   -2.7060   16.5100 N.ar   79  A79        -0.2693
   1240  OP1       18.0500   -7.3800   13.6330 O.2    79  A79        -0.5172
   1241  OP2       17.4950   -7.5000   16.1270 O.co2  79  A79        -0.4373
   1242  P         18.9020   -1.8040   13.9330 P.3    80  C80         0.2141
   1243  C5'       17.9270    0.6280   13.9810 C.3    80  C80         0.1812
   1244  O5'       18.4540   -0.4800   14.6960 O.3    80  C80        -0.3114
   1245  C4'       17.5030    1.7470   14.9050 C.3    80  C80         0.1773
   1246  O4'       16.5460    1.2550   15.8870 O.3    80  C80        -0.3307
   1247  C3'       18.5970    2.3760   15.7560 C.3    80  C80         0.1860
   1248  O3'       19.4180    3.2880   15.0350 O.3    80  C80        -0.3112
   1249  C2'       17.7850    3.0210   16.8770 C.3    80  C80         0.2309
   1250  O2'       17.1420    4.1990   16.4180 O.3    80  C80        -0.2156
   1251  C1'       16.7090    1.9600   17.1070 C.3    80  C80         0.2420
   1252  N1        17.0980    0.9980   18.1730 N.ar   80  C80        -0.2535
   1253  C2        16.9840    1.3770   19.5220 C.ar   80  C80         0.3532
   1254  O2        16.5480    2.4950   19.8290 O.2    80  C80        -0.2443
   1255  N3        17.3500    0.5190   20.4870 N.ar   80  C80        -0.1739
   1256  C4        17.8090   -0.6850   20.1630 C.ar   80  C80         0.1759
   1257  N4        18.1560   -1.4970   21.1650 N.pl3  80  C80        -0.1070
   1258  C5        17.9450   -1.1090   18.8080 C.ar   80  C80         0.0566
   1259  C6        17.5830   -0.2430   17.8540 C.ar   80  C80         0.0850
   1260  OP1       19.7690   -1.4530   12.7840 O.2    80  C80        -0.5172
   1261  OP2       19.3880   -2.8020   14.9060 O.co2  80  C80        -0.4373
   1262  P         21.0070    3.0220   14.8830 P.3    81  U81         0.2141
   1263  C5'       21.2490    4.9730   16.6110 C.3    81  U81         0.1812
   1264  O5'       21.6100    3.6610   16.2040 O.3    81  U81        -0.3114
   1265  C4'       21.5830    5.2030   18.0620 C.3    81  U81         0.1773
   1266  O4'       20.6060    4.5290   18.8980 O.3    81  U81        -0.3307
   1267  C3'       22.9220    4.6460   18.5270 C.3    81  U81         0.1860
   1268  O3'       24.0070    5.5050   18.2380 O.3    81  U81        -0.3112
   1269  C2'       22.7050    4.4300   20.0140 C.3    81  U81         0.2309
   1270  O2'       22.8590    5.6460   20.7220 O.3    81  U81        -0.2156
   1271  C1'       21.2320    4.0270   20.0580 C.3    81  U81         0.2420
   1272  N1        21.0600    2.5640   20.0940 N.ar   81  U81        -0.2534
   1273  C2        21.2640    1.9700   21.3260 C.ar   81  U81         0.3546
   1274  O2        21.5750    2.6090   22.3200 O.2    81  U81        -0.2443
   1275  N3        21.0900    0.6100   21.3530 N.ar   81  U81        -0.1530
   1276  C4        20.7440   -0.1900   20.2900 C.ar   81  U81         0.2846
   1277  O4        20.6290   -1.4000   20.4830 O.2    81  U81        -0.2650
   1278  C5        20.5510    0.5010   19.0470 C.ar   81  U81         0.0814
   1279  C6        20.7070    1.8280   18.9870 C.ar   81  U81         0.0870
   1280  OP1       21.4680    3.7880   13.7020 O.2    81  U81        -0.5172
   1281  OP2       21.2100    1.5560   14.9010 O.co2  81  U81        -0.4373
   1282  P         25.5120    4.9400   18.2540 P.3    82  A82         0.2141
   1283  C5'       25.6790    5.7590   20.7290 C.3    82  A82         0.1812
   1284  O5'       25.7960    4.6990   19.7990 O.3    82  A82        -0.3114
   1285  C4'       25.7860    5.2550   22.1370 C.3    82  A82         0.1773
   1286  O4'       24.6550    4.4060   22.4410 O.3    82  A82        -0.3307
   1287  C3'       26.9730    4.3650   22.4180 C.3    82  A82         0.1860
   1288  O3'       28.1760    5.0770   22.5870 O.3    82  A82        -0.3112
   1289  C2'       26.5280    3.5910   23.6490 C.3    82  A82         0.2309
   1290  O2'       26.6200    4.3980   24.8160 O.3    82  A82        -0.2156
   1291  C1'       25.0550    3.3790   23.3300 C.3    82  A82         0.2408
   1292  N1        24.7610   -1.7450   23.9740 N.ar   82  A82        -0.2040
   1293  C2        25.0860   -0.7480   24.8220 C.ar   82  A82         0.2016
   1294  N3        25.1570    0.5670   24.5960 N.ar   82  A82        -0.2048
   1295  C4        24.8370    0.8460   23.3100 C.ar   82  A82         0.1692
   1296  C5        24.4820   -0.0590   22.3260 C.ar   82  A82         0.1518
   1297  C6        24.4450   -1.4230   22.6920 C.ar   82  A82         0.1919
   1298  N6        24.1170   -2.3970   21.8350 N.pl3  82  A82        -0.1054
   1299  N7        24.2200    0.5870   21.1240 N.ar   82  A82        -0.2193
   1300  C8        24.4150    1.8450   21.3980 C.ar   82  A82         0.1816
   1301  N9        24.7990    2.0730   22.6940 N.ar   82  A82        -0.2693
   1302  OP1       26.3910    6.0210   17.7460 O.3    82  A82        -0.4373
   1303  OP2       25.4950    3.6440   17.5400 O.co2  82  A82        -0.5172
   1304  P         29.5080    4.5250   21.9040 P.3    83  U83         0.2141
   1305  C5'       30.3600    3.5470   24.1720 C.3    83  U83         0.1812
   1306  O5'       29.9070    3.3100   22.8530 O.3    83  U83        -0.3114
   1307  C4'       30.3090    2.2960   25.0070 C.3    83  U83         0.1773
   1308  O4'       28.9930    1.7000   24.9260 O.3    83  U83        -0.3307
   1309  C3'       31.2300    1.1680   24.5910 C.3    83  U83         0.1860
   1310  O3'       32.5790    1.3760   24.9810 O.3    83  U83        -0.3112
   1311  C2'       30.5710   -0.0330   25.2590 C.3    83  U83         0.2309
   1312  O2'       30.8250   -0.0380   26.6590 O.3    83  U83        -0.2156
   1313  C1'       29.1000    0.2960   25.0480 C.3    83  U83         0.2420
   1314  N1        28.5630   -0.3220   23.8220 N.ar   83  U83        -0.2534
   1315  C2        28.2490   -1.6670   23.8520 C.ar   83  U83         0.3546
   1316  O2        28.4190   -2.3660   24.8420 O.2    83  U83        -0.2443
   1317  N3        27.7440   -2.1450   22.6670 N.ar   83  U83        -0.1530
   1318  C4        27.5230   -1.4290   21.5020 C.ar   83  U83         0.2846
   1319  O4        27.0550   -1.9890   20.5130 O.2    83  U83        -0.2650
   1320  C5        27.8540   -0.0450   21.5630 C.ar   83  U83         0.0814
   1321  C6        28.3520    0.4440   22.6970 C.ar   83  U83         0.0870
   1322  OP1       30.5300    5.6030   21.9950 O.3    83  U83        -0.4373
   1323  OP2       29.1220    4.0120   20.5590 O.co2  83  U83        -0.5172
   1324  P         33.7830    0.8080   24.0750 P.3    84  A84         0.2141
   1325  C5'       33.9480   -1.3620   25.5170 C.3    84  A84         0.1812
   1326  O5'       33.6550   -0.7630   24.2660 O.3    84  A84        -0.3114
   1327  C4'       33.4750   -2.7860   25.5620 C.3    84  A84         0.1773
   1328  O4'       32.0620   -2.8420   25.2540 O.3    84  A84        -0.3307
   1329  C3'       34.0740   -3.7130   24.5300 C.3    84  A84         0.1860
   1330  O3'       35.3910   -4.1190   24.8270 O.3    84  A84        -0.3112
   1331  C2'       33.0600   -4.8450   24.4990 C.3    84  A84         0.2309
   1332  O2'       33.1540   -5.6400   25.6770 O.3    84  A84        -0.2156
   1333  C1'       31.7730   -4.0500   24.5790 C.3    84  A84         0.2408
   1334  N1        29.4690   -5.8440   20.3620 N.ar   84  A84        -0.2040
   1335  C2        29.9070   -6.4490   21.4850 C.ar   84  A84         0.2016
   1336  N3        30.5220   -5.9300   22.5530 N.ar   84  A84        -0.2048
   1337  C4        30.6620   -4.6070   22.3880 C.ar   84  A84         0.1692
   1338  C5        30.2700   -3.8410   21.3000 C.ar   84  A84         0.1518
   1339  C6        29.6410   -4.5040   20.2370 C.ar   84  A84         0.1919
   1340  N6        29.2150   -3.8730   19.1400 N.pl3  84  A84        -0.1054
   1341  N7        30.5940   -2.5040   21.4860 N.ar   84  A84        -0.2193
   1342  C8        31.1650   -2.4900   22.6670 C.ar   84  A84         0.1816
   1343  N9        31.2370   -3.7260   23.2560 N.ar   84  A84        -0.2693
   1344  OP1       35.0480    1.2810   24.6890 O.3    84  A84        -0.4373
   1345  OP2       33.4870    1.1780   22.6590 O.co2  84  A84        -0.5172
   1346  P         36.4310   -4.3030   23.6270 P.3    85  A85         0.2141
   1347  C5'       35.8710   -6.8440   23.9760 C.3    85  A85         0.1812
   1348  O5'       36.0820   -5.7610   23.0810 O.3    85  A85        -0.3114
   1349  C4'       35.2660   -8.0350   23.2740 C.3    85  A85         0.1773
   1350  O4'       33.9230   -7.7240   22.8470 O.3    85  A85        -0.3307
   1351  C3'       35.9400   -8.4750   21.9870 C.3    85  A85         0.1860
   1352  O3'       37.1380   -9.2070   22.1990 O.3    85  A85        -0.3112
   1353  C2'       34.8370   -9.2810   21.3080 C.3    85  A85         0.2309
   1354  O2'       34.7190  -10.5650   21.9020 O.3    85  A85        -0.2156
   1355  C1'       33.6070   -8.4790   21.6940 C.3    85  A85         0.2408
   1356  N1        30.9510   -8.2260   17.3160 N.ar   85  A85        -0.2040
   1357  C2        31.2990   -9.2310   18.1250 C.ar   85  A85         0.2016
   1358  N3        32.0100   -9.2030   19.2570 N.ar   85  A85        -0.2048
   1359  C4        32.3910   -7.9560   19.5570 C.ar   85  A85         0.1692
   1360  C5        32.1160   -6.8080   18.8320 C.ar   85  A85         0.1518
   1361  C6        31.3540   -6.9740   17.6520 C.ar   85  A85         0.1919
   1362  N6        31.0050   -5.9610   16.8510 N.pl3  85  A85        -0.1054
   1363  N7        32.6730   -5.6920   19.4510 N.ar   85  A85        -0.2193
   1364  C8        33.2670   -6.2010   20.5140 C.ar   85  A85         0.1816
   1365  N9        33.1520   -7.5690   20.6270 N.ar   85  A85        -0.2693
   1366  OP1       37.8010   -4.2900   24.2280 O.3    85  A85        -0.4373
   1367  OP2       36.0770   -3.2830   22.5940 O.co2  85  A85        -0.5172
   1368  P         38.1780   -9.4150   20.9860 P.3    86  G86         0.2141
   1369  C5'       37.8600  -10.7090   18.7180 C.3    86  G86         0.1812
   1370  O5'       37.4090  -10.4520   20.0420 O.3    86  G86        -0.3114
   1371  C4'       36.8060  -11.4090   17.8930 C.3    86  G86         0.1773
   1372  O4'       35.4920  -10.8650   18.2020 O.3    86  G86        -0.3307
   1373  C3'       36.9130  -11.2270   16.3850 C.3    86  G86         0.1860
   1374  O3'       37.9050  -12.0270   15.7740 O.3    86  G86        -0.3112
   1375  C2'       35.4970  -11.5230   15.9220 C.3    86  G86         0.2309
   1376  O2'       35.2250  -12.9180   15.9870 O.3    86  G86        -0.2156
   1377  C1'       34.7050  -10.8180   17.0200 C.3    86  G86         0.2408
   1378  N1        32.5090   -7.4630   13.8070 N.ar   86  G86        -0.1709
   1379  C2        32.4880   -8.8340   13.7730 C.ar   86  G86         0.2606
   1380  N2        31.7870   -9.3580   12.7570 N.pl3  86  G86        -0.0859
   1381  N3        33.1030   -9.6180   14.6610 N.ar   86  G86        -0.1918
   1382  C4        33.7480   -8.9050   15.6170 C.ar   86  G86         0.1723
   1383  C5        33.8310   -7.5320   15.7360 C.ar   86  G86         0.1748
   1384  C6        33.1720   -6.7110   14.7680 C.ar   86  G86         0.3023
   1385  O6        33.1280   -5.4760   14.6860 O.2    86  G86        -0.2633
   1386  N7        34.6000   -7.1900   16.8450 N.ar   86  G86        -0.2173
   1387  C8        34.9630   -8.3260   17.3720 C.ar   86  G86         0.1817
   1388  N9        34.4690   -9.4040   16.6820 N.ar   86  G86        -0.2693
   1389  OP1       39.4030  -10.0570   21.5640 O.3    86  G86        -0.4373
   1390  OP2       38.3090   -8.0950   20.2910 O.co2  86  G86        -0.5172
   1391  P         38.9760  -11.3300   14.8040 P.3    87  G87         0.2141
   1392  C5'       37.7270  -12.5790   12.8680 C.3    87  G87         0.1812
   1393  O5'       38.2560  -11.3720   13.3860 O.3    87  G87        -0.3114
   1394  C4'       36.7410  -12.3140   11.7580 C.3    87  G87         0.1773
   1395  O4'       35.5970  -11.5770   12.2730 O.3    87  G87        -0.3307
   1396  C3'       37.2260  -11.4280   10.6260 C.3    87  G87         0.1860
   1397  O3'       38.1100  -12.0720    9.7350 O.3    87  G87        -0.3112
   1398  C2'       35.9140  -10.9820    9.9930 C.3    87  G87         0.2309
   1399  O2'       35.3200  -12.0410    9.2490 O.3    87  G87        -0.2156
   1400  C1'       35.0700  -10.7500   11.2450 C.3    87  G87         0.2408
   1401  N1        33.4770   -6.1640    9.9320 N.ar   87  G87        -0.1709
   1402  C2        33.3300   -7.3900    9.3200 C.ar   87  G87         0.2606
   1403  N2        32.6380   -7.4210    8.1670 N.pl3  87  G87        -0.0859
   1404  N3        33.8270   -8.5150    9.8100 N.ar   87  G87        -0.1918
   1405  C4        34.4890   -8.3290   10.9710 C.ar   87  G87         0.1723
   1406  C5        34.7040   -7.1550   11.6730 C.ar   87  G87         0.1748
   1407  C6        34.1540   -5.9410   11.1290 C.ar   87  G87         0.3023
   1408  O6        34.1980   -4.7770   11.5580 O.2    87  G87        -0.2633
   1409  N7        35.4570   -7.4260   12.8250 N.ar   87  G87        -0.2173
   1410  C8        35.6610   -8.7280   12.7930 C.ar   87  G87         0.1817
   1411  N9        35.0980   -9.3350   11.6840 N.ar   87  G87        -0.2693
   1412  OP1       40.1880  -12.1910   14.7880 O.2    87  G87        -0.5172
   1413  OP2       39.1040   -9.9200   15.2560 O.co2  87  G87        -0.4373
   1414  P         39.4630  -11.3290    9.2840 P.3    88  U88         0.2141
   1415  C5'       38.0360  -11.0840    7.0850 C.3    88  U88         0.1812
   1416  O5'       39.0180  -10.5510    7.9680 O.3    88  U88        -0.3114
   1417  C4'       37.4300   -9.9960    6.2280 C.3    88  U88         0.1773
   1418  O4'       36.3460   -9.3500    6.9520 O.3    88  U88        -0.3307
   1419  C3'       38.3660   -8.8500    5.8580 C.3    88  U88         0.1860
   1420  O3'       39.1900   -9.1370    4.7350 O.3    88  U88        -0.3112
   1421  C2'       37.4020   -7.6830    5.6540 C.3    88  U88         0.2309
   1422  O2'       36.7310   -7.7850    4.4040 O.3    88  U88        -0.2156
   1423  C1'       36.3870   -7.9550    6.7560 C.3    88  U88         0.2420
   1424  N1        36.7780   -7.3260    8.0360 N.ar   88  U88        -0.2534
   1425  C2        36.3220   -6.0530    8.3280 C.ar   88  U88         0.3546
   1426  O2        35.6180   -5.4110    7.5610 O.2    88  U88        -0.2443
   1427  N3        36.7410   -5.5750    9.5530 N.ar   88  U88        -0.1530
   1428  C4        37.5400   -6.2170   10.4840 C.ar   88  U88         0.2846
   1429  O4        37.8240   -5.6550   11.5390 O.2    88  U88        -0.2650
   1430  C5        37.9690   -7.5250   10.1140 C.ar   88  U88         0.0814
   1431  C6        37.5760   -8.0130    8.9320 C.ar   88  U88         0.0870
   1432  OP1       40.4450  -12.3820    8.9400 O.2    88  U88        -0.5172
   1433  OP2       39.8130  -10.3510   10.3520 O.co2  88  U88        -0.4373
   1434  P         40.6860   -8.5420    4.6440 P.3    89  CCC89       0.2141
   1435  PC        40.4810   -2.9220    0.9460 P.3    89  CCC89       0.2142
   1436  C5'       39.8260   -7.0320    2.6890 C.3    89  CCC89       0.1812
   1437  O5'       40.4740   -7.1080    3.9590 O.3    89  CCC89      -0.3114
   1438  C4'       39.4140   -5.5860    2.4570 C.3    89  CCC89       0.1772
   1439  O4'       38.5090   -5.2090    3.4960 O.3    89  CCC89      -0.3308
   1440  C3'       40.6390   -4.6700    2.5500 C.3    89  CCC89       0.1831
   1441  O3'       41.0820   -4.3720    1.2240 O.3    89  CCC89      -0.3113
   1442  C2'       40.0870   -3.4300    3.2480 C.3    89  CCC89       0.2009
   1443  O2'       40.1070   -2.2880    2.3830 O.3    89  CCC89      -0.3093
   1444  C1'       38.7240   -3.8370    3.8110 C.3    89  CCC89       0.2391
   1445  N1        38.7910   -3.6190    5.2480 N.ar   89  CCC89      -0.2536
   1446  O1C       41.5010   -2.0360    0.2590 O.co2  89  CCC89      -0.5172
   1447  C2        38.2570   -2.4970    5.7210 C.ar   89  CCC89       0.3532
   1448  O2        37.6930   -1.7160    4.9600 O.2    89  CCC89      -0.2443
   1449  O2C       39.2180   -3.0540    0.1140 O.3    89  CCC89      -0.4373
   1450  N3        38.3290   -2.2720    7.0280 N.ar   89  CCC89      -0.1739
   1451  C4        38.9570   -3.1980    7.7500 C.ar   89  CCC89       0.1759
   1452  N4        39.0730   -3.0310    9.0690 N.pl3  89  CCC89      -0.1070
   1453  C5        39.4420   -4.2230    7.1780 C.ar   89  CCC89       0.0566
   1454  C6        39.3560   -4.4050    5.9980 C.ar   89  CCC89       0.0850
   1455  OP1       41.2070   -8.3410    6.0530 O.co2  89  CCC89      -0.5172
   1456  OP2       41.4670   -9.3800    3.6600 O.3    89  CCC89      -0.4373
@<TRIPOS>BOND
     1     1     5    1
     2     1    14    2
     3     1    19    1
     4     1    23    1
     5     2    15    2
     6     2    20    1
     7     2    23    1
     8     2    24    1
     9     3    16    2
    10     3    21    1
    11     3    24    1
    12     3    25    1
    13     4     6    1
    14     4     5    1
    15     6     7    1
    16     6     8    1
    17     7    12    1
    18     8     9    1
    19     8    10    1
    20     9    33    1
    21    10    11    1
    22    10    12    1
    23    12    32    1
    24    13    17   ar
    25    13    28   ar
    26    17    18    1
    27    17    22   ar
    28    22    26   ar
    29    26    27   ar
    30    26    32   ar
    31    27    28   ar
    32    27    30   ar
    33    28    29    2
    34    30    31   ar
    35    31    32   ar
    36  1420  1434    1
    37  1434  1437    1
    38  1434  1455    2
    39  1434  1456    1
    40  1435  1441    1
    41  1435  1443    1
    42  1435  1446    2
    43  1435  1449    1
    44  1436  1438    1
    45  1436  1437    1
    46  1438  1439    1
    47  1438  1440    1
    48  1439  1444    1
    49  1440  1441    1
    50  1440  1442    1
    51  1442  1443    1
    52  1442  1444    1
    53  1444  1445    1
    54  1445  1447   ar
    55  1445  1454   ar
    56  1447  1448    2
    57  1447  1450   ar
    58  1450  1451   ar
    59  1451  1452    1
    60  1451  1453   ar
    61  1453  1454   ar
    62    41    40    1
    63    64    63    1
    64    59    57    1
    65    59    60    1
    66    59    61    1
    67    57    58    1
    68  1422  1421    1
    69    62    61    1
    70    62    76    1
    71  1420  1419    1
    72    60    65    1
    73    45    44    1
    74    94    76    2
    75    74    56    2
    76    61    63    1
    77    40    42    1
    78    40    38    1
    79    39    56    1
    80    39    38    1
    81    63    65    1
    82    95    76    1
    83    76    78    1
    84    65    66    1
    85    58    56    1
    86  1421  1419    1
    87  1421  1423    1
    88    46    44   ar
    89    46    47   ar
    90    42    37    1
    91    42    53    1
    92  1419  1417    1
    93    56    75    1
    94    44    43   ar
    95    38    36    1
    96    36    37    1
    97    36    34    1
    98  1417  1418    1
    99  1417  1415    1
   100  1423  1418    1
   101  1423  1424    1
   102    47    53   ar
   103    47    48   ar
   104    78    77    1
   105    66    73   ar
   106    66    67   ar
   107    53    52   ar
   108  1415  1416    1
   109    43    49   ar
   110    68    67    2
   111    34    35    1
   112    73    72   ar
   113  1426  1425    2
   114    67    69   ar
   115    77    79    1
   116    79    80    1
   117    79    81    1
   118    80    85    1
   119    84    83    1
   120  1416  1414    1
   121  1424  1425   ar
   122  1424  1431   ar
   123    48    49   ar
   124    48    51   ar
   125  1403  1402    1
   126    52    51   ar
   127    49    50    2
   128  1425  1427   ar
   129    35    33    1
   130    85    83    1
   131    85    86    1
   132    72    70   ar
   133    82    81    1
   134    82    96    1
   135  1431  1430   ar
   136  1432  1414    2
   137    81    83    1
   138    69    70   ar
   139  1399  1398    1
   140  1414  1397    1
   141  1414  1433    1
   142  1402  1404   ar
   143  1402  1401   ar
   144    70    71    1
   145   114    96    2
   146  1427  1428   ar
   147  1397  1396    1
   148  1404  1405   ar
   149    33    54    2
   150    33    55    1
   151    86    93   ar
   152    86    87   ar
   153  1401  1407   ar
   154  1398  1396    1
   155  1398  1400    1
   156    96   115    1
   157    96    98    1
   158  1430  1428   ar
   159    93    92   ar
   160  1428  1429    2
   161    88    87    2
   162  1396  1394    1
   163    87    89   ar
   164    97    98    1
   165    97    99    1
   166  1405  1406   ar
   167  1405  1411   ar
   168  1407  1408    2
   169  1407  1406   ar
   170  1400  1411    1
   171  1400  1395    1
   172    92    90   ar
   173  1406  1409   ar
   174  1411  1410   ar
   175   100    99    1
   176   100   105    1
   177    99   101    1
   178  1394  1395    1
   179  1394  1392    1
   180    89    90   ar
   181    90    91    1
   182  1380  1379    1
   183  1260  1242    2
   184  1410  1409   ar
   185  1392  1393    1
   186   105   106    1
   187   105   103    1
   188   113   106   ar
   189   113   112   ar
   190   101   102    1
   191   101   103    1
   192  1226  1242    1
   193  1226  1225    1
   194  1393  1391    1
   195  1228  1227    1
   196  1221  1223    1
   197  1221  1222    1
   198  1223  1225    1
   199  1223  1224    1
   200   106   107   ar
   201   102   116    1
   202  1240  1220    2
   203   104   103    1
   204   112   110   ar
   205  1280  1262    2
   206  1379  1378   ar
   207  1379  1381   ar
   208  1378  1384   ar
   209   869   868    1
   210  1205  1204    1
   211  1242  1244    1
   212  1242  1261    1
   213  1243  1244    1
   214  1243  1245    1
   215   882   884    1
   216   882   883    1
   217  1225  1227    1
   218   899   881    2
   219  1224  1229    1
   220  1203  1220    1
   221  1203  1202    1
   222   884   885    1
   223   884   886    1
   224   135   116    2
   225  1227  1229    1
   226   107   108    2
   227   107   109   ar
   228  1222  1220    1
   229  1381  1382   ar
   230   919   901    2
   231  1385  1384    2
   232   867   881    1
   233   867   866    1
   234   887   886    1
   235   887   901    1
   236  1220  1241    1
   237   116   134    1
   238   116   118    1
   239  1384  1383   ar
   240  1412  1391    2
   241   110   109   ar
   242   110   111    2
   243  1391  1413    1
   244  1391  1374    1
   245  1262  1281    1
   246  1262  1248    1
   247  1262  1264    1
   248   889   888    1
   249  1245  1247    1
   250  1245  1246    1
   251  1248  1247    1
   252  1229  1239    1
   253   885   890    1
   254   868   866    1
   255   868   870    1
   256  1204  1202    1
   257  1204  1206    1
   258  1200  1202    1
   259  1200  1198    1
   260  1200  1201    1
   261   881   883    1
   262   881   900    1
   263   864   866    1
   264   864   865    1
   265   864   862    1
   266   886   888    1
   267   902   903    1
   268   902   904    1
   269   901   903    1
   270   901   920    1
   271  1382  1383   ar
   272  1382  1388   ar
   273  1198  1199    1
   274  1383  1386   ar
   275  1247  1249    1
   276  1374  1373    1
   277   865   870    1
   278   870   871    1
   279  1246  1251    1
   280   888   890    1
   281  1375  1376    1
   282  1375  1373    1
   283  1375  1377    1
   284   862   863    1
   285  1201  1206    1
   286  1206  1217    1
   287   118   117    1
   288   890   891    1
   289  1264  1263    1
   290  1183  1182    1
   291  1373  1371    1
   292  1250  1249    1
   293   904   905    1
   294   904   906    1
   295  1239  1238   ar
   296  1239  1233   ar
   297   873   872    2
   298   117   119    1
   299  1263  1265    1
   300   494   493    2
   301  1388  1377    1
   302  1388  1387   ar
   303   132   133   ar
   304   132   130   ar
   305   849   848    1
   306  1386  1387   ar
   307  1362  1361    1
   308  1249  1251    1
   309  1209  1208    1
   310  1210  1208   ar
   311  1210  1211   ar
   312  1377  1372    1
   313   495   493   ar
   314   495   496   ar
   315   133   126   ar
   316   905   910    1
   317  1199  1197    1
   318  1251  1252    1
   319   493   492   ar
   320  1218  1197    2
   321  1238  1237   ar
   322   871   872   ar
   323   871   878   ar
   324   863   861    1
   325  1232  1233   ar
   326  1232  1231   ar
   327  1356  1361   ar
   328  1356  1357   ar
   329   120   119    1
   330   120   125    1
   331   907   906    1
   332   907   921    1
   333   497   496    2
   334   131   130    2
   335   872   874   ar
   336  1217  1211   ar
   337  1217  1216   ar
   338   891   898   ar
   339   891   892   ar
   340  1233  1234   ar
   341  1303  1282    2
   342   496   498   ar
   343   130   129   ar
   344  1182  1184    1
   345  1182  1180    1
   346   941   921    2
   347  1208  1207   ar
   348   906   908    1
   349  1361  1360   ar
   350   898   897   ar
   351   119   121    1
   352  1181  1197    1
   353  1181  1180    1
   354  1302  1282    1
   355  1187  1186   ar
   356  1187  1188   ar
   357  1211  1212   ar
   358  1259  1252   ar
   359  1259  1258   ar
   360  1186  1185   ar
   361  1197  1219    1
   362   492   491    1
   363   492   499   ar
   364  1371  1372    1
   365  1371  1369    1
   366   848   846    1
   367   848   850    1
   368   486   491    1
   369   486   485    1
   370   909   908    1
   371  1265  1267    1
   372  1265  1266    1
   373   847   861    1
   374   847   846    1
   375   491   489    1
   376   853   852    2
   377   879   861    2
   378   126   125    1
   379   126   127   ar
   380  1357  1358   ar
   381  1252  1253   ar
   382   523   502    2
   383   921   942    1
   384   921   923    1
   385   878   877   ar
   386  1268  1282    1
   387  1268  1267    1
   388  1282  1284    1
   389   893   892    2
   390   498   499   ar
   391   861   880    1
   392   910   908    1
   393   910   911    1
   394  1184  1179    1
   395  1184  1194    1
   396  1231  1230   ar
   397   125   123    1
   398  1180  1178    1
   399   892   894   ar
   400  1237  1234   ar
   401  1267  1269    1
   402  1216  1215   ar
   403   129   127   ar
   404  1234  1235   ar
   405  1369  1370    1
   406   874   875   ar
   407  1258  1256   ar
   408   846   844    1
   409  1360  1363   ar
   410  1360  1359   ar
   411  1164  1163    1
   412   897   895   ar
   413  1266  1271    1
   414   488   502    1
   415   488   487    1
   416  1178  1179    1
   417  1178  1176    1
   418   127   128    2
   419  1185  1190   ar
   420   850   845    1
   421   850   851    1
   422  1207  1213   ar
   423   121   123    1
   424   121   122    1
   425  1279  1278   ar
   426  1279  1272   ar
   427   485   487    1
   428   485   483    1
   429   918   911   ar
   430   918   917   ar
   431  1188  1194   ar
   432  1188  1189   ar
   433  1278  1276   ar
   434  1340  1339    1
   435   786   785    1
   436  1212  1215   ar
   437  1212  1213   ar
   438  1358  1359   ar
   439   502   524    1
   440   502   504    1
   441   852   851   ar
   442   852   854   ar
   443   911   912   ar
   444   490   489    1
   445  1194  1193   ar
   446   489   487    1
   447  1363  1364   ar
   448   844   845    1
   449   844   842    1
   450   877   875   ar
   451  1253  1254    2
   452  1253  1255   ar
   453  1359  1365   ar
   454   923   922    1
   455   123   124    1
   456  1230  1235   ar
   457   894   895   ar
   458   922   924    1
   459  1284  1283    1
   460   122   136    1
   461   875   876    2
   462  1235  1236    1
   463   851   858   ar
   464  1213  1214    2
   465   917   915   ar
   466   483   484    1
   467   895   896    2
   468  1269  1271    1
   469  1269  1270    1
   470  1370  1368    1
   471   157   136    2
   472  1271  1272    1
   473   839   821    2
   474  1272  1273   ar
   475  1163  1162   ar
   476  1163  1165   ar
   477   854   855   ar
   478  1176  1177    1
   479  1190  1189   ar
   480  1190  1191    1
   481  1256  1255   ar
   482  1256  1257    1
   483   819   798    2
   484  1189  1192   ar
   485  1339  1334   ar
   486  1339  1338   ar
   487  1276  1277    2
   488  1276  1275   ar
   489  1390  1368    2
   490  1334  1335   ar
   491  1162  1168   ar
   492   800   799    1
   493   800   798    1
   494   484   482    1
   495  1319  1318    2
   496  1364  1365   ar
   497  1323  1304    2
   498   804   821    1
   499   804   803    1
   500   785   787    1
   501   785   783    1
   502   806   805    1
   503   912   913    2
   504   912   914   ar
   505  1365  1355    1
   506   504   503    1
   507   784   798    1
   508   784   783    1
   509  1193  1192   ar
   510  1283  1285    1
   511   503   505    1
   512   842   843    1
   513   136   156    1
   514   136   138    1
   515   801   799    1
   516   801   803    1
   517   801   802    1
   518  1165  1166   ar
   519  1368  1389    1
   520  1368  1352    1
   521   798   820    1
   522   787   782    1
   523   787   788    1
   524   924   925    1
   525   924   926    1
   526   790   789    2
   527   781   783    1
   528   781   782    1
   529   781   779    1
   530  1299  1300   ar
   531  1299  1296   ar
   532   915   914   ar
   533   915   916    1
   534   821   840    1
   535   821   823    1
   536   858   857   ar
   537   843   841    1
   538   925   930    1
   539  1338  1341   ar
   540  1338  1337   ar
   541  1353  1355    1
   542  1353  1354    1
   543  1353  1351    1
   544  1273  1275   ar
   545  1273  1274    2
   546  1177  1175    1
   547  1300  1301   ar
   548   855   857   ar
   549   855   856    1
   550   803   805    1
   551   153   154   ar
   552   153   150   ar
   553  1335  1336   ar
   554  1341  1342   ar
   555  1318  1320   ar
   556  1318  1317   ar
   557   547   525    2
   558   802   807    1
   559   822   823    1
   560   822   824    1
   561   152   151    1
   562  1320  1321   ar
   563  1355  1350    1
   564  1168  1169    2
   565  1168  1167   ar
   566   805   807    1
   567  1298  1297    1
   568   154   155   ar
   569  1304  1322    1
   570  1304  1288    1
   571  1304  1306    1
   572   482   501    2
   573   482   500    1
   574   482   466    1
   575  1160  1159    1
   576  1351  1352    1
   577  1351  1349    1
   578   939   938   ar
   579   939   940   ar
   580   138   137    1
   581   807   818    1
   582  1285  1287    1
   583  1285  1286    1
   584   779   780    1
   585   505   507    1
   586   505   506    1
   587   789   788   ar
   588   789   791   ar
   589  1166  1167   ar
   590  1166  1172   ar
   591   546   525    1
   592   770   769    2
   593   788   795   ar
   594   926   927    1
   595   926   928    1
   596  1296  1297   ar
   597  1296  1295   ar
   598   150   151   ar
   599   150   149   ar
   600  1337  1336   ar
   601  1337  1343   ar
   602   151   146   ar
   603  1287  1288    1
   604  1287  1289    1
   605  1286  1291    1
   606   938   935   ar
   607  1195  1175    2
   608   525   508    1
   609   525   527    1
   610   927   943    1
   611   508   507    1
   612  1159  1161    1
   613  1159  1157    1
   614  1367  1346    2
   615   824   825    1
   616   824   826    1
   617  1167  1170   ar
   618   589   571    2
   619  1345  1324    2
   620  1317  1315   ar
   621  1342  1343   ar
   622   964   943    2
   623   930   940    1
   624   930   928    1
   625  1297  1292   ar
   626  1301  1295   ar
   627  1301  1291    1
   628  1321  1314   ar
   629  1175  1158    1
   630  1175  1196    1
   631   480   460    2
   632   194   193    1
   633  1350  1349    1
   634  1306  1305    1
   635   841   827    1
   636   841   859    2
   637   841   860    1
   638   507   509    1
   639   466   465    1
   640   940   934   ar
   641   173   172    2
   642   506   511    1
   643   137   139    1
   644   155   149   ar
   645   155   145    1
   646  1348  1346    1
   647  1348  1347    1
   648   140   145    1
   649   140   139    1
   650   827   826    1
   651  1161  1172    1
   652  1161  1156    1
   653   963   943    1
   654  1343  1333    1
   655   461   463    1
   656   461   462    1
   657   943   945    1
   658  1349  1347    1
   659  1172  1171   ar
   660   769   771   ar
   661   769   768   ar
   662  1295  1294   ar
   663   771   772   ar
   664   149   148   ar
   665   766   765    1
   666   791   792   ar
   667  1291  1289    1
   668   554   571    1
   669   554   553    1
   670   928   929    1
   671   521   520   ar
   672   521   522   ar
   673   556   555    1
   674   825   830    1
   675   146   147   ar
   676  1141  1140    1
   677   463   465    1
   678   463   464    1
   679   780   778    1
   680  1158  1157    1
   681   818   817   ar
   682   818   812   ar
   683   465   467    1
   684   795   794   ar
   685   826   828    1
   686  1346  1366    1
   687  1346  1330    1
   688  1289  1290    1
   689  1157  1155    1
   690   935   934   ar
   691   935   936   ar
   692   520   517   ar
   693   145   143    1
   694  1314  1315   ar
   695  1314  1313    1
   696   188   193   ar
   697   188   189   ar
   698   551   549    1
   699   551   553    1
   700   551   552    1
   701   572   573    1
   702   572   574    1
   703  1315  1316    2
   704   571   573    1
   705   571   590    1
   706   193   192   ar
   707   139   141    1
   708   446   445    1
   709   527   526    1
   710   444   460    1
   711   444   443    1
   712  1170  1171   ar
   713  1292  1293   ar
   714   549   550    1
   715   172   174   ar
   716   172   171   ar
   717   460   462    1
   718   460   481    1
   719   811   812   ar
   720   811   809   ar
   721   765   767    1
   722   765   763    1
   723   934   933   ar
   724   609   591    2
   725  1324  1326    1
   726  1324  1344    1
   727  1324  1310    1
   728  1139  1140   ar
   729  1139  1145   ar
   730  1305  1307    1
   731   817   816   ar
   732   796   778    2
   733   511   509    1
   734   511   522    1
   735  1326  1325    1
   736   147   148   ar
   737   553   555    1
   738   509   510    1
   739   812   813   ar
   740   522   516   ar
   741  1140  1142   ar
   742   773   772    1
   743   772   774   ar
   744   767   768    1
   745   767   762    1
   746  1331  1329    1
   747  1331  1333    1
   748  1331  1332    1
   749   792   794   ar
   750   792   793    1
   751   768   775   ar
   752  1329  1330    1
   753  1329  1327    1
   754   174   175   ar
   755  1156  1155    1
   756  1333  1328    1
   757  1309  1310    1
   758  1309  1307    1
   759  1309  1311    1
   760  1294  1293   ar
   761   555   557    1
   762   937   936    1
   763   552   557    1
   764  1146  1145    2
   765   778   764    1
   766   778   797    1
   767   464   469    1
   768   574   576    1
   769   574   575    1
   770  1155  1153    1
   771   830   828    1
   772   830   831    1
   773   945   944    1
   774   171   169   ar
   775   936   931   ar
   776   829   828    1
   777   577   591    1
   778   577   576    1
   779   141   143    1
   780   141   142    1
   781   569   548    2
   782   810   809    1
   783  1308  1307    1
   784  1308  1313    1
   785   189   190   ar
   786   467   468    1
   787   467   469    1
   788   526   528    1
   789   809   808   ar
   790  1313  1311    1
   791  1145  1144   ar
   792   263   242    2
   793   445   443    1
   794   445   447    1
   795   443   441    1
   796   517   516   ar
   797   517   518   ar
   798   591   610    1
   799   591   593    1
   800   143   144    1
   801   192   195   ar
   802   192   191   ar
   803   557   568    1
   804   933   932   ar
   805  1328  1327    1
   806  1311  1312    1
   807   764   763    1
   808   264   242    1
   809   838   831   ar
   810   838   837   ar
   811   550   548    1
   812   763   761    1
   813   543   544   ar
   814   543   540   ar
   815   469   479    1
   816   816   813   ar
   817  1325  1327    1
   818   544   545   ar
   819   241   220    2
   820   813   814   ar
   821   441   439    1
   822   441   442    1
   823   516   515   ar
   824   576   578    1
   825   195   196   ar
   826  1142  1143   ar
   827   944   946    1
   828   831   832   ar
   829   775   774   ar
   830   175   168   ar
   831   575   580    1
   832   177   158    2
   833   242   244    1
   834   242   226    1
   835   960   961   ar
   836   960   957   ar
   837   762   761    1
   838   244   243    1
   839   931   932   ar
   840   548   531    1
   841   548   570    1
   842   169   168   ar
   843   169   170    2
   844   519   518    2
   845   142   158    1
   846   961   962   ar
   847   260   261   ar
   848   260   257   ar
   849   518   512   ar
   850   837   835   ar
   851  1153  1154    1
   852   190   191   ar
   853   439   440    1
   854   191   197   ar
   855   761   759    1
   856   447   442    1
   857   447   457    1
   858   579   578    1
   859   808   814   ar
   860  1144  1143   ar
   861  1144  1147   ar
   862   528   530    1
   863   528   529    1
   864   168   167    1
   865   592   593    1
   866   592   594    1
   867   530   531    1
   868   530   532    1
   869   261   262   ar
   870  1143  1149   ar
   871   243   245    1
   872   529   534    1
   873   542   541    2
   874   259   258    2
   875  1154  1152    1
   876  1084  1083    2
   877   814   815    2
   878   959   958    1
   879   540   541   ar
   880   540   539   ar
   881   568   567   ar
   882   568   562   ar
   883   578   580    1
   884   158   160    1
   885   158   176    1
   886   515   513   ar
   887   545   534    1
   888   545   539   ar
   889   208   207    1
   890   479   478   ar
   891   479   473   ar
   892   947   946    1
   893   947   952    1
   894   832   833    2
   895   832   834   ar
   896   196   197   ar
   897   580   581    1
   898   212   211    2
   899   220   206    1
   900   220   240    1
   901   220   222    1
   902   946   948    1
   903   957   958   ar
   904   957   956   ar
   905  1124  1123    2
   906   206   205    1
   907   981   980    1
   908   450   449   ar
   909   450   451   ar
   910   541   535   ar
   911   257   258   ar
   912   257   256   ar
   913   986   965    2
   914   160   159    1
   915   561   562   ar
   916   561   559   ar
   917   221   222    1
   918   221   223    1
   919   226   225    1
   920   750   749    2
   921   962   952    1
   922   962   956   ar
   923   197   187    1
   924   258   252   ar
   925   534   532    1
   926   440   438    1
   927   835   834   ar
   928   835   836    1
   929   567   566   ar
   930   512   513   ar
   931  1085  1083   ar
   932  1085  1086   ar
   933   958   953   ar
   934   472   473   ar
   935   472   471   ar
   936   246   245    1
   937   246   251    1
   938  1147  1148   ar
   939   457   451   ar
   940   457   456   ar
   941  1057  1058   ar
   942  1057  1062   ar
   943   539   538   ar
   944  1083  1082   ar
   945   562   563   ar
   946   532   533    1
   947   478   477   ar
   948   262   256   ar
   949   262   251    1
   950   162   167    1
   951   162   161    1
   952   167   165    1
   953  1104  1103    2
   954   513   514    1
   955   588   581   ar
   956   588   587   ar
   957   759   760    1
   958   473   474   ar
   959   245   247    1
   960   948   949    1
   961   948   950    1
   962  1002  1001    1
   963  1149  1148   ar
   964  1149  1138    1
   965   594   595    1
   966   594   596    1
   967  1058  1059   ar
   968   449   448   ar
   969   451   452   ar
   970   404   403    1
   971  1136  1137    1
   972  1136  1138    1
   973  1136  1134    1
   974   952   950    1
   975   956   955   ar
   976   760   758    1
   977   211   213   ar
   978   211   210   ar
   979   581   582   ar
   980   982   979   ar
   981   982   983   ar
   982   225   223    1
   983   225   227    1
   984   749   751   ar
   985   749   748   ar
   986   742   741    1
   987   742   747    1
   988   207   205    1
   989   207   209    1
   990   223   224    1
   991   256   255   ar
   992  1152  1174    2
   993  1152  1173    1
   994  1152  1135    1
   995  1063  1062    1
   996   751   752   ar
   997  1123  1122   ar
   998  1123  1125   ar
   999  1022  1021    1
  1000   560   559    1
  1001   631   611    2
  1002   205   203    1
  1003  1122  1120   ar
  1004   980   979   ar
  1005   980   975   ar
  1006   559   558   ar
  1007   213   214   ar
  1008   251   249    1
  1009   632   611    1
  1010  1138  1133    1
  1011   949   965    1
  1012   159   161    1
  1013   209   210    1
  1014   209   204    1
  1015  1062  1061   ar
  1016   597   596    1
  1017   597   611    1
  1018   965   985    1
  1019   965   967    1
  1020   535   536   ar
  1021  1086  1079   ar
  1022   595   600    1
  1023   252   253   ar
  1024   456   455   ar
  1025   471   470   ar
  1026   458   438    2
  1027   249   247    1
  1028   249   250    1
  1029   566   563   ar
  1030   979   978   ar
  1031   247   248    1
  1032   741   739    1
  1033   741   743    1
  1034   187   182    1
  1035   187   185    1
  1036   587   585   ar
  1037   596   598    1
  1038   953   954   ar
  1039   438   459    1
  1040   438   424    1
  1041   950   951    1
  1042  1082  1080   ar
  1043   161   163    1
  1044   611   613    1
  1045   747   748    1
  1046   747   745    1
  1047   563   564   ar
  1048   538   536   ar
  1049   210   217   ar
  1050   477   474   ar
  1051  1103  1105   ar
  1052  1103  1102   ar
  1053   165   163    1
  1054   165   166    1
  1055   983   984   ar
  1056   748   755   ar
  1057  1059  1060   ar
  1058  1134  1135    1
  1059  1134  1132    1
  1060   474   475   ar
  1061   752   753    1
  1062   752   754   ar
  1063   419   421    1
  1064   419   420    1
  1065   448   453   ar
  1066  1001  1000   ar
  1067  1001  1003   ar
  1068   744   758    1
  1069   744   743    1
  1070   163   164    1
  1071   452   455   ar
  1072   452   453   ar
  1073   739   740    1
  1074   975   976   ar
  1075   955   954   ar
  1076   536   537    1
  1077   403   405    1
  1078   403   401    1
  1079   255   253   ar
  1080   582   583    2
  1081   582   584   ar
  1082   421   422    1
  1083   421   423    1
  1084  1125  1126   ar
  1085   758   777    2
  1086   758   776    1
  1087  1021  1020   ar
  1088  1021  1023   ar
  1089   436   418    2
  1090   182   181    1
  1091   402   401    1
  1092   402   418    1
  1093   608   607   ar
  1094   608   601   ar
  1095  1120  1121    2
  1096  1120  1119   ar
  1097   214   215    1
  1098   214   216   ar
  1099   253   254    1
  1100  1105  1106   ar
  1101   204   203    1
  1102  1020  1018   ar
  1103   185   186    1
  1104   185   183    1
  1105   203   201    1
  1106   227   228    1
  1107   227   229    1
  1108   224   229    1
  1109   558   564   ar
  1110   424   423    1
  1111  1061  1060   ar
  1112  1061  1064   ar
  1113   967   966    1
  1114  1079  1080   ar
  1115  1079  1078    1
  1116  1000   998   ar
  1117   743   745    1
  1118  1003  1004   ar
  1119   453   454    1
  1120  1133  1132    1
  1121  1102  1100   ar
  1122   755   754   ar
  1123   607   605   ar
  1124   199   178    2
  1125   286   265    2
  1126   405   400    1
  1127   405   415    1
  1128  1060  1066   ar
  1129   470   475   ar
  1130   399   401    1
  1131   399   400    1
  1132   399   397    1
  1133  1080  1081    2
  1134   600   598    1
  1135   600   601    1
  1136   564   565    2
  1137   978   984   ar
  1138   978   977   ar
  1139   422   427    1
  1140   217   216   ar
  1141   248   265    1
  1142   690   689    2
  1143   585   584   ar
  1144   585   586    1
  1145   475   476    1
  1146   598   599    1
  1147   408   407   ar
  1148   408   409   ar
  1149   984   974    1
  1150   745   746    1
  1151   685   684    1
  1152  1132  1130    1
  1153   683   689   ar
  1154   683   684   ar
  1155   420   418    1
  1156   418   437    1
  1157   423   425    1
  1158   740   738    1
  1159   601   602   ar
  1160   229   239    1
  1161   613   612    1
  1162  1077  1076    1
  1163   232   231   ar
  1164   232   233   ar
  1165   976   977   ar
  1166   180   178    1
  1167   180   179    1
  1168   164   178    1
  1169  1126  1119   ar
  1170   183   181    1
  1171   183   184    1
  1172  1023  1024   ar
  1173  1119  1118    1
  1174   407   406   ar
  1175   265   287    1
  1176   265   267    1
  1177  1018  1019    2
  1178  1018  1017   ar
  1179   388   387    2
  1180   181   179    1
  1181   231   230   ar
  1182   689   688   ar
  1183  1106  1099   ar
  1184   178   198    1
  1185  1064  1065   ar
  1186   756   738    2
  1187   201   202    1
  1188  1076  1078    1
  1189  1076  1074    1
  1190   684   686   ar
  1191   397   398    1
  1192   202   200    1
  1193  1078  1073    1
  1194   966   968    1
  1195   969   974    1
  1196   969   968    1
  1197   998   999    2
  1198   998   997   ar
  1199  1004   997   ar
  1200   415   409   ar
  1201   415   414   ar
  1202   612   614    1
  1203  1066  1065   ar
  1204  1066  1056    1
  1205  1131  1130    1
  1206  1131  1129    1
  1207   384   383    1
  1208  1100  1099   ar
  1209  1100  1101    2
  1210   409   410   ar
  1211   427   425    1
  1212   427   428    1
  1213   605   606    2
  1214   605   604   ar
  1215   239   233   ar
  1216   239   238   ar
  1217   233   234   ar
  1218   974   972    1
  1219   733   732    1
  1220   738   724    1
  1221   738   757    1
  1222   425   426    1
  1223  1151  1129    2
  1224  1099  1098    1
  1225   365   364    1
  1226   184   200    1
  1227   602   604   ar
  1228   602   603    2
  1229   219   200    2
  1230  1024  1017   ar
  1231   997   996    1
  1232   652   633    2
  1233  1056  1051    1
  1234  1056  1054    1
  1235  1073  1072    1
  1236   230   235   ar
  1237  1116  1118    1
  1238  1116  1114    1
  1239  1116  1117    1
  1240  1118  1113    1
  1241   968   970    1
  1242  1006   987    2
  1243   406   411   ar
  1244  1017  1016    1
  1245   387   389   ar
  1246   387   386   ar
  1247  1128  1109    2
  1248   200   218    1
  1249   688   687   ar
  1250   688   691   ar
  1251   267   266    1
  1252   732   734   ar
  1253   732   731   ar
  1254   383   385    1
  1255   383   381    1
  1256   686   687   ar
  1257   668   667    2
  1258   734   735   ar
  1259   283   284   ar
  1260   283   280   ar
  1261   389   390   ar
  1262   970   972    1
  1263   970   971    1
  1264  1129  1115    1
  1265  1129  1150    1
  1266   398   396    1
  1267   428   435   ar
  1268   428   429   ar
  1269   724   723    1
  1270  1074  1072    1
  1271  1074  1075    1
  1272   284   285   ar
  1273  1051  1050    1
  1274   628   629   ar
  1275   628   625   ar
  1276   414   413   ar
  1277   266   268    1
  1278  1055  1054    1
  1279   238   237   ar
  1280   234   235   ar
  1281   234   237   ar
  1282  1114  1115    1
  1283  1114  1112    1
  1284   972   973    1
  1285   629   630   ar
  1286  1070  1072    1
  1287  1070  1071    1
  1288   385   386    1
  1289   385   380    1
  1290   435   434   ar
  1291   410   411   ar
  1292   410   413   ar
  1293   614   616    1
  1294   614   615    1
  1295   363   364   ar
  1296   363   369   ar
  1297   235   236    1
  1298   687   693   ar
  1299   364   366   ar
  1300   731   729   ar
  1301  1071  1069    1
  1302   617   633    1
  1303   617   616    1
  1304   723   725    1
  1305   723   721    1
  1306   633   651    1
  1307   633   635    1
  1308   411   412    1
  1309   430   429    2
  1310   735   728   ar
  1311  1113  1112    1
  1312  1054  1052    1
  1313   386   393   ar
  1314   616   618    1
  1315  1111  1109    1
  1316  1111  1110    1
  1317   737   718    2
  1318   691   692   ar
  1319   269   268    1
  1320   269   274    1
  1321   282   281    2
  1322   429   431   ar
  1323  1098  1096    1
  1324  1098  1093    1
  1325  1053  1052    1
  1326  1053  1069    1
  1327  1108  1089    2
  1328  1075  1089    1
  1329   996   991    1
  1330   996   994    1
  1331  1091  1089    1
  1332  1091  1090    1
  1333   416   396    2
  1334  1016  1014    1
  1335  1016  1011    1
  1336  1109  1095    1
  1337  1109  1127    1
  1338   987   971    1
  1339   987   989    1
  1340   987  1005    1
  1341   648   647    1
  1342   280   281   ar
  1343   280   279   ar
  1344   615   620    1
  1345   382   381    1
  1346   382   396    1
  1347   667   666   ar
  1348   667   669   ar
  1349  1096  1094    1
  1350  1096  1097    1
  1351  1094  1095    1
  1352  1094  1092    1
  1353   370   369    2
  1354   390   391    1
  1355   390   392   ar
  1356   381   379    1
  1357   396   417    1
  1358   725   726    1
  1359   725   727    1
  1360  1093  1092    1
  1361   434   432   ar
  1362   285   274    1
  1363   285   279   ar
  1364   268   270    1
  1365   729   728   ar
  1366   729   730    2
  1367  1015  1014    1
  1368  1050  1052    1
  1369  1050  1048    1
  1370  1112  1110    1
  1371   989   988    1
  1372   728   727    1
  1373   380   379    1
  1374   281   275   ar
  1375   627   626    1
  1376   369   368   ar
  1377   991   990    1
  1378   625   626   ar
  1379   625   624   ar
  1380   719   720    1
  1381   719   721    1
  1382  1089  1107    1
  1383   630   620    1
  1384   630   624   ar
  1385   649   647   ar
  1386   649   650   ar
  1387  1035  1034    1
  1388   716   696    2
  1389   736   718    1
  1390   693   692   ar
  1391   693   682    1
  1392  1014  1012    1
  1393  1069  1088    2
  1394  1069  1087    1
  1395   718   720    1
  1396   718   702    1
  1397   366   367   ar
  1398   274   272    1
  1399   379   377    1
  1400   994   992    1
  1401   994   995    1
  1402  1011  1010    1
  1403   431   432   ar
  1404   721   722    1
  1405   712   711    1
  1406   666   664   ar
  1407  1090  1092    1
  1408   279   278   ar
  1409   669   670   ar
  1410  1026  1007    2
  1411   647   646   ar
  1412   393   392   ar
  1413   620   618    1
  1414  1030  1028    1
  1415  1030  1031    1
  1416  1030  1032    1
  1417   347   346    1
  1418   635   634    1
  1419   626   621   ar
  1420   432   433    2
  1421   618   619    1
  1422   305   304    2
  1423   727   722    1
  1424  1028  1029    1
  1425  1031  1036    1
  1426   992   990    1
  1427   992   993    1
  1428   624   623   ar
  1429   341   346   ar
  1430   341   342   ar
  1431   270   272    1
  1432   270   271    1
  1433  1033  1032    1
  1434  1033  1047    1
  1435  1048  1049    1
  1436   713   710   ar
  1437   713   714   ar
  1438   650   643   ar
  1439   990   988    1
  1440   275   276   ar
  1441   680   682    1
  1442   680   681    1
  1443   680   678    1
  1444  1029  1027    1
  1445   711   710   ar
  1446   711   706   ar
  1447   368   367   ar
  1448   368   371   ar
  1449   682   677    1
  1450   367   373   ar
  1451  1036  1034    1
  1452  1036  1037    1
  1453  1034  1032    1
  1454   672   653    2
  1455  1049  1047    1
  1456   346   345   ar
  1457   710   709   ar
  1458   310   288    2
  1459   696   698    1
  1460   696   717    1
  1461   696   679    1
  1462   272   273    1
  1463   278   276   ar
  1464   698   697    1
  1465   714   715   ar
  1466  1012  1010    1
  1467  1012  1013    1
  1468  1010  1008    1
  1469   702   701    1
  1470   664   665    2
  1471   664   663   ar
  1472   670   663   ar
  1473   634   636    1
  1474   646   644   ar
  1475   306   303   ar
  1476   306   307   ar
  1477   342   343   ar
  1478   304   303   ar
  1479   304   298   ar
  1480  1007  1009    1
  1481  1007   993    1
  1482  1007  1025    1
  1483   706   707   ar
  1484   377   378    1
  1485  1009  1008    1
  1486   326   325    2
  1487   276   277    1
  1488   271   288    1
  1489  1068  1047    2
  1490   621   622   ar
  1491  1047  1067    1
  1492   701   703    1
  1493   701   699    1
  1494   678   679    1
  1495   678   676    1
  1496  1039  1038    2
  1497  1013  1027    1
  1498   623   622   ar
  1499   695   673    2
  1500   303   302   ar
  1501   663   662    1
  1502   709   715   ar
  1503   709   708   ar
  1504   643   644   ar
  1505   643   642    1
  1506  1027  1046    2
  1507  1027  1045    1
  1508   378   376    1
  1509   715   705    1
  1510   371   372   ar
  1511   677   676    1
  1512   288   309    1
  1513   288   290    1
  1514   373   362    1
  1515   373   372   ar
  1516   703   705    1
  1517   703   704    1
  1518  1037  1038   ar
  1519  1037  1044   ar
  1520   707   708   ar
  1521   307   308   ar
  1522   697   699    1
  1523   644   645    2
  1524   298   299   ar
  1525   345   344   ar
  1526   345   348   ar
  1527   653   655    1
  1528   653   639    1
  1529   653   671    1
  1530  1038  1040   ar
  1531   636   637    1
  1532   636   638    1
  1533   637   642    1
  1534   675   673    1
  1535   675   674    1
  1536   361   360    1
  1537   638   639    1
  1538   638   640    1
  1539   360   362    1
  1540   360   358    1
  1541   325   324   ar
  1542   325   327   ar
  1543   343   344   ar
  1544   699   700    1
  1545   676   674    1
  1546   362   357    1
  1547   655   654    1
  1548   705   700    1
  1549   642   640    1
  1550   673   694    1
  1551   673   659    1
  1552  1044  1043   ar
  1553   344   350   ar
  1554   290   289    1
  1555   302   308   ar
  1556   302   301   ar
  1557   324   322   ar
  1558   348   349   ar
  1559   662   660    1
  1560   662   657    1
  1561   308   297    1
  1562   658   660    1
  1563   658   659    1
  1564   658   656    1
  1565   640   641    1
  1566   660   661    1
  1567   327   328   ar
  1568   376   395    2
  1569   376   394    1
  1570   376   359    1
  1571   299   301   ar
  1572   299   300    1
  1573  1040  1041   ar
  1574   358   359    1
  1575   358   356    1
  1576   657   656    1
  1577   357   356    1
  1578   654   656    1
  1579  1043  1041   ar
  1580   289   291    1
  1581   292   297    1
  1582   292   291    1
  1583   350   349   ar
  1584   350   340    1
  1585   322   323    2
  1586   322   321   ar
  1587   297   295    1
  1588  1041  1042    2
  1589   328   321   ar
  1590   356   354    1
  1591   291   293    1
  1592   321   320    1
  1593   330   311    2
  1594   293   295    1
  1595   293   294    1
  1596   340   338    1
  1597   340   335    1
  1598   295   296    1
  1599   338   339    1
  1600   338   336    1
  1601   355   354    1
  1602   355   353    1
  1603   294   311    1
  1604   335   334    1
  1605   311   313    1
  1606   311   329    1
  1607   320   315    1
  1608   320   318    1
  1609   375   353    2
  1610   336   337    1
  1611   336   334    1
  1612   313   312    1
  1613   353   337    1
  1614   353   374    1
  1615   315   314    1
  1616   318   316    1
  1617   318   319    1
  1618   352   331    2
  1619   334   332    1
  1620   333   331    1
  1621   333   332    1
  1622   316   314    1
  1623   316   317    1
  1624   312   314    1
  1625   331   317    1
  1626   331   351    1
