lig.pdb
 OpenBabel03051820513D

 18 19  0  0  0  0  0  0  0  0999 V2000
  -12.5330   15.2870    2.7530 C   0  0  0  0  0  0  0  0  0  0  0  0
   -9.0580   11.9210    2.3970 N   0  0  0  0  0  0  0  0  0  0  0  0
   -4.4960   14.2430    3.6660 C   0  0  0  0  0  0  0  0  0  0  0  0
   -0.2930   16.8910    2.0650 O   0  0  0  0  0  0  0  0  0  0  0  0
   -1.5550   16.4820    1.5560 C   0  0  0  0  0  0  0  0  0  0  0  0
   -2.6180   16.5230    2.6710 C   0  0  0  0  0  0  0  0  0  0  0  0
   -6.1370   15.7010    0.6340 C   0  0  0  0  0  0  0  0  0  0  0  0
   -4.7520   16.7430    0.6400 S   0  0  0  0  0  0  0  0  0  0  0  0
   -3.9350   16.0800    2.0730 C   0  0  0  0  0  0  0  0  0  0  0  0
   -4.8130   15.0930    2.4470 C   0  0  0  0  0  0  0  0  0  0  0  0
   -5.9390   14.9210    1.6890 N   0  0  0  0  0  0  0  0  0  0  0  0
   -6.9470   13.8500    2.0130 C   0  0  0  0  0  0  0  0  0  0  0  0
   -9.4120   13.2700    2.3800 C   0  0  0  0  0  0  0  0  0  0  0  0
  -10.7200   13.6320    2.5530 N   0  0  0  0  0  0  0  0  0  0  0  0
  -11.0840   14.9170    2.5430 C   0  0  0  0  0  0  0  0  0  0  0  0
  -10.1760   15.8800    2.3600 N   0  0  0  0  0  0  0  0  0  0  0  0
   -8.8590   15.5970    2.1850 C   0  0  0  0  0  0  0  0  0  0  0  0
   -8.4150   14.2700    2.1920 C   0  0  0  0  0  0  0  0  0  0  0  0
  5  4  1  0  0  0  0
  5  6  1  0  0  0  0
  7  8  2  0  0  0  0
  7 11  1  0  0  0  0
  8  9  1  0  0  0  0
  9 10  2  0  0  0  0
  9  6  1  0  0  0  0
 10  3  1  0  0  0  0
 11 12  1  0  0  0  0
 11 10  1  0  0  0  0
 12 18  1  0  0  0  0
 13  2  1  0  0  0  0
 13 14  2  0  0  0  0
 15 14  1  0  0  0  0
 15  1  1  0  0  0  0
 16 15  2  0  0  0  0
 17 18  2  0  0  0  0
 17 16  1  0  0  0  0
 18 13  1  0  0  0  0
M  END
$$$$
